MODEL 1
REMARK VINA RESULT:      -7.6      0.000      0.000
REMARK  Name = 
REMARK  7 active torsions:
REMARK  status: ('A' for Active; 'I' for Inactive)
REMARK    1  A    between atoms: C_1  and  C_2
REMARK    2  A    between atoms: C_5  and  C_6
REMARK    3  A    between atoms: C_6  and  N_7
REMARK    4  A    between atoms: C_11  and  C_12
REMARK    5  A    between atoms: C_15  and  C_16
REMARK    6  A    between atoms: N_18  and  C_19
REMARK    7  A    between atoms: C_19  and  C_20
REMARK                            x       y       z     vdW  Elec       q    Type
REMARK                         _______ _______ _______ _____ _____    ______ ____
ROOT
ATOM      1  C   UNL     1       4.856   4.117  18.745  0.00  0.00    +0.000 A 
ATOM      2  C   UNL     1       6.036   4.681  19.191  0.00  0.00    +0.000 A 
ATOM      3  C   UNL     1       6.899   5.057  18.132  0.00  0.00    +0.000 A 
ATOM      4  C   UNL     1       6.367   4.777  16.887  0.00  0.00    +0.000 A 
ATOM      5  S   UNL     1       4.807   4.062  17.039  0.00  0.00    +0.000 S 
ENDROOT
BRANCH   1  10
ATOM      6  N   UNL     1       2.536   4.389  19.317  0.00  0.00    +0.000 NA
ATOM      7  C   UNL     1       1.521   3.572  18.666  0.00  0.00    +0.000 C 
ATOM      8  C   UNL     1       1.895   2.125  18.917  0.00  0.00    +0.000 C 
ATOM      9  C   UNL     1       3.386   2.135  19.186  0.00  0.00    +0.000 C 
ATOM     10  C   UNL     1       3.728   3.574  19.588  0.00  0.00    +0.000 C 
BRANCH   6  11
ATOM     11  C   UNL     1       2.081   5.181  20.455  0.00  0.00    +0.000 C 
BRANCH  11  16
ATOM     12  C   UNL     1       1.854   9.903  18.000  0.00  0.00    +0.000 C 
ATOM     13  C   UNL     1       1.783   8.777  18.972  0.00  0.00    +0.000 A 
ATOM     14  N   UNL     1       1.286   8.878  20.186  0.00  0.00    +0.000 NA
ATOM     15  C   UNL     1       1.353   7.650  20.814  0.00  0.00    +0.000 A 
ATOM     16  C   UNL     1       1.905   6.621  20.076  0.00  0.00    +0.000 A 
ATOM     17  S   UNL     1       2.363   7.217  18.535  0.00  0.00    +0.000 S 
ENDBRANCH  11  16
ENDBRANCH   6  11
ENDBRANCH   1  10
BRANCH   4  18
ATOM     18  C   UNL     1       6.930   4.992  15.561  0.00  0.00    +0.000 C 
ATOM     19  O   UNL     1       7.731   5.884  15.291  0.00  0.00    +0.000 OA
ATOM     20  N   UNL     1       6.503   4.104  14.592  0.00  0.00    +0.000 N 
ATOM     21  H   UNL     1       5.862   3.367  14.832  0.00  0.00    +0.000 HD
BRANCH  20  22
ATOM     22  C   UNL     1       6.970   4.157  13.231  0.00  0.00    +0.000 C 
BRANCH  22  23
ATOM     23  C   UNL     1       6.056   3.342  12.390  0.00  0.00    +0.000 A 
ATOM     24  C   UNL     1       6.346   2.107  11.738  0.00  0.00    +0.000 A 
ATOM     25  C   UNL     1       5.209   1.747  11.055  0.00  0.00    +0.000 A 
ATOM     26  O   UNL     1       4.233   2.670  11.245  0.00  0.00    +0.000 OA
ATOM     27  C   UNL     1       4.750   3.632  12.049  0.00  0.00    +0.000 A 
ENDBRANCH  22  23
ENDBRANCH  20  22
ENDBRANCH   4  18
TORSDOF 6
ENDMDL
MODEL 2
REMARK VINA RESULT:      -7.6      0.970      1.223
REMARK  Name = 
REMARK  7 active torsions:
REMARK  status: ('A' for Active; 'I' for Inactive)
REMARK    1  A    between atoms: C_1  and  C_2
REMARK    2  A    between atoms: C_5  and  C_6
REMARK    3  A    between atoms: C_6  and  N_7
REMARK    4  A    between atoms: C_11  and  C_12
REMARK    5  A    between atoms: C_15  and  C_16
REMARK    6  A    between atoms: N_18  and  C_19
REMARK    7  A    between atoms: C_19  and  C_20
REMARK                            x       y       z     vdW  Elec       q    Type
REMARK                         _______ _______ _______ _____ _____    ______ ____
ROOT
ATOM      1  C   UNL     1       4.945   4.191  18.505  0.00  0.00    +0.000 A 
ATOM      2  C   UNL     1       6.166   4.713  18.886  0.00  0.00    +0.000 A 
ATOM      3  C   UNL     1       7.014   4.985  17.783  0.00  0.00    +0.000 A 
ATOM      4  C   UNL     1       6.429   4.667  16.571  0.00  0.00    +0.000 A 
ATOM      5  S   UNL     1       4.840   4.046  16.807  0.00  0.00    +0.000 S 
ENDROOT
BRANCH   1  10
ATOM      6  N   UNL     1       2.680   4.653  19.167  0.00  0.00    +0.000 NA
ATOM      7  C   UNL     1       1.578   3.903  18.581  0.00  0.00    +0.000 C 
ATOM      8  C   UNL     1       1.852   2.437  18.853  0.00  0.00    +0.000 C 
ATOM      9  C   UNL     1       3.350   2.338  19.059  0.00  0.00    +0.000 C 
ATOM     10  C   UNL     1       3.817   3.755  19.409  0.00  0.00    +0.000 C 
BRANCH   6  11
ATOM     11  C   UNL     1       2.338   5.504  20.303  0.00  0.00    +0.000 C 
BRANCH  11  16
ATOM     12  C   UNL     1       0.833  10.597  19.894  0.00  0.00    +0.000 C 
ATOM     13  C   UNL     1       1.349   9.221  19.653  0.00  0.00    +0.000 A 
ATOM     14  N   UNL     1       1.908   8.827  18.530  0.00  0.00    +0.000 NA
ATOM     15  C   UNL     1       2.292   7.505  18.646  0.00  0.00    +0.000 A 
ATOM     16  C   UNL     1       2.017   6.898  19.856  0.00  0.00    +0.000 A 
ATOM     17  S   UNL     1       1.244   8.028  20.888  0.00  0.00    +0.000 S 
ENDBRANCH  11  16
ENDBRANCH   6  11
ENDBRANCH   1  10
BRANCH   4  18
ATOM     18  C   UNL     1       6.961   4.779  15.219  0.00  0.00    +0.000 C 
ATOM     19  O   UNL     1       7.789   5.619  14.875  0.00  0.00    +0.000 OA
ATOM     20  N   UNL     1       6.470   3.855  14.318  0.00  0.00    +0.000 N 
ATOM     21  H   UNL     1       5.806   3.161  14.619  0.00  0.00    +0.000 HD
BRANCH  20  22
ATOM     22  C   UNL     1       6.898   3.809  12.944  0.00  0.00    +0.000 C 
BRANCH  22  23
ATOM     23  C   UNL     1       5.791   3.245  12.128  0.00  0.00    +0.000 A 
ATOM     24  C   UNL     1       4.534   3.852  11.832  0.00  0.00    +0.000 A 
ATOM     25  C   UNL     1       3.829   2.946  11.076  0.00  0.00    +0.000 A 
ATOM     26  O   UNL     1       4.566   1.824  10.877  0.00  0.00    +0.000 OA
ATOM     27  C   UNL     1       5.748   2.008  11.516  0.00  0.00    +0.000 A 
ENDBRANCH  22  23
ENDBRANCH  20  22
ENDBRANCH   4  18
TORSDOF 6
ENDMDL
MODEL 3
REMARK VINA RESULT:      -7.4      1.151      1.294
REMARK  Name = 
REMARK  7 active torsions:
REMARK  status: ('A' for Active; 'I' for Inactive)
REMARK    1  A    between atoms: C_1  and  C_2
REMARK    2  A    between atoms: C_5  and  C_6
REMARK    3  A    between atoms: C_6  and  N_7
REMARK    4  A    between atoms: C_11  and  C_12
REMARK    5  A    between atoms: C_15  and  C_16
REMARK    6  A    between atoms: N_18  and  C_19
REMARK    7  A    between atoms: C_19  and  C_20
REMARK                            x       y       z     vdW  Elec       q    Type
REMARK                         _______ _______ _______ _____ _____    ______ ____
ROOT
ATOM      1  C   UNL     1       4.982   4.410  18.224  0.00  0.00    +0.000 A 
ATOM      2  C   UNL     1       6.304   4.509  18.613  0.00  0.00    +0.000 A 
ATOM      3  C   UNL     1       7.182   4.726  17.522  0.00  0.00    +0.000 A 
ATOM      4  C   UNL     1       6.519   4.791  16.311  0.00  0.00    +0.000 A 
ATOM      5  S   UNL     1       4.822   4.593  16.533  0.00  0.00    +0.000 S 
ENDROOT
BRANCH   1  10
ATOM      6  N   UNL     1       2.731   5.094  18.723  0.00  0.00    +0.000 NA
ATOM      7  C   UNL     1       1.603   4.366  18.159  0.00  0.00    +0.000 C 
ATOM      8  C   UNL     1       1.755   2.920  18.588  0.00  0.00    +0.000 C 
ATOM      9  C   UNL     1       3.231   2.739  18.877  0.00  0.00    +0.000 C 
ATOM     10  C   UNL     1       3.787   4.149  19.108  0.00  0.00    +0.000 C 
BRANCH   6  11
ATOM     11  C   UNL     1       2.404   6.078  19.750  0.00  0.00    +0.000 C 
BRANCH  11  16
ATOM     12  C   UNL     1       1.104  11.146  18.752  0.00  0.00    +0.000 C 
ATOM     13  C   UNL     1       1.566   9.733  18.674  0.00  0.00    +0.000 A 
ATOM     14  N   UNL     1       2.112   9.191  17.607  0.00  0.00    +0.000 NA
ATOM     15  C   UNL     1       2.443   7.877  17.875  0.00  0.00    +0.000 A 
ATOM     16  C   UNL     1       2.140   7.424  19.145  0.00  0.00    +0.000 A 
ATOM     17  S   UNL     1       1.410   8.694  20.036  0.00  0.00    +0.000 S 
ENDBRANCH  11  16
ENDBRANCH   6  11
ENDBRANCH   1  10
BRANCH   4  18
ATOM     18  C   UNL     1       7.047   4.985  14.966  0.00  0.00    +0.000 C 
ATOM     19  O   UNL     1       7.908   5.814  14.679  0.00  0.00    +0.000 OA
ATOM     20  N   UNL     1       6.512   4.154  14.001  0.00  0.00    +0.000 N 
ATOM     21  H   UNL     1       5.821   3.467  14.254  0.00  0.00    +0.000 HD
BRANCH  20  22
ATOM     22  C   UNL     1       6.929   4.196  12.624  0.00  0.00    +0.000 C 
BRANCH  22  23
ATOM     23  C   UNL     1       6.440   2.966  11.949  0.00  0.00    +0.000 A 
ATOM     24  C   UNL     1       7.222   1.891  11.430  0.00  0.00    +0.000 A 
ATOM     25  C   UNL     1       6.340   0.997  10.872  0.00  0.00    +0.000 A 
ATOM     26  O   UNL     1       5.065   1.441  11.016  0.00  0.00    +0.000 OA
ATOM     27  C   UNL     1       5.132   2.630  11.664  0.00  0.00    +0.000 A 
ENDBRANCH  22  23
ENDBRANCH  20  22
ENDBRANCH   4  18
TORSDOF 6
ENDMDL
MODEL 4
REMARK VINA RESULT:      -7.2      4.121      8.300
REMARK  Name = 
REMARK  7 active torsions:
REMARK  status: ('A' for Active; 'I' for Inactive)
REMARK    1  A    between atoms: C_1  and  C_2
REMARK    2  A    between atoms: C_5  and  C_6
REMARK    3  A    between atoms: C_6  and  N_7
REMARK    4  A    between atoms: C_11  and  C_12
REMARK    5  A    between atoms: C_15  and  C_16
REMARK    6  A    between atoms: N_18  and  C_19
REMARK    7  A    between atoms: C_19  and  C_20
REMARK                            x       y       z     vdW  Elec       q    Type
REMARK                         _______ _______ _______ _____ _____    ______ ____
ROOT
ATOM      1  C   UNL     1       2.428   6.995  18.855  0.00  0.00    +0.000 A 
ATOM      2  C   UNL     1       2.079   7.233  20.171  0.00  0.00    +0.000 A 
ATOM      3  C   UNL     1       1.469   8.499  20.356  0.00  0.00    +0.000 A 
ATOM      4  C   UNL     1       1.360   9.214  19.178  0.00  0.00    +0.000 A 
ATOM      5  S   UNL     1       2.001   8.313  17.857  0.00  0.00    +0.000 S 
ENDROOT
BRANCH   1  10
ATOM      6  N   UNL     1       4.055   5.287  19.326  0.00  0.00    +0.000 NA
ATOM      7  C   UNL     1       3.626   3.977  19.796  0.00  0.00    +0.000 C 
ATOM      8  C   UNL     1       2.666   3.431  18.757  0.00  0.00    +0.000 C 
ATOM      9  C   UNL     1       2.120   4.646  18.035  0.00  0.00    +0.000 C 
ATOM     10  C   UNL     1       3.123   5.775  18.301  0.00  0.00    +0.000 C 
BRANCH   6  11
ATOM     11  C   UNL     1       5.462   5.401  18.958  0.00  0.00    +0.000 C 
BRANCH  11  16
ATOM     12  C   UNL     1       5.911   4.126  13.806  0.00  0.00    +0.000 C 
ATOM     13  C   UNL     1       5.829   4.827  15.117  0.00  0.00    +0.000 A 
ATOM     14  N   UNL     1       5.850   6.135  15.258  0.00  0.00    +0.000 NA
ATOM     15  C   UNL     1       5.736   6.454  16.597  0.00  0.00    +0.000 A 
ATOM     16  C   UNL     1       5.635   5.386  17.469  0.00  0.00    +0.000 A 
ATOM     17  S   UNL     1       5.688   3.925  16.574  0.00  0.00    +0.000 S 
ENDBRANCH  11  16
ENDBRANCH   6  11
ENDBRANCH   1  10
BRANCH   4  18
ATOM     18  C   UNL     1       0.813  10.543  18.940  0.00  0.00    +0.000 C 
ATOM     19  O   UNL     1       1.500  11.554  18.805  0.00  0.00    +0.000 OA
ATOM     20  N   UNL     1      -0.565  10.606  18.866  0.00  0.00    +0.000 N 
ATOM     21  H   UNL     1      -1.113   9.768  18.959  0.00  0.00    +0.000 HD
BRANCH  20  22
ATOM     22  C   UNL     1      -1.272  11.835  18.618  0.00  0.00    +0.000 C 
BRANCH  22  23
ATOM     23  C   UNL     1      -2.481  11.525  17.810  0.00  0.00    +0.000 A 
ATOM     24  C   UNL     1      -2.533  11.161  16.431  0.00  0.00    +0.000 A 
ATOM     25  C   UNL     1      -3.862  11.003  16.117  0.00  0.00    +0.000 A 
ATOM     26  O   UNL     1      -4.635  11.237  17.208  0.00  0.00    +0.000 OA
ATOM     27  C   UNL     1      -3.797  11.554  18.226  0.00  0.00    +0.000 A 
ENDBRANCH  22  23
ENDBRANCH  20  22
ENDBRANCH   4  18
TORSDOF 6
ENDMDL
MODEL 5
REMARK VINA RESULT:      -7.2      3.791      7.920
REMARK  Name = 
REMARK  7 active torsions:
REMARK  status: ('A' for Active; 'I' for Inactive)
REMARK    1  A    between atoms: C_1  and  C_2
REMARK    2  A    between atoms: C_5  and  C_6
REMARK    3  A    between atoms: C_6  and  N_7
REMARK    4  A    between atoms: C_11  and  C_12
REMARK    5  A    between atoms: C_15  and  C_16
REMARK    6  A    between atoms: N_18  and  C_19
REMARK    7  A    between atoms: C_19  and  C_20
REMARK                            x       y       z     vdW  Elec       q    Type
REMARK                         _______ _______ _______ _____ _____    ______ ____
ROOT
ATOM      1  C   UNL     1       4.189   6.106  18.087  0.00  0.00    +0.000 A 
ATOM      2  C   UNL     1       3.847   7.136  17.232  0.00  0.00    +0.000 A 
ATOM      3  C   UNL     1       2.870   8.003  17.782  0.00  0.00    +0.000 A 
ATOM      4  C   UNL     1       2.476   7.624  19.051  0.00  0.00    +0.000 A 
ATOM      5  S   UNL     1       3.322   6.210  19.555  0.00  0.00    +0.000 S 
ENDROOT
BRANCH   1  10
ATOM      6  N   UNL     1       4.597   4.140  16.762  0.00  0.00    +0.000 NA
ATOM      7  C   UNL     1       5.431   4.220  15.571  0.00  0.00    +0.000 C 
ATOM      8  C   UNL     1       6.773   4.770  16.011  0.00  0.00    +0.000 C 
ATOM      9  C   UNL     1       6.496   5.530  17.293  0.00  0.00    +0.000 C 
ATOM     10  C   UNL     1       5.164   4.985  17.821  0.00  0.00    +0.000 C 
BRANCH   6  11
ATOM     11  C   UNL     1       4.237   2.795  17.198  0.00  0.00    +0.000 C 
BRANCH  11  16
ATOM     12  C   UNL     1       1.318   2.691  21.653  0.00  0.00    +0.000 C 
ATOM     13  C   UNL     1       1.808   2.803  20.251  0.00  0.00    +0.000 A 
ATOM     14  N   UNL     1       1.059   3.166  19.232  0.00  0.00    +0.000 NA
ATOM     15  C   UNL     1       1.825   3.187  18.083  0.00  0.00    +0.000 A 
ATOM     16  C   UNL     1       3.153   2.834  18.232  0.00  0.00    +0.000 A 
ATOM     17  S   UNL     1       3.452   2.457  19.878  0.00  0.00    +0.000 S 
ENDBRANCH  11  16
ENDBRANCH   6  11
ENDBRANCH   1  10
BRANCH   4  18
ATOM     18  C   UNL     1       1.498   8.229  19.946  0.00  0.00    +0.000 C 
ATOM     19  O   UNL     1       1.213   7.782  21.055  0.00  0.00    +0.000 OA
ATOM     20  N   UNL     1       0.893   9.374  19.465  0.00  0.00    +0.000 N 
ATOM     21  H   UNL     1       1.150   9.739  18.563  0.00  0.00    +0.000 HD
BRANCH  20  22
ATOM     22  C   UNL     1      -0.084  10.111  20.222  0.00  0.00    +0.000 C 
BRANCH  22  23
ATOM     23  C   UNL     1      -1.083  10.673  19.276  0.00  0.00    +0.000 A 
ATOM     24  C   UNL     1      -1.360  10.238  17.946  0.00  0.00    +0.000 A 
ATOM     25  C   UNL     1      -2.333  11.075  17.453  0.00  0.00    +0.000 A 
ATOM     26  O   UNL     1      -2.681  11.994  18.388  0.00  0.00    +0.000 OA
ATOM     27  C   UNL     1      -1.923  11.749  19.485  0.00  0.00    +0.000 A 
ENDBRANCH  22  23
ENDBRANCH  20  22
ENDBRANCH   4  18
TORSDOF 6
ENDMDL
MODEL 6
REMARK VINA RESULT:      -7.2      3.962      7.867
REMARK  Name = 
REMARK  7 active torsions:
REMARK  status: ('A' for Active; 'I' for Inactive)
REMARK    1  A    between atoms: C_1  and  C_2
REMARK    2  A    between atoms: C_5  and  C_6
REMARK    3  A    between atoms: C_6  and  N_7
REMARK    4  A    between atoms: C_11  and  C_12
REMARK    5  A    between atoms: C_15  and  C_16
REMARK    6  A    between atoms: N_18  and  C_19
REMARK    7  A    between atoms: C_19  and  C_20
REMARK                            x       y       z     vdW  Elec       q    Type
REMARK                         _______ _______ _______ _____ _____    ______ ____
ROOT
ATOM      1  C   UNL     1       3.614   6.407  18.443  0.00  0.00    +0.000 A 
ATOM      2  C   UNL     1       3.615   7.369  17.451  0.00  0.00    +0.000 A 
ATOM      3  C   UNL     1       2.712   8.429  17.713  0.00  0.00    +0.000 A 
ATOM      4  C   UNL     1       2.031   8.265  18.904  0.00  0.00    +0.000 A 
ATOM      5  S   UNL     1       2.519   6.811  19.690  0.00  0.00    +0.000 S 
ENDROOT
BRANCH   1  10
ATOM      6  N   UNL     1       4.336   4.512  17.150  0.00  0.00    +0.000 NA
ATOM      7  C   UNL     1       5.653   4.510  16.526  0.00  0.00    +0.000 C 
ATOM      8  C   UNL     1       6.663   4.729  17.635  0.00  0.00    +0.000 C 
ATOM      9  C   UNL     1       5.901   5.425  18.744  0.00  0.00    +0.000 C 
ATOM     10  C   UNL     1       4.420   5.131  18.479  0.00  0.00    +0.000 C 
BRANCH   6  11
ATOM     11  C   UNL     1       3.618   3.242  17.125  0.00  0.00    +0.000 C 
BRANCH  11  16
ATOM     12  C   UNL     1       1.406   2.510  21.915  0.00  0.00    +0.000 C 
ATOM     13  C   UNL     1       1.677   2.800  20.480  0.00  0.00    +0.000 A 
ATOM     14  N   UNL     1       0.774   3.241  19.631  0.00  0.00    +0.000 NA
ATOM     15  C   UNL     1       1.357   3.425  18.393  0.00  0.00    +0.000 A 
ATOM     16  C   UNL     1       2.701   3.116  18.304  0.00  0.00    +0.000 A 
ATOM     17  S   UNL     1       3.254   2.571  19.833  0.00  0.00    +0.000 S 
ENDBRANCH  11  16
ENDBRANCH   6  11
ENDBRANCH   1  10
BRANCH   4  18
ATOM     18  C   UNL     1       1.018   9.109  19.525  0.00  0.00    +0.000 C 
ATOM     19  O   UNL     1       0.852   9.201  20.740  0.00  0.00    +0.000 OA
ATOM     20  N   UNL     1       0.234   9.828  18.645  0.00  0.00    +0.000 N 
ATOM     21  H   UNL     1       0.394   9.757  17.654  0.00  0.00    +0.000 HD
BRANCH  20  22
ATOM     22  C   UNL     1      -0.803  10.725  19.085  0.00  0.00    +0.000 C 
BRANCH  22  23
ATOM     23  C   UNL     1      -1.898  10.702  18.080  0.00  0.00    +0.000 A 
ATOM     24  C   UNL     1      -3.081  11.500  18.067  0.00  0.00    +0.000 A 
ATOM     25  C   UNL     1      -3.808  11.107  16.969  0.00  0.00    +0.000 A 
ATOM     26  O   UNL     1      -3.153  10.126  16.297  0.00  0.00    +0.000 OA
ATOM     27  C   UNL     1      -2.003   9.883  16.974  0.00  0.00    +0.000 A 
ENDBRANCH  22  23
ENDBRANCH  20  22
ENDBRANCH   4  18
TORSDOF 6
ENDMDL
MODEL 7
REMARK VINA RESULT:      -7.1      3.948      8.383
REMARK  Name = 
REMARK  7 active torsions:
REMARK  status: ('A' for Active; 'I' for Inactive)
REMARK    1  A    between atoms: C_1  and  C_2
REMARK    2  A    between atoms: C_5  and  C_6
REMARK    3  A    between atoms: C_6  and  N_7
REMARK    4  A    between atoms: C_11  and  C_12
REMARK    5  A    between atoms: C_15  and  C_16
REMARK    6  A    between atoms: N_18  and  C_19
REMARK    7  A    between atoms: C_19  and  C_20
REMARK                            x       y       z     vdW  Elec       q    Type
REMARK                         _______ _______ _______ _____ _____    ______ ____
ROOT
ATOM      1  C   UNL     1       2.345   5.582  18.613  0.00  0.00    +0.000 A 
ATOM      2  C   UNL     1       2.636   6.692  17.844  0.00  0.00    +0.000 A 
ATOM      3  C   UNL     1       2.342   7.910  18.506  0.00  0.00    +0.000 A 
ATOM      4  C   UNL     1       1.829   7.716  19.775  0.00  0.00    +0.000 A 
ATOM      5  S   UNL     1       1.725   6.035  20.139  0.00  0.00    +0.000 S 
ENDROOT
BRANCH   1  10
ATOM      6  N   UNL     1       3.765   3.648  18.784  0.00  0.00    +0.000 NA
ATOM      7  C   UNL     1       3.497   2.629  19.789  0.00  0.00    +0.000 C 
ATOM      8  C   UNL     1       2.079   2.146  19.556  0.00  0.00    +0.000 C 
ATOM      9  C   UNL     1       1.381   3.278  18.829  0.00  0.00    +0.000 C 
ATOM     10  C   UNL     1       2.498   4.133  18.220  0.00  0.00    +0.000 C 
BRANCH   6  11
ATOM     11  C   UNL     1       4.773   3.307  17.785  0.00  0.00    +0.000 C 
BRANCH  11  16
ATOM     12  C   UNL     1       7.801   7.689  17.739  0.00  0.00    +0.000 C 
ATOM     13  C   UNL     1       6.993   6.490  17.384  0.00  0.00    +0.000 A 
ATOM     14  N   UNL     1       6.841   6.037  16.158  0.00  0.00    +0.000 NA
ATOM     15  C   UNL     1       6.053   4.903  16.182  0.00  0.00    +0.000 A 
ATOM     16  C   UNL     1       5.604   4.502  17.426  0.00  0.00    +0.000 A 
ATOM     17  S   UNL     1       6.190   5.592  18.612  0.00  0.00    +0.000 S 
ENDBRANCH  11  16
ENDBRANCH   6  11
ENDBRANCH   1  10
BRANCH   4  18
ATOM     18  C   UNL     1       1.392   8.691  20.765  0.00  0.00    +0.000 C 
ATOM     19  O   UNL     1       1.342   8.469  21.973  0.00  0.00    +0.000 OA
ATOM     20  N   UNL     1       1.029   9.922  20.255  0.00  0.00    +0.000 N 
ATOM     21  H   UNL     1       1.092  10.097  19.266  0.00  0.00    +0.000 HD
BRANCH  20  22
ATOM     22  C   UNL     1       0.589  11.009  21.091  0.00  0.00    +0.000 C 
BRANCH  22  23
ATOM     23  C   UNL     1      -0.704  11.514  20.559  0.00  0.00    +0.000 A 
ATOM     24  C   UNL     1      -1.677  12.299  21.246  0.00  0.00    +0.000 A 
ATOM     25  C   UNL     1      -2.715  12.496  20.366  0.00  0.00    +0.000 A 
ATOM     26  O   UNL     1      -2.448  11.892  19.180  0.00  0.00    +0.000 OA
ATOM     27  C   UNL     1      -1.235  11.298  19.303  0.00  0.00    +0.000 A 
ENDBRANCH  22  23
ENDBRANCH  20  22
ENDBRANCH   4  18
TORSDOF 6
ENDMDL
MODEL 8
REMARK VINA RESULT:      -7.1      4.151      8.078
REMARK  Name = 
REMARK  7 active torsions:
REMARK  status: ('A' for Active; 'I' for Inactive)
REMARK    1  A    between atoms: C_1  and  C_2
REMARK    2  A    between atoms: C_5  and  C_6
REMARK    3  A    between atoms: C_6  and  N_7
REMARK    4  A    between atoms: C_11  and  C_12
REMARK    5  A    between atoms: C_15  and  C_16
REMARK    6  A    between atoms: N_18  and  C_19
REMARK    7  A    between atoms: C_19  and  C_20
REMARK                            x       y       z     vdW  Elec       q    Type
REMARK                         _______ _______ _______ _____ _____    ______ ____
ROOT
ATOM      1  C   UNL     1       2.139   5.597  19.249  0.00  0.00    +0.000 A 
ATOM      2  C   UNL     1       2.523   6.485  18.262  0.00  0.00    +0.000 A 
ATOM      3  C   UNL     1       2.293   7.837  18.622  0.00  0.00    +0.000 A 
ATOM      4  C   UNL     1       1.738   7.965  19.881  0.00  0.00    +0.000 A 
ATOM      5  S   UNL     1       1.513   6.419  20.609  0.00  0.00    +0.000 S 
ENDROOT
BRANCH   1  10
ATOM      6  N   UNL     1       3.366   3.666  19.992  0.00  0.00    +0.000 NA
ATOM      7  C   UNL     1       2.914   2.916  21.156  0.00  0.00    +0.000 C 
ATOM      8  C   UNL     1       1.490   2.481  20.872  0.00  0.00    +0.000 C 
ATOM      9  C   UNL     1       0.966   3.463  19.844  0.00  0.00    +0.000 C 
ATOM     10  C   UNL     1       2.206   4.090  19.197  0.00  0.00    +0.000 C 
BRANCH   6  11
ATOM     11  C   UNL     1       4.433   3.049  19.212  0.00  0.00    +0.000 C 
BRANCH  11  16
ATOM     12  C   UNL     1       7.479   7.049  17.450  0.00  0.00    +0.000 C 
ATOM     13  C   UNL     1       6.564   5.881  17.581  0.00  0.00    +0.000 A 
ATOM     14  N   UNL     1       6.063   5.216  16.562  0.00  0.00    +0.000 NA
ATOM     15  C   UNL     1       5.274   4.184  17.030  0.00  0.00    +0.000 A 
ATOM     16  C   UNL     1       5.173   4.073  18.404  0.00  0.00    +0.000 A 
ATOM     17  S   UNL     1       6.102   5.313  19.137  0.00  0.00    +0.000 S 
ENDBRANCH  11  16
ENDBRANCH   6  11
ENDBRANCH   1  10
BRANCH   4  18
ATOM     18  C   UNL     1       1.342   9.163  20.610  0.00  0.00    +0.000 C 
ATOM     19  O   UNL     1       1.447   9.292  21.828  0.00  0.00    +0.000 OA
ATOM     20  N   UNL     1       0.829  10.181  19.830  0.00  0.00    +0.000 N 
ATOM     21  H   UNL     1       0.767  10.068  18.832  0.00  0.00    +0.000 HD
BRANCH  20  22
ATOM     22  C   UNL     1       0.405  11.442  20.381  0.00  0.00    +0.000 C 
BRANCH  22  23
ATOM     23  C   UNL     1       1.037  12.533  19.594  0.00  0.00    +0.000 A 
ATOM     24  C   UNL     1       2.063  12.411  18.611  0.00  0.00    +0.000 A 
ATOM     25  C   UNL     1       2.348  13.686  18.181  0.00  0.00    +0.000 A 
ATOM     26  O   UNL     1       1.565  14.587  18.826  0.00  0.00    +0.000 OA
ATOM     27  C   UNL     1       0.777  13.886  19.680  0.00  0.00    +0.000 A 
ENDBRANCH  22  23
ENDBRANCH  20  22
ENDBRANCH   4  18
TORSDOF 6
ENDMDL
MODEL 9
REMARK VINA RESULT:      -7.1      4.096      7.796
REMARK  Name = 
REMARK  7 active torsions:
REMARK  status: ('A' for Active; 'I' for Inactive)
REMARK    1  A    between atoms: C_1  and  C_2
REMARK    2  A    between atoms: C_5  and  C_6
REMARK    3  A    between atoms: C_6  and  N_7
REMARK    4  A    between atoms: C_11  and  C_12
REMARK    5  A    between atoms: C_15  and  C_16
REMARK    6  A    between atoms: N_18  and  C_19
REMARK    7  A    between atoms: C_19  and  C_20
REMARK                            x       y       z     vdW  Elec       q    Type
REMARK                         _______ _______ _______ _____ _____    ______ ____
ROOT
ATOM      1  C   UNL     1       2.304   5.000  18.942  0.00  0.00    +0.000 A 
ATOM      2  C   UNL     1       1.858   4.840  20.240  0.00  0.00    +0.000 A 
ATOM      3  C   UNL     1       1.526   6.069  20.861  0.00  0.00    +0.000 A 
ATOM      4  C   UNL     1       1.721   7.155  20.029  0.00  0.00    +0.000 A 
ATOM      5  S   UNL     1       2.303   6.646  18.489  0.00  0.00    +0.000 S 
ENDROOT
BRANCH   1  10
ATOM      6  N   UNL     1       4.214   3.734  18.212  0.00  0.00    +0.000 NA
ATOM      7  C   UNL     1       4.463   2.405  18.754  0.00  0.00    +0.000 C 
ATOM      8  C   UNL     1       3.223   1.578  18.474  0.00  0.00    +0.000 C 
ATOM      9  C   UNL     1       2.098   2.581  18.316  0.00  0.00    +0.000 C 
ATOM     10  C   UNL     1       2.773   3.919  17.998  0.00  0.00    +0.000 C 
BRANCH   6  11
ATOM     11  C   UNL     1       5.043   4.123  17.076  0.00  0.00    +0.000 C 
BRANCH  11  16
ATOM     12  C   UNL     1       7.962   8.518  17.810  0.00  0.00    +0.000 C 
ATOM     13  C   UNL     1       7.398   7.140  17.833  0.00  0.00    +0.000 A 
ATOM     14  N   UNL     1       7.869   6.160  18.572  0.00  0.00    +0.000 NA
ATOM     15  C   UNL     1       7.107   5.025  18.372  0.00  0.00    +0.000 A 
ATOM     16  C   UNL     1       6.062   5.147  17.476  0.00  0.00    +0.000 A 
ATOM     17  S   UNL     1       6.037   6.746  16.857  0.00  0.00    +0.000 S 
ENDBRANCH  11  16
ENDBRANCH   6  11
ENDBRANCH   1  10
BRANCH   4  18
ATOM     18  C   UNL     1       1.515   8.575  20.282  0.00  0.00    +0.000 C 
ATOM     19  O   UNL     1       1.537   9.084  21.401  0.00  0.00    +0.000 OA
ATOM     20  N   UNL     1       1.291   9.345  19.157  0.00  0.00    +0.000 N 
ATOM     21  H   UNL     1       1.295   8.919  18.246  0.00  0.00    +0.000 HD
BRANCH  20  22
ATOM     22  C   UNL     1       1.086  10.769  19.220  0.00  0.00    +0.000 C 
BRANCH  22  23
ATOM     23  C   UNL     1      -0.353  11.045  18.971  0.00  0.00    +0.000 A 
ATOM     24  C   UNL     1      -1.172  12.026  19.606  0.00  0.00    +0.000 A 
ATOM     25  C   UNL     1      -2.433  11.888  19.075  0.00  0.00    +0.000 A 
ATOM     26  O   UNL     1      -2.449  10.895  18.150  0.00  0.00    +0.000 OA
ATOM     27  C   UNL     1      -1.192  10.388  18.093  0.00  0.00    +0.000 A 
ENDBRANCH  22  23
ENDBRANCH  20  22
ENDBRANCH   4  18
TORSDOF 6
ENDMDL
