MODEL 1
REMARK VINA RESULT:      -8.2      0.000      0.000
REMARK  Name = 
REMARK  6 active torsions:
REMARK  status: ('A' for Active; 'I' for Inactive)
REMARK    1  A    between atoms: C_1  and  C_2
REMARK    2  A    between atoms: C_2  and  C_3
REMARK    3  A    between atoms: C_2  and  C_4
REMARK    4  A    between atoms: C_7  and  C_8
REMARK    5  A    between atoms: C_8  and  N_9
REMARK    6  A    between atoms: C_10  and  O_11
REMARK                            x       y       z     vdW  Elec       q    Type
REMARK                         _______ _______ _______ _____ _____    ______ ____
ROOT
ATOM      1  N   UNL     1       4.264   3.937  18.044  0.00  0.00    +0.000 N 
ATOM      2  C   UNL     1       5.138   3.730  19.078  0.00  0.00    +0.000 A 
ATOM      3  N   UNL     1       6.255   4.377  18.902  0.00  0.00    +0.000 NA
ATOM      4  C   UNL     1       6.251   4.658  17.562  0.00  0.00    +0.000 A 
ATOM      5  C   UNL     1       7.311   5.134  16.781  0.00  0.00    +0.000 A 
ATOM      6  C   UNL     1       7.257   4.892  15.409  0.00  0.00    +0.000 A 
ATOM      7  C   UNL     1       6.128   4.295  14.839  0.00  0.00    +0.000 A 
ATOM      8 CL   UNL     1       6.228   3.738  13.209  0.00  0.00    +0.000 Cl
ATOM      9  C   UNL     1       4.961   4.031  15.580  0.00  0.00    +0.000 A 
ATOM     10  C   UNL     1       5.063   4.213  16.964  0.00  0.00    +0.000 A 
ENDROOT
BRANCH   2  11
ATOM     11  O   UNL     1       5.053   2.637  19.816  0.00  0.00    +0.000 OA
ATOM     12  H   UNL     1       5.201   3.000  20.711  0.00  0.00    +0.000 HD
ENDBRANCH   2  11
BRANCH   1  13
ATOM     13  C   UNL     1       2.825   4.062  18.270  0.00  0.00    +0.000 C 
BRANCH  13  17
ATOM     14  C   UNL     1       1.623   7.758  20.211  0.00  0.00    +0.000 A 
ATOM     15  C   UNL     1       1.480   6.523  20.857  0.00  0.00    +0.000 A 
ATOM     16  C   UNL     1       1.835   5.318  20.245  0.00  0.00    +0.000 A 
ATOM     17  C   UNL     1       2.347   5.321  18.948  0.00  0.00    +0.000 A 
ATOM     18  C   UNL     1       2.578   6.562  18.326  0.00  0.00    +0.000 A 
ATOM     19  C   UNL     1       2.211   7.769  18.942  0.00  0.00    +0.000 A 
BRANCH  14  21
ATOM     20  C   UNL     1       0.785  10.200  19.987  0.00  0.00    +0.000 C 
ATOM     21  C   UNL     1       1.118   9.017  20.904  0.00  0.00    +0.000 C 
ATOM     22  C   UNL     1      -0.105   8.669  21.754  0.00  0.00    +0.000 C 
ENDBRANCH  14  21
ENDBRANCH  13  17
ENDBRANCH   1  13
TORSDOF 4
ENDMDL
MODEL 2
REMARK VINA RESULT:      -7.9      0.186      1.064
REMARK  Name = 
REMARK  6 active torsions:
REMARK  status: ('A' for Active; 'I' for Inactive)
REMARK    1  A    between atoms: C_1  and  C_2
REMARK    2  A    between atoms: C_2  and  C_3
REMARK    3  A    between atoms: C_2  and  C_4
REMARK    4  A    between atoms: C_7  and  C_8
REMARK    5  A    between atoms: C_8  and  N_9
REMARK    6  A    between atoms: C_10  and  O_11
REMARK                            x       y       z     vdW  Elec       q    Type
REMARK                         _______ _______ _______ _____ _____    ______ ____
ROOT
ATOM      1  N   UNL     1       4.283   4.064  18.048  0.00  0.00    +0.000 N 
ATOM      2  C   UNL     1       5.178   3.826  19.057  0.00  0.00    +0.000 A 
ATOM      3  N   UNL     1       6.320   4.413  18.835  0.00  0.00    +0.000 NA
ATOM      4  C   UNL     1       6.287   4.676  17.493  0.00  0.00    +0.000 A 
ATOM      5  C   UNL     1       7.343   5.087  16.671  0.00  0.00    +0.000 A 
ATOM      6  C   UNL     1       7.233   4.830  15.305  0.00  0.00    +0.000 A 
ATOM      7  C   UNL     1       6.057   4.284  14.781  0.00  0.00    +0.000 A 
ATOM      8 CL   UNL     1       6.075   3.701  13.157  0.00  0.00    +0.000 Cl
ATOM      9  C   UNL     1       4.902   4.090  15.562  0.00  0.00    +0.000 A 
ATOM     10  C   UNL     1       5.059   4.285  16.939  0.00  0.00    +0.000 A 
ENDROOT
BRANCH   2  11
ATOM     11  O   UNL     1       5.063   2.749  19.813  0.00  0.00    +0.000 OA
ATOM     12  H   UNL     1       4.856   3.148  20.681  0.00  0.00    +0.000 HD
ENDBRANCH   2  11
BRANCH   1  13
ATOM     13  C   UNL     1       2.860   4.265  18.318  0.00  0.00    +0.000 C 
BRANCH  13  17
ATOM     14  C   UNL     1       1.564   7.879  20.351  0.00  0.00    +0.000 A 
ATOM     15  C   UNL     1       2.112   7.932  19.063  0.00  0.00    +0.000 A 
ATOM     16  C   UNL     1       2.559   6.788  18.397  0.00  0.00    +0.000 A 
ATOM     17  C   UNL     1       2.471   5.543  19.019  0.00  0.00    +0.000 A 
ATOM     18  C   UNL     1       1.841   5.468  20.275  0.00  0.00    +0.000 A 
ATOM     19  C   UNL     1       1.401   6.622  20.942  0.00  0.00    +0.000 A 
BRANCH  14  21
ATOM     20  C   UNL     1       0.789  10.342  20.133  0.00  0.00    +0.000 C 
ATOM     21  C   UNL     1       1.194   9.182  21.050  0.00  0.00    +0.000 C 
ATOM     22  C   UNL     1       0.078   8.913  22.060  0.00  0.00    +0.000 C 
ENDBRANCH  14  21
ENDBRANCH  13  17
ENDBRANCH   1  13
TORSDOF 4
ENDMDL
MODEL 3
REMARK VINA RESULT:      -7.8      2.777      7.085
REMARK  Name = 
REMARK  6 active torsions:
REMARK  status: ('A' for Active; 'I' for Inactive)
REMARK    1  A    between atoms: C_1  and  C_2
REMARK    2  A    between atoms: C_2  and  C_3
REMARK    3  A    between atoms: C_2  and  C_4
REMARK    4  A    between atoms: C_7  and  C_8
REMARK    5  A    between atoms: C_8  and  N_9
REMARK    6  A    between atoms: C_10  and  O_11
REMARK                            x       y       z     vdW  Elec       q    Type
REMARK                         _______ _______ _______ _____ _____    ______ ____
ROOT
ATOM      1  N   UNL     1       6.223   5.649  17.747  0.00  0.00    +0.000 N 
ATOM      2  C   UNL     1       6.483   4.917  18.875  0.00  0.00    +0.000 A 
ATOM      3  N   UNL     1       5.410   4.328  19.325  0.00  0.00    +0.000 NA
ATOM      4  C   UNL     1       4.393   5.021  18.726  0.00  0.00    +0.000 A 
ATOM      5  C   UNL     1       3.027   4.970  19.025  0.00  0.00    +0.000 A 
ATOM      6  C   UNL     1       2.248   6.069  18.662  0.00  0.00    +0.000 A 
ATOM      7  C   UNL     1       2.806   7.121  17.929  0.00  0.00    +0.000 A 
ATOM      8 CL   UNL     1       1.902   8.582  17.771  0.00  0.00    +0.000 Cl
ATOM      9  C   UNL     1       4.117   7.071  17.418  0.00  0.00    +0.000 A 
ATOM     10  C   UNL     1       4.901   5.996  17.855  0.00  0.00    +0.000 A 
ENDROOT
BRANCH   2  11
ATOM     11  O   UNL     1       7.508   5.223  19.650  0.00  0.00    +0.000 OA
ATOM     12  H   UNL     1       8.028   4.396  19.612  0.00  0.00    +0.000 HD
ENDBRANCH   2  11
BRANCH   1  13
ATOM     13  C   UNL     1       7.180   5.724  16.645  0.00  0.00    +0.000 C 
BRANCH  13  17
ATOM     14  C   UNL     1       6.034   3.696  12.978  0.00  0.00    +0.000 A 
ATOM     15  C   UNL     1       7.149   4.545  13.016  0.00  0.00    +0.000 A 
ATOM     16  C   UNL     1       7.524   5.228  14.176  0.00  0.00    +0.000 A 
ATOM     17  C   UNL     1       6.776   5.078  15.343  0.00  0.00    +0.000 A 
ATOM     18  C   UNL     1       5.710   4.159  15.339  0.00  0.00    +0.000 A 
ATOM     19  C   UNL     1       5.333   3.482  14.168  0.00  0.00    +0.000 A 
BRANCH  14  21
ATOM     20  C   UNL     1       5.956   1.577  11.488  0.00  0.00    +0.000 C 
ATOM     21  C   UNL     1       5.631   3.067  11.650  0.00  0.00    +0.000 C 
ATOM     22  C   UNL     1       4.137   3.293  11.418  0.00  0.00    +0.000 C 
ENDBRANCH  14  21
ENDBRANCH  13  17
ENDBRANCH   1  13
TORSDOF 4
ENDMDL
MODEL 4
REMARK VINA RESULT:      -7.8      2.778      7.044
REMARK  Name = 
REMARK  6 active torsions:
REMARK  status: ('A' for Active; 'I' for Inactive)
REMARK    1  A    between atoms: C_1  and  C_2
REMARK    2  A    between atoms: C_2  and  C_3
REMARK    3  A    between atoms: C_2  and  C_4
REMARK    4  A    between atoms: C_7  and  C_8
REMARK    5  A    between atoms: C_8  and  N_9
REMARK    6  A    between atoms: C_10  and  O_11
REMARK                            x       y       z     vdW  Elec       q    Type
REMARK                         _______ _______ _______ _____ _____    ______ ____
ROOT
ATOM      1  N   UNL     1       6.233   5.640  17.680  0.00  0.00    +0.000 N 
ATOM      2  C   UNL     1       6.521   4.900  18.796  0.00  0.00    +0.000 A 
ATOM      3  N   UNL     1       5.458   4.317  19.274  0.00  0.00    +0.000 NA
ATOM      4  C   UNL     1       4.429   5.020  18.709  0.00  0.00    +0.000 A 
ATOM      5  C   UNL     1       3.072   4.977  19.048  0.00  0.00    +0.000 A 
ATOM      6  C   UNL     1       2.290   6.083  18.714  0.00  0.00    +0.000 A 
ATOM      7  C   UNL     1       2.834   7.135  17.970  0.00  0.00    +0.000 A 
ATOM      8 CL   UNL     1       1.936   8.603  17.846  0.00  0.00    +0.000 Cl
ATOM      9  C   UNL     1       4.129   7.078  17.421  0.00  0.00    +0.000 A 
ATOM     10  C   UNL     1       4.918   5.996  17.829  0.00  0.00    +0.000 A 
ENDROOT
BRANCH   2  11
ATOM     11  O   UNL     1       7.571   5.195  19.541  0.00  0.00    +0.000 OA
ATOM     12  H   UNL     1       7.534   6.171  19.544  0.00  0.00    +0.000 HD
ENDBRANCH   2  11
BRANCH   1  13
ATOM     13  C   UNL     1       7.159   5.714  16.551  0.00  0.00    +0.000 C 
BRANCH  13  17
ATOM     14  C   UNL     1       6.007   3.804  12.822  0.00  0.00    +0.000 A 
ATOM     15  C   UNL     1       5.170   3.761  13.945  0.00  0.00    +0.000 A 
ATOM     16  C   UNL     1       5.527   4.346  15.163  0.00  0.00    +0.000 A 
ATOM     17  C   UNL     1       6.755   4.994  15.288  0.00  0.00    +0.000 A 
ATOM     18  C   UNL     1       7.563   5.119  14.142  0.00  0.00    +0.000 A 
ATOM     19  C   UNL     1       7.202   4.523  12.924  0.00  0.00    +0.000 A 
BRANCH  14  21
ATOM     20  C   UNL     1       5.938   1.562  11.524  0.00  0.00    +0.000 C 
ATOM     21  C   UNL     1       5.591   3.055  11.562  0.00  0.00    +0.000 C 
ATOM     22  C   UNL     1       4.090   3.238  11.339  0.00  0.00    +0.000 C 
ENDBRANCH  14  21
ENDBRANCH  13  17
ENDBRANCH   1  13
TORSDOF 4
ENDMDL
MODEL 5
REMARK VINA RESULT:      -7.6      2.922      4.288
REMARK  Name = 
REMARK  6 active torsions:
REMARK  status: ('A' for Active; 'I' for Inactive)
REMARK    1  A    between atoms: C_1  and  C_2
REMARK    2  A    between atoms: C_2  and  C_3
REMARK    3  A    between atoms: C_2  and  C_4
REMARK    4  A    between atoms: C_7  and  C_8
REMARK    5  A    between atoms: C_8  and  N_9
REMARK    6  A    between atoms: C_10  and  O_11
REMARK                            x       y       z     vdW  Elec       q    Type
REMARK                         _______ _______ _______ _____ _____    ______ ____
ROOT
ATOM      1  N   UNL     1       5.945   5.308  15.539  0.00  0.00    +0.000 N 
ATOM      2  C   UNL     1       7.241   5.448  15.959  0.00  0.00    +0.000 A 
ATOM      3  N   UNL     1       8.060   5.591  14.956  0.00  0.00    +0.000 NA
ATOM      4  C   UNL     1       7.340   5.127  13.889  0.00  0.00    +0.000 A 
ATOM      5  C   UNL     1       7.804   4.832  12.602  0.00  0.00    +0.000 A 
ATOM      6  C   UNL     1       7.056   3.938  11.837  0.00  0.00    +0.000 A 
ATOM      7  C   UNL     1       5.833   3.451  12.312  0.00  0.00    +0.000 A 
ATOM      8 CL   UNL     1       5.100   2.127  11.485  0.00  0.00    +0.000 Cl
ATOM      9  C   UNL     1       5.244   3.926  13.499  0.00  0.00    +0.000 A 
ATOM     10  C   UNL     1       6.044   4.765  14.284  0.00  0.00    +0.000 A 
ENDROOT
BRANCH   2  11
ATOM     11  O   UNL     1       7.621   4.963  17.128  0.00  0.00    +0.000 OA
ATOM     12  H   UNL     1       7.570   5.761  17.690  0.00  0.00    +0.000 HD
ENDBRANCH   2  11
BRANCH   1  13
ATOM     13  C   UNL     1       4.832   5.904  16.277  0.00  0.00    +0.000 C 
BRANCH  13  17
ATOM     14  C   UNL     1       2.542   3.351  18.945  0.00  0.00    +0.000 A 
ATOM     15  C   UNL     1       3.592   2.834  18.173  0.00  0.00    +0.000 A 
ATOM     16  C   UNL     1       4.328   3.628  17.290  0.00  0.00    +0.000 A 
ATOM     17  C   UNL     1       4.021   4.981  17.151  0.00  0.00    +0.000 A 
ATOM     18  C   UNL     1       3.029   5.528  17.986  0.00  0.00    +0.000 A 
ATOM     19  C   UNL     1       2.288   4.724  18.866  0.00  0.00    +0.000 A 
BRANCH  14  21
ATOM     20  C   UNL     1       1.370   2.906  21.212  0.00  0.00    +0.000 C 
ATOM     21  C   UNL     1       1.723   2.400  19.808  0.00  0.00    +0.000 C 
ATOM     22  C   UNL     1       0.442   2.021  19.064  0.00  0.00    +0.000 C 
ENDBRANCH  14  21
ENDBRANCH  13  17
ENDBRANCH   1  13
TORSDOF 4
ENDMDL
MODEL 6
REMARK VINA RESULT:      -7.6      2.975      7.020
REMARK  Name = 
REMARK  6 active torsions:
REMARK  status: ('A' for Active; 'I' for Inactive)
REMARK    1  A    between atoms: C_1  and  C_2
REMARK    2  A    between atoms: C_2  and  C_3
REMARK    3  A    between atoms: C_2  and  C_4
REMARK    4  A    between atoms: C_7  and  C_8
REMARK    5  A    between atoms: C_8  and  N_9
REMARK    6  A    between atoms: C_10  and  O_11
REMARK                            x       y       z     vdW  Elec       q    Type
REMARK                         _______ _______ _______ _____ _____    ______ ____
ROOT
ATOM      1  N   UNL     1       3.752   6.150  18.389  0.00  0.00    +0.000 N 
ATOM      2  C   UNL     1       3.099   7.322  18.665  0.00  0.00    +0.000 A 
ATOM      3  N   UNL     1       2.348   7.216  19.725  0.00  0.00    +0.000 NA
ATOM      4  C   UNL     1       2.202   5.864  19.877  0.00  0.00    +0.000 A 
ATOM      5  C   UNL     1       1.309   5.184  20.715  0.00  0.00    +0.000 A 
ATOM      6  C   UNL     1       0.980   3.872  20.375  0.00  0.00    +0.000 A 
ATOM      7  C   UNL     1       1.614   3.240  19.301  0.00  0.00    +0.000 A 
ATOM      8 CL   UNL     1       0.965   1.747  18.729  0.00  0.00    +0.000 Cl
ATOM      9  C   UNL     1       2.683   3.831  18.602  0.00  0.00    +0.000 A 
ATOM     10  C   UNL     1       2.946   5.171  18.911  0.00  0.00    +0.000 A 
ENDROOT
BRANCH   2  11
ATOM     11  O   UNL     1       2.860   8.196  17.704  0.00  0.00    +0.000 OA
ATOM     12  H   UNL     1       1.897   8.085  17.581  0.00  0.00    +0.000 HD
ENDBRANCH   2  11
BRANCH   1  13
ATOM     13  C   UNL     1       5.123   6.138  17.881  0.00  0.00    +0.000 C 
BRANCH  13  17
ATOM     14  C   UNL     1       5.968   4.144  14.114  0.00  0.00    +0.000 A 
ATOM     15  C   UNL     1       5.554   5.483  14.147  0.00  0.00    +0.000 A 
ATOM     16  C   UNL     1       5.251   6.140  15.342  0.00  0.00    +0.000 A 
ATOM     17  C   UNL     1       5.355   5.458  16.554  0.00  0.00    +0.000 A 
ATOM     18  C   UNL     1       5.856   4.143  16.540  0.00  0.00    +0.000 A 
ATOM     19  C   UNL     1       6.150   3.486  15.335  0.00  0.00    +0.000 A 
BRANCH  14  21
ATOM     20  C   UNL     1       4.921   3.258  11.916  0.00  0.00    +0.000 C 
ATOM     21  C   UNL     1       6.181   3.469  12.765  0.00  0.00    +0.000 C 
ATOM     22  C   UNL     1       7.213   4.261  11.961  0.00  0.00    +0.000 C 
ENDBRANCH  14  21
ENDBRANCH  13  17
ENDBRANCH   1  13
TORSDOF 4
ENDMDL
MODEL 7
REMARK VINA RESULT:      -7.6      2.963      6.933
REMARK  Name = 
REMARK  6 active torsions:
REMARK  status: ('A' for Active; 'I' for Inactive)
REMARK    1  A    between atoms: C_1  and  C_2
REMARK    2  A    between atoms: C_2  and  C_3
REMARK    3  A    between atoms: C_2  and  C_4
REMARK    4  A    between atoms: C_7  and  C_8
REMARK    5  A    between atoms: C_8  and  N_9
REMARK    6  A    between atoms: C_10  and  O_11
REMARK                            x       y       z     vdW  Elec       q    Type
REMARK                         _______ _______ _______ _____ _____    ______ ____
ROOT
ATOM      1  N   UNL     1       3.818   6.153  18.405  0.00  0.00    +0.000 N 
ATOM      2  C   UNL     1       3.124   7.316  18.612  0.00  0.00    +0.000 A 
ATOM      3  N   UNL     1       2.337   7.228  19.647  0.00  0.00    +0.000 NA
ATOM      4  C   UNL     1       2.221   5.879  19.845  0.00  0.00    +0.000 A 
ATOM      5  C   UNL     1       1.315   5.207  20.674  0.00  0.00    +0.000 A 
ATOM      6  C   UNL     1       1.034   3.874  20.372  0.00  0.00    +0.000 A 
ATOM      7  C   UNL     1       1.725   3.220  19.347  0.00  0.00    +0.000 A 
ATOM      8 CL   UNL     1       1.138   1.690  18.808  0.00  0.00    +0.000 Cl
ATOM      9  C   UNL     1       2.804   3.815  18.667  0.00  0.00    +0.000 A 
ATOM     10  C   UNL     1       3.019   5.172  18.934  0.00  0.00    +0.000 A 
ENDROOT
BRANCH   2  11
ATOM     11  O   UNL     1       2.900   8.148  17.611  0.00  0.00    +0.000 OA
ATOM     12  H   UNL     1       2.598   7.530  16.916  0.00  0.00    +0.000 HD
ENDBRANCH   2  11
BRANCH   1  13
ATOM     13  C   UNL     1       5.207   6.161  17.949  0.00  0.00    +0.000 C 
BRANCH  13  17
ATOM     14  C   UNL     1       5.875   4.206  14.127  0.00  0.00    +0.000 A 
ATOM     15  C   UNL     1       6.068   3.520  15.334  0.00  0.00    +0.000 A 
ATOM     16  C   UNL     1       5.884   4.132  16.576  0.00  0.00    +0.000 A 
ATOM     17  C   UNL     1       5.501   5.472  16.640  0.00  0.00    +0.000 A 
ATOM     18  C   UNL     1       5.219   6.143  15.436  0.00  0.00    +0.000 A 
ATOM     19  C   UNL     1       5.413   5.524  14.191  0.00  0.00    +0.000 A 
BRANCH  14  21
ATOM     20  C   UNL     1       4.997   3.206  11.904  0.00  0.00    +0.000 C 
ATOM     21  C   UNL     1       6.194   3.499  12.816  0.00  0.00    +0.000 C 
ATOM     22  C   UNL     1       7.239   4.309  12.047  0.00  0.00    +0.000 C 
ENDBRANCH  14  21
ENDBRANCH  13  17
ENDBRANCH   1  13
TORSDOF 4
ENDMDL
MODEL 8
REMARK VINA RESULT:      -7.5      2.923      4.273
REMARK  Name = 
REMARK  6 active torsions:
REMARK  status: ('A' for Active; 'I' for Inactive)
REMARK    1  A    between atoms: C_1  and  C_2
REMARK    2  A    between atoms: C_2  and  C_3
REMARK    3  A    between atoms: C_2  and  C_4
REMARK    4  A    between atoms: C_7  and  C_8
REMARK    5  A    between atoms: C_8  and  N_9
REMARK    6  A    between atoms: C_10  and  O_11
REMARK                            x       y       z     vdW  Elec       q    Type
REMARK                         _______ _______ _______ _____ _____    ______ ____
ROOT
ATOM      1  N   UNL     1       5.955   5.335  15.506  0.00  0.00    +0.000 N 
ATOM      2  C   UNL     1       7.253   5.434  15.933  0.00  0.00    +0.000 A 
ATOM      3  N   UNL     1       8.082   5.545  14.934  0.00  0.00    +0.000 NA
ATOM      4  C   UNL     1       7.352   5.098  13.866  0.00  0.00    +0.000 A 
ATOM      5  C   UNL     1       7.813   4.781  12.582  0.00  0.00    +0.000 A 
ATOM      6  C   UNL     1       7.040   3.908  11.818  0.00  0.00    +0.000 A 
ATOM      7  C   UNL     1       5.799   3.465  12.289  0.00  0.00    +0.000 A 
ATOM      8 CL   UNL     1       5.027   2.161  11.465  0.00  0.00    +0.000 Cl
ATOM      9  C   UNL     1       5.220   3.966  13.470  0.00  0.00    +0.000 A 
ATOM     10  C   UNL     1       6.042   4.782  14.255  0.00  0.00    +0.000 A 
ENDROOT
BRANCH   2  11
ATOM     11  O   UNL     1       7.609   4.943  17.107  0.00  0.00    +0.000 OA
ATOM     12  H   UNL     1       7.900   4.045  16.856  0.00  0.00    +0.000 HD
ENDBRANCH   2  11
BRANCH   1  13
ATOM     13  C   UNL     1       4.859   5.972  16.234  0.00  0.00    +0.000 C 
BRANCH  13  17
ATOM     14  C   UNL     1       2.497   3.367  18.787  0.00  0.00    +0.000 A 
ATOM     15  C   UNL     1       2.345   4.760  18.837  0.00  0.00    +0.000 A 
ATOM     16  C   UNL     1       3.109   5.620  18.045  0.00  0.00    +0.000 A 
ATOM     17  C   UNL     1       4.064   5.098  17.173  0.00  0.00    +0.000 A 
ATOM     18  C   UNL     1       4.161   3.699  17.051  0.00  0.00    +0.000 A 
ATOM     19  C   UNL     1       3.396   2.840  17.855  0.00  0.00    +0.000 A 
BRANCH  14  21
ATOM     20  C   UNL     1       1.332   3.157  21.093  0.00  0.00    +0.000 C 
ATOM     21  C   UNL     1       1.698   2.503  19.755  0.00  0.00    +0.000 C 
ATOM     22  C   UNL     1       0.428   2.010  19.061  0.00  0.00    +0.000 C 
ENDBRANCH  14  21
ENDBRANCH  13  17
ENDBRANCH   1  13
TORSDOF 4
ENDMDL
MODEL 9
REMARK VINA RESULT:      -7.4      2.095      3.204
REMARK  Name = 
REMARK  6 active torsions:
REMARK  status: ('A' for Active; 'I' for Inactive)
REMARK    1  A    between atoms: C_1  and  C_2
REMARK    2  A    between atoms: C_2  and  C_3
REMARK    3  A    between atoms: C_2  and  C_4
REMARK    4  A    between atoms: C_7  and  C_8
REMARK    5  A    between atoms: C_8  and  N_9
REMARK    6  A    between atoms: C_10  and  O_11
REMARK                            x       y       z     vdW  Elec       q    Type
REMARK                         _______ _______ _______ _____ _____    ______ ____
ROOT
ATOM      1  N   UNL     1       6.088   3.974  15.904  0.00  0.00    +0.000 N 
ATOM      2  C   UNL     1       7.197   4.654  16.332  0.00  0.00    +0.000 A 
ATOM      3  N   UNL     1       7.657   5.454  15.411  0.00  0.00    +0.000 NA
ATOM      4  C   UNL     1       7.091   4.973  14.262  0.00  0.00    +0.000 A 
ATOM      5  C   UNL     1       7.416   5.303  12.941  0.00  0.00    +0.000 A 
ATOM      6  C   UNL     1       7.088   4.381  11.948  0.00  0.00    +0.000 A 
ATOM      7  C   UNL     1       6.363   3.227  12.265  0.00  0.00    +0.000 A 
ATOM      8 CL   UNL     1       6.249   1.978  11.081  0.00  0.00    +0.000 Cl
ATOM      9  C   UNL     1       5.826   3.004  13.547  0.00  0.00    +0.000 A 
ATOM     10  C   UNL     1       6.228   3.903  14.542  0.00  0.00    +0.000 A 
ENDROOT
BRANCH   2  11
ATOM     11  O   UNL     1       7.957   4.157  17.292  0.00  0.00    +0.000 OA
ATOM     12  H   UNL     1       7.929   4.880  17.949  0.00  0.00    +0.000 HD
ENDBRANCH   2  11
BRANCH   1  13
ATOM     13  C   UNL     1       4.969   3.692  16.801  0.00  0.00    +0.000 C 
BRANCH  13  17
ATOM     14  C   UNL     1       2.496   7.036  18.058  0.00  0.00    +0.000 A 
ATOM     15  C   UNL     1       3.741   7.246  17.448  0.00  0.00    +0.000 A 
ATOM     16  C   UNL     1       4.566   6.189  17.058  0.00  0.00    +0.000 A 
ATOM     17  C   UNL     1       4.159   4.873  17.276  0.00  0.00    +0.000 A 
ATOM     18  C   UNL     1       2.874   4.651  17.805  0.00  0.00    +0.000 A 
ATOM     19  C   UNL     1       2.053   5.718  18.203  0.00  0.00    +0.000 A 
BRANCH  14  21
ATOM     20  C   UNL     1       1.674   8.454  20.065  0.00  0.00    +0.000 C 
ATOM     21  C   UNL     1       1.701   8.240  18.547  0.00  0.00    +0.000 C 
ATOM     22  C   UNL     1       2.224   9.503  17.861  0.00  0.00    +0.000 C 
ENDBRANCH  14  21
ENDBRANCH  13  17
ENDBRANCH   1  13
TORSDOF 4
ENDMDL
