MODEL 1
REMARK VINA RESULT:      -7.6      0.000      0.000
REMARK  Name = 
REMARK  6 active torsions:
REMARK  status: ('A' for Active; 'I' for Inactive)
REMARK    1  A    between atoms: C_1  and  N_2
REMARK    2  A    between atoms: N_2  and  C_3
REMARK    3  A    between atoms: N_2  and  C_11
REMARK    4  A    between atoms: C_3  and  C_4
REMARK    5  A    between atoms: C_11  and  N_12
REMARK    6  A    between atoms: C_14  and  C_15
REMARK                            x       y       z     vdW  Elec       q    Type
REMARK                         _______ _______ _______ _____ _____    ______ ____
ROOT
ATOM      1  N   UNL     1       5.757   4.367  17.917  0.00  0.00    +0.000 N 
ATOM      2  N   UNL     1       5.387   4.102  16.617  0.00  0.00    +0.000 NA
ATOM      3  C   UNL     1       6.459   4.422  15.958  0.00  0.00    +0.000 A 
ATOM      4  O   UNL     1       7.517   4.827  16.697  0.00  0.00    +0.000 OA
ATOM      5  C   UNL     1       7.076   4.749  17.980  0.00  0.00    +0.000 A 
ATOM      6  O   UNL     1       7.762   4.965  18.965  0.00  0.00    +0.000 OA
ENDROOT
BRANCH   3   7
ATOM      7  C   UNL     1       6.696   4.399  14.510  0.00  0.00    +0.000 A 
ATOM      8  C   UNL     1       7.628   5.268  13.947  0.00  0.00    +0.000 A 
ATOM      9  C   UNL     1       7.819   5.209  12.578  0.00  0.00    +0.000 A 
ATOM     10  N   UNL     1       7.156   4.361  11.761  0.00  0.00    +0.000 NA
ATOM     11  C   UNL     1       6.262   3.530  12.332  0.00  0.00    +0.000 A 
ATOM     12  C   UNL     1       6.000   3.509  13.688  0.00  0.00    +0.000 A 
ENDBRANCH   3   7
BRANCH   1  13
ATOM     13  C   UNL     1       5.024   3.990  19.103  0.00  0.00    +0.000 C 
BRANCH  13  15
ATOM     14  C   UNL     1       3.111   2.590  18.935  0.00  0.00    +0.000 C 
ATOM     15  N   UNL     1       3.562   3.991  18.954  0.00  0.00    +0.000 NA
BRANCH  15  16
ATOM     16  C   UNL     1       2.914   4.728  20.054  0.00  0.00    +0.000 C 
BRANCH  16  17
ATOM     17  C   UNL     1       2.500   6.139  19.675  0.00  0.00    +0.000 A 
ATOM     18  C   UNL     1       2.705   6.617  18.372  0.00  0.00    +0.000 A 
ATOM     19  C   UNL     1       2.318   7.912  18.023  0.00  0.00    +0.000 A 
ATOM     20  C   UNL     1       1.722   8.736  18.977  0.00  0.00    +0.000 A 
ATOM     21 BR   UNL     1       1.186  10.484  18.500  0.00  0.00    +0.000 Br
ATOM     22  C   UNL     1       1.518   8.280  20.278  0.00  0.00    +0.000 A 
ATOM     23  C   UNL     1       1.905   6.984  20.624  0.00  0.00    +0.000 A 
ENDBRANCH  16  17
ENDBRANCH  15  16
ENDBRANCH  13  15
ENDBRANCH   1  13
TORSDOF 5
ENDMDL
MODEL 2
REMARK VINA RESULT:      -7.5      0.895      1.704
REMARK  Name = 
REMARK  6 active torsions:
REMARK  status: ('A' for Active; 'I' for Inactive)
REMARK    1  A    between atoms: C_1  and  N_2
REMARK    2  A    between atoms: N_2  and  C_3
REMARK    3  A    between atoms: N_2  and  C_11
REMARK    4  A    between atoms: C_3  and  C_4
REMARK    5  A    between atoms: C_11  and  N_12
REMARK    6  A    between atoms: C_14  and  C_15
REMARK                            x       y       z     vdW  Elec       q    Type
REMARK                         _______ _______ _______ _____ _____    ______ ____
ROOT
ATOM      1  N   UNL     1       4.785   4.220  17.657  0.00  0.00    +0.000 N 
ATOM      2  N   UNL     1       4.655   4.020  16.300  0.00  0.00    +0.000 NA
ATOM      3  C   UNL     1       5.847   4.299  15.868  0.00  0.00    +0.000 A 
ATOM      4  O   UNL     1       6.764   4.618  16.809  0.00  0.00    +0.000 OA
ATOM      5  C   UNL     1       6.086   4.523  17.981  0.00  0.00    +0.000 A 
ATOM      6  O   UNL     1       6.583   4.666  19.086  0.00  0.00    +0.000 OA
ENDROOT
BRANCH   3   7
ATOM      7  C   UNL     1       6.352   4.311  14.489  0.00  0.00    +0.000 A 
ATOM      8  C   UNL     1       5.785   3.467  13.537  0.00  0.00    +0.000 A 
ATOM      9  C   UNL     1       6.292   3.515  12.251  0.00  0.00    +0.000 A 
ATOM     10  N   UNL     1       7.302   4.329  11.869  0.00  0.00    +0.000 NA
ATOM     11  C   UNL     1       7.831   5.135  12.810  0.00  0.00    +0.000 A 
ATOM     12  C   UNL     1       7.395   5.165  14.121  0.00  0.00    +0.000 A 
ENDBRANCH   3   7
BRANCH   1  13
ATOM     13  C   UNL     1       3.824   3.845  18.667  0.00  0.00    +0.000 C 
BRANCH  13  15
ATOM     14  C   UNL     1       1.473   3.919  19.010  0.00  0.00    +0.000 C 
ATOM     15  N   UNL     1       2.669   4.747  18.789  0.00  0.00    +0.000 NA
BRANCH  15  16
ATOM     16  C   UNL     1       2.852   5.700  19.899  0.00  0.00    +0.000 C 
BRANCH  16  17
ATOM     17  C   UNL     1       2.242   7.064  19.632  0.00  0.00    +0.000 A 
ATOM     18  C   UNL     1       1.576   7.759  20.652  0.00  0.00    +0.000 A 
ATOM     19  C   UNL     1       1.022   9.018  20.408  0.00  0.00    +0.000 A 
ATOM     20  C   UNL     1       1.133   9.588  19.140  0.00  0.00    +0.000 A 
ATOM     21 BR   UNL     1       0.395  11.296  18.814  0.00  0.00    +0.000 Br
ATOM     22  C   UNL     1       1.785   8.908  18.113  0.00  0.00    +0.000 A 
ATOM     23  C   UNL     1       2.340   7.650  18.361  0.00  0.00    +0.000 A 
ENDBRANCH  16  17
ENDBRANCH  15  16
ENDBRANCH  13  15
ENDBRANCH   1  13
TORSDOF 5
ENDMDL
MODEL 3
REMARK VINA RESULT:      -7.4      4.412      6.038
REMARK  Name = 
REMARK  6 active torsions:
REMARK  status: ('A' for Active; 'I' for Inactive)
REMARK    1  A    between atoms: C_1  and  N_2
REMARK    2  A    between atoms: N_2  and  C_3
REMARK    3  A    between atoms: N_2  and  C_11
REMARK    4  A    between atoms: C_3  and  C_4
REMARK    5  A    between atoms: C_11  and  N_12
REMARK    6  A    between atoms: C_14  and  C_15
REMARK                            x       y       z     vdW  Elec       q    Type
REMARK                         _______ _______ _______ _____ _____    ______ ____
ROOT
ATOM      1  N   UNL     1       7.262   6.743  17.513  0.00  0.00    +0.000 N 
ATOM      2  N   UNL     1       7.445   8.065  17.170  0.00  0.00    +0.000 NA
ATOM      3  C   UNL     1       8.167   8.504  18.155  0.00  0.00    +0.000 A 
ATOM      4  O   UNL     1       8.518   7.594  19.091  0.00  0.00    +0.000 OA
ATOM      5  C   UNL     1       7.967   6.434  18.651  0.00  0.00    +0.000 A 
ATOM      6  O   UNL     1       8.115   5.347  19.185  0.00  0.00    +0.000 OA
ENDROOT
BRANCH   3   7
ATOM      7  C   UNL     1       8.671   9.861  18.400  0.00  0.00    +0.000 A 
ATOM      8  C   UNL     1       9.503  10.104  19.491  0.00  0.00    +0.000 A 
ATOM      9  C   UNL     1       9.955  11.399  19.679  0.00  0.00    +0.000 A 
ATOM     10  N   UNL     1       9.635  12.434  18.871  0.00  0.00    +0.000 NA
ATOM     11  C   UNL     1       8.829  12.170  17.824  0.00  0.00    +0.000 A 
ATOM     12  C   UNL     1       8.327  10.913  17.547  0.00  0.00    +0.000 A 
ENDBRANCH   3   7
BRANCH   1  13
ATOM     13  C   UNL     1       6.712   5.714  16.663  0.00  0.00    +0.000 C 
BRANCH  13  15
ATOM     14  C   UNL     1       5.046   6.569  15.200  0.00  0.00    +0.000 C 
ATOM     15  N   UNL     1       5.262   5.804  16.438  0.00  0.00    +0.000 NA
BRANCH  15  16
ATOM     16  C   UNL     1       4.654   4.466  16.333  0.00  0.00    +0.000 C 
BRANCH  16  17
ATOM     17  C   UNL     1       3.858   4.064  17.562  0.00  0.00    +0.000 A 
ATOM     18  C   UNL     1       4.212   2.923  18.299  0.00  0.00    +0.000 A 
ATOM     19  C   UNL     1       3.484   2.559  19.434  0.00  0.00    +0.000 A 
ATOM     20  C   UNL     1       2.398   3.335  19.838  0.00  0.00    +0.000 A 
ATOM     21 BR   UNL     1       1.423   2.848  21.381  0.00  0.00    +0.000 Br
ATOM     22  C   UNL     1       2.029   4.467  19.114  0.00  0.00    +0.000 A 
ATOM     23  C   UNL     1       2.759   4.830  17.980  0.00  0.00    +0.000 A 
ENDBRANCH  16  17
ENDBRANCH  15  16
ENDBRANCH  13  15
ENDBRANCH   1  13
TORSDOF 5
ENDMDL
MODEL 4
REMARK VINA RESULT:      -7.4      0.767      1.305
REMARK  Name = 
REMARK  6 active torsions:
REMARK  status: ('A' for Active; 'I' for Inactive)
REMARK    1  A    between atoms: C_1  and  N_2
REMARK    2  A    between atoms: N_2  and  C_3
REMARK    3  A    between atoms: N_2  and  C_11
REMARK    4  A    between atoms: C_3  and  C_4
REMARK    5  A    between atoms: C_11  and  N_12
REMARK    6  A    between atoms: C_14  and  C_15
REMARK                            x       y       z     vdW  Elec       q    Type
REMARK                         _______ _______ _______ _____ _____    ______ ____
ROOT
ATOM      1  N   UNL     1       5.100   4.429  17.780  0.00  0.00    +0.000 N 
ATOM      2  N   UNL     1       4.867   4.205  16.441  0.00  0.00    +0.000 NA
ATOM      3  C   UNL     1       6.038   4.419  15.921  0.00  0.00    +0.000 A 
ATOM      4  O   UNL     1       7.031   4.717  16.788  0.00  0.00    +0.000 OA
ATOM      5  C   UNL     1       6.432   4.680  18.007  0.00  0.00    +0.000 A 
ATOM      6  O   UNL     1       7.011   4.825  19.071  0.00  0.00    +0.000 OA
ENDROOT
BRANCH   3   7
ATOM      7  C   UNL     1       6.446   4.377  14.512  0.00  0.00    +0.000 A 
ATOM      8  C   UNL     1       7.474   5.204  14.064  0.00  0.00    +0.000 A 
ATOM      9  C   UNL     1       7.826   5.127  12.728  0.00  0.00    +0.000 A 
ATOM     10  N   UNL     1       7.230   4.302  11.838  0.00  0.00    +0.000 NA
ATOM     11  C   UNL     1       6.239   3.513  12.299  0.00  0.00    +0.000 A 
ATOM     12  C   UNL     1       5.815   3.512  13.614  0.00  0.00    +0.000 A 
ENDBRANCH   3   7
BRANCH   1  13
ATOM     13  C   UNL     1       4.196   4.121  18.863  0.00  0.00    +0.000 C 
BRANCH  13  15
ATOM     14  C   UNL     1       1.841   3.839  18.707  0.00  0.00    +0.000 C 
ATOM     15  N   UNL     1       2.913   4.840  18.823  0.00  0.00    +0.000 NA
BRANCH  15  16
ATOM     16  C   UNL     1       2.726   5.663  20.030  0.00  0.00    +0.000 C 
BRANCH  16  17
ATOM     17  C   UNL     1       2.179   7.049  19.738  0.00  0.00    +0.000 A 
ATOM     18  C   UNL     1       1.486   7.765  20.726  0.00  0.00    +0.000 A 
ATOM     19  C   UNL     1       0.990   9.043  20.459  0.00  0.00    +0.000 A 
ATOM     20  C   UNL     1       1.185   9.611  19.201  0.00  0.00    +0.000 A 
ATOM     21 BR   UNL     1       0.524  11.345  18.845  0.00  0.00    +0.000 Br
ATOM     22  C   UNL     1       1.864   8.911  18.206  0.00  0.00    +0.000 A 
ATOM     23  C   UNL     1       2.361   7.634  18.476  0.00  0.00    +0.000 A 
ENDBRANCH  16  17
ENDBRANCH  15  16
ENDBRANCH  13  15
ENDBRANCH   1  13
TORSDOF 5
ENDMDL
MODEL 5
REMARK VINA RESULT:      -7.3      0.799      1.633
REMARK  Name = 
REMARK  6 active torsions:
REMARK  status: ('A' for Active; 'I' for Inactive)
REMARK    1  A    between atoms: C_1  and  N_2
REMARK    2  A    between atoms: N_2  and  C_3
REMARK    3  A    between atoms: N_2  and  C_11
REMARK    4  A    between atoms: C_3  and  C_4
REMARK    5  A    between atoms: C_11  and  N_12
REMARK    6  A    between atoms: C_14  and  C_15
REMARK                            x       y       z     vdW  Elec       q    Type
REMARK                         _______ _______ _______ _____ _____    ______ ____
ROOT
ATOM      1  N   UNL     1       6.018   5.428  17.818  0.00  0.00    +0.000 N 
ATOM      2  N   UNL     1       5.567   5.365  16.518  0.00  0.00    +0.000 NA
ATOM      3  C   UNL     1       6.609   4.912  15.889  0.00  0.00    +0.000 A 
ATOM      4  O   UNL     1       7.689   4.626  16.651  0.00  0.00    +0.000 OA
ATOM      5  C   UNL     1       7.291   4.919  17.916  0.00  0.00    +0.000 A 
ATOM      6  O   UNL     1       7.961   4.729  18.918  0.00  0.00    +0.000 OA
ENDROOT
BRANCH   3   7
ATOM      7  C   UNL     1       6.785   4.656  14.455  0.00  0.00    +0.000 A 
ATOM      8  C   UNL     1       6.048   3.648  13.837  0.00  0.00    +0.000 A 
ATOM      9  C   UNL     1       6.246   3.444  12.483  0.00  0.00    +0.000 A 
ATOM     10  N   UNL     1       7.109   4.162  11.730  0.00  0.00    +0.000 NA
ATOM     11  C   UNL     1       7.809   5.131  12.354  0.00  0.00    +0.000 A 
ATOM     12  C   UNL     1       7.682   5.415  13.700  0.00  0.00    +0.000 A 
ENDBRANCH   3   7
BRANCH   1  13
ATOM     13  C   UNL     1       5.205   5.659  18.989  0.00  0.00    +0.000 C 
BRANCH  13  15
ATOM     14  C   UNL     1       3.939   3.648  18.978  0.00  0.00    +0.000 C 
ATOM     15  N   UNL     1       3.841   5.115  18.914  0.00  0.00    +0.000 NA
BRANCH  15  16
ATOM     16  C   UNL     1       3.002   5.626  20.012  0.00  0.00    +0.000 C 
BRANCH  16  17
ATOM     17  C   UNL     1       2.343   6.958  19.701  0.00  0.00    +0.000 A 
ATOM     18  C   UNL     1       1.678   7.677  20.705  0.00  0.00    +0.000 A 
ATOM     19  C   UNL     1       1.078   8.905  20.418  0.00  0.00    +0.000 A 
ATOM     20  C   UNL     1       1.143   9.421  19.125  0.00  0.00    +0.000 A 
ATOM     21 BR   UNL     1       0.343  11.090  18.742  0.00  0.00    +0.000 Br
ATOM     22  C   UNL     1       1.794   8.718  18.114  0.00  0.00    +0.000 A 
ATOM     23  C   UNL     1       2.394   7.490  18.403  0.00  0.00    +0.000 A 
ENDBRANCH  16  17
ENDBRANCH  15  16
ENDBRANCH  13  15
ENDBRANCH   1  13
TORSDOF 5
ENDMDL
MODEL 6
REMARK VINA RESULT:      -7.3      0.623      1.532
REMARK  Name = 
REMARK  6 active torsions:
REMARK  status: ('A' for Active; 'I' for Inactive)
REMARK    1  A    between atoms: C_1  and  N_2
REMARK    2  A    between atoms: N_2  and  C_3
REMARK    3  A    between atoms: N_2  and  C_11
REMARK    4  A    between atoms: C_3  and  C_4
REMARK    5  A    between atoms: C_11  and  N_12
REMARK    6  A    between atoms: C_14  and  C_15
REMARK                            x       y       z     vdW  Elec       q    Type
REMARK                         _______ _______ _______ _____ _____    ______ ____
ROOT
ATOM      1  N   UNL     1       5.879   4.712  18.059  0.00  0.00    +0.000 N 
ATOM      2  N   UNL     1       5.438   4.510  16.770  0.00  0.00    +0.000 NA
ATOM      3  C   UNL     1       6.539   4.599  16.088  0.00  0.00    +0.000 A 
ATOM      4  O   UNL     1       7.670   4.793  16.802  0.00  0.00    +0.000 OA
ATOM      5  C   UNL     1       7.249   4.822  18.092  0.00  0.00    +0.000 A 
ATOM      6  O   UNL     1       7.984   4.908  19.062  0.00  0.00    +0.000 OA
ENDROOT
BRANCH   3   7
ATOM      7  C   UNL     1       6.738   4.510  14.636  0.00  0.00    +0.000 A 
ATOM      8  C   UNL     1       6.034   3.560  13.898  0.00  0.00    +0.000 A 
ATOM      9  C   UNL     1       6.252   3.516  12.532  0.00  0.00    +0.000 A 
ATOM     10  N   UNL     1       7.105   4.335  11.878  0.00  0.00    +0.000 NA
ATOM     11  C   UNL     1       7.772   5.245  12.617  0.00  0.00    +0.000 A 
ATOM     12  C   UNL     1       7.623   5.372  13.984  0.00  0.00    +0.000 A 
ENDBRANCH   3   7
BRANCH   1  13
ATOM     13  C   UNL     1       5.109   4.504  19.263  0.00  0.00    +0.000 C 
BRANCH  13  15
ATOM     14  C   UNL     1       4.418   2.314  19.872  0.00  0.00    +0.000 C 
ATOM     15  N   UNL     1       4.019   3.526  19.140  0.00  0.00    +0.000 NA
BRANCH  15  16
ATOM     16  C   UNL     1       2.757   4.064  19.679  0.00  0.00    +0.000 C 
BRANCH  16  17
ATOM     17  C   UNL     1       2.502   5.510  19.293  0.00  0.00    +0.000 A 
ATOM     18  C   UNL     1       2.245   6.476  20.278  0.00  0.00    +0.000 A 
ATOM     19  C   UNL     1       2.018   7.807  19.922  0.00  0.00    +0.000 A 
ATOM     20  C   UNL     1       2.048   8.179  18.579  0.00  0.00    +0.000 A 
ATOM     21 BR   UNL     1       1.754   9.984  18.100  0.00  0.00    +0.000 Br
ATOM     22  C   UNL     1       2.295   7.232  17.587  0.00  0.00    +0.000 A 
ATOM     23  C   UNL     1       2.523   5.901  17.945  0.00  0.00    +0.000 A 
ENDBRANCH  16  17
ENDBRANCH  15  16
ENDBRANCH  13  15
ENDBRANCH   1  13
TORSDOF 5
ENDMDL
MODEL 7
REMARK VINA RESULT:      -7.2      2.070      2.712
REMARK  Name = 
REMARK  6 active torsions:
REMARK  status: ('A' for Active; 'I' for Inactive)
REMARK    1  A    between atoms: C_1  and  N_2
REMARK    2  A    between atoms: N_2  and  C_3
REMARK    3  A    between atoms: N_2  and  C_11
REMARK    4  A    between atoms: C_3  and  C_4
REMARK    5  A    between atoms: C_11  and  N_12
REMARK    6  A    between atoms: C_14  and  C_15
REMARK                            x       y       z     vdW  Elec       q    Type
REMARK                         _______ _______ _______ _____ _____    ______ ____
ROOT
ATOM      1  N   UNL     1       2.657   3.763  18.298  0.00  0.00    +0.000 N 
ATOM      2  N   UNL     1       3.308   4.688  17.512  0.00  0.00    +0.000 NA
ATOM      3  C   UNL     1       4.310   4.000  17.055  0.00  0.00    +0.000 A 
ATOM      4  O   UNL     1       4.361   2.701  17.423  0.00  0.00    +0.000 OA
ATOM      5  C   UNL     1       3.258   2.531  18.198  0.00  0.00    +0.000 A 
ATOM      6  O   UNL     1       2.899   1.466  18.674  0.00  0.00    +0.000 OA
ENDROOT
BRANCH   3   7
ATOM      7  C   UNL     1       5.406   4.432  16.178  0.00  0.00    +0.000 A 
ATOM      8  C   UNL     1       6.387   5.291  16.669  0.00  0.00    +0.000 A 
ATOM      9  C   UNL     1       7.401   5.669  15.807  0.00  0.00    +0.000 A 
ATOM     10  N   UNL     1       7.492   5.256  14.523  0.00  0.00    +0.000 NA
ATOM     11  C   UNL     1       6.529   4.426  14.075  0.00  0.00    +0.000 A 
ATOM     12  C   UNL     1       5.477   3.988  14.856  0.00  0.00    +0.000 A 
ENDBRANCH   3   7
BRANCH   1  13
ATOM     13  C   UNL     1       1.346   3.917  18.883  0.00  0.00    +0.000 C 
BRANCH  13  15
ATOM     14  C   UNL     1       1.475   3.501  21.219  0.00  0.00    +0.000 C 
ATOM     15  N   UNL     1       1.329   4.558  20.206  0.00  0.00    +0.000 NA
BRANCH  15  16
ATOM     16  C   UNL     1       2.411   5.550  20.333  0.00  0.00    +0.000 C 
BRANCH  16  17
ATOM     17  C   UNL     1       1.974   6.968  20.009  0.00  0.00    +0.000 A 
ATOM     18  C   UNL     1       2.273   7.539  18.763  0.00  0.00    +0.000 A 
ATOM     19  C   UNL     1       1.864   8.840  18.464  0.00  0.00    +0.000 A 
ATOM     20  C   UNL     1       1.152   9.576  19.410  0.00  0.00    +0.000 A 
ATOM     21 BR   UNL     1       0.587  11.332  18.998  0.00  0.00    +0.000 Br
ATOM     22  C   UNL     1       0.852   9.027  20.655  0.00  0.00    +0.000 A 
ATOM     23  C   UNL     1       1.261   7.725  20.951  0.00  0.00    +0.000 A 
ENDBRANCH  16  17
ENDBRANCH  15  16
ENDBRANCH  13  15
ENDBRANCH   1  13
TORSDOF 5
ENDMDL
MODEL 8
REMARK VINA RESULT:      -7.2      0.957      1.553
REMARK  Name = 
REMARK  6 active torsions:
REMARK  status: ('A' for Active; 'I' for Inactive)
REMARK    1  A    between atoms: C_1  and  N_2
REMARK    2  A    between atoms: N_2  and  C_3
REMARK    3  A    between atoms: N_2  and  C_11
REMARK    4  A    between atoms: C_3  and  C_4
REMARK    5  A    between atoms: C_11  and  N_12
REMARK    6  A    between atoms: C_14  and  C_15
REMARK                            x       y       z     vdW  Elec       q    Type
REMARK                         _______ _______ _______ _____ _____    ______ ____
ROOT
ATOM      1  N   UNL     1       5.858   4.456  17.911  0.00  0.00    +0.000 N 
ATOM      2  N   UNL     1       5.486   4.177  16.614  0.00  0.00    +0.000 NA
ATOM      3  C   UNL     1       6.552   4.504  15.949  0.00  0.00    +0.000 A 
ATOM      4  O   UNL     1       7.608   4.926  16.681  0.00  0.00    +0.000 OA
ATOM      5  C   UNL     1       7.173   4.853  17.966  0.00  0.00    +0.000 A 
ATOM      6  O   UNL     1       7.860   5.083  18.947  0.00  0.00    +0.000 OA
ENDROOT
BRANCH   3   7
ATOM      7  C   UNL     1       6.784   4.473  14.499  0.00  0.00    +0.000 A 
ATOM      8  C   UNL     1       7.738   5.316  13.933  0.00  0.00    +0.000 A 
ATOM      9  C   UNL     1       7.923   5.250  12.564  0.00  0.00    +0.000 A 
ATOM     10  N   UNL     1       7.234   4.419  11.749  0.00  0.00    +0.000 NA
ATOM     11  C   UNL     1       6.318   3.614  12.324  0.00  0.00    +0.000 A 
ATOM     12  C   UNL     1       6.060   3.602  13.681  0.00  0.00    +0.000 A 
ENDBRANCH   3   7
BRANCH   1  13
ATOM     13  C   UNL     1       5.134   4.079  19.102  0.00  0.00    +0.000 C 
BRANCH  13  15
ATOM     14  C   UNL     1       4.091   2.258  20.217  0.00  0.00    +0.000 C 
ATOM     15  N   UNL     1       4.195   2.961  18.929  0.00  0.00    +0.000 NA
BRANCH  15  16
ATOM     16  C   UNL     1       2.871   3.440  18.492  0.00  0.00    +0.000 C 
BRANCH  16  17
ATOM     17  C   UNL     1       2.462   4.755  19.130  0.00  0.00    +0.000 A 
ATOM     18  C   UNL     1       1.810   4.773  20.371  0.00  0.00    +0.000 A 
ATOM     19  C   UNL     1       1.441   5.984  20.961  0.00  0.00    +0.000 A 
ATOM     20  C   UNL     1       1.724   7.184  20.310  0.00  0.00    +0.000 A 
ATOM     21 BR   UNL     1       1.236   8.823  21.115  0.00  0.00    +0.000 Br
ATOM     22  C   UNL     1       2.364   7.185  19.073  0.00  0.00    +0.000 A 
ATOM     23  C   UNL     1       2.734   5.973  18.486  0.00  0.00    +0.000 A 
ENDBRANCH  16  17
ENDBRANCH  15  16
ENDBRANCH  13  15
ENDBRANCH   1  13
TORSDOF 5
ENDMDL
MODEL 9
REMARK VINA RESULT:      -7.1      4.082      5.815
REMARK  Name = 
REMARK  6 active torsions:
REMARK  status: ('A' for Active; 'I' for Inactive)
REMARK    1  A    between atoms: C_1  and  N_2
REMARK    2  A    between atoms: N_2  and  C_3
REMARK    3  A    between atoms: N_2  and  C_11
REMARK    4  A    between atoms: C_3  and  C_4
REMARK    5  A    between atoms: C_11  and  N_12
REMARK    6  A    between atoms: C_14  and  C_15
REMARK                            x       y       z     vdW  Elec       q    Type
REMARK                         _______ _______ _______ _____ _____    ______ ____
ROOT
ATOM      1  N   UNL     1       7.499   6.335  17.489  0.00  0.00    +0.000 N 
ATOM      2  N   UNL     1       7.664   7.635  17.064  0.00  0.00    +0.000 NA
ATOM      3  C   UNL     1       8.176   8.202  18.114  0.00  0.00    +0.000 A 
ATOM      4  O   UNL     1       8.408   7.397  19.174  0.00  0.00    +0.000 OA
ATOM      5  C   UNL     1       8.009   6.169  18.754  0.00  0.00    +0.000 A 
ATOM      6  O   UNL     1       8.123   5.141  19.401  0.00  0.00    +0.000 OA
ENDROOT
BRANCH   3   7
ATOM      7  C   UNL     1       8.551   9.607  18.316  0.00  0.00    +0.000 A 
ATOM      8  C   UNL     1       9.374   9.957  19.384  0.00  0.00    +0.000 A 
ATOM      9  C   UNL     1       9.702  11.292  19.534  0.00  0.00    +0.000 A 
ATOM     10  N   UNL     1       9.271  12.272  18.708  0.00  0.00    +0.000 NA
ATOM     11  C   UNL     1       8.477  11.905  17.682  0.00  0.00    +0.000 A 
ATOM     12  C   UNL     1       8.093  10.599  17.445  0.00  0.00    +0.000 A 
ENDBRANCH   3   7
BRANCH   1  13
ATOM     13  C   UNL     1       7.165   5.205  16.655  0.00  0.00    +0.000 C 
BRANCH  13  15
ATOM     14  C   UNL     1       7.220   5.206  14.279  0.00  0.00    +0.000 C 
ATOM     15  N   UNL     1       6.389   5.531  15.449  0.00  0.00    +0.000 NA
BRANCH  15  16
ATOM     16  C   UNL     1       5.123   4.779  15.411  0.00  0.00    +0.000 C 
BRANCH  16  17
ATOM     17  C   UNL     1       4.366   4.799  16.727  0.00  0.00    +0.000 A 
ATOM     18  C   UNL     1       3.984   6.016  17.311  0.00  0.00    +0.000 A 
ATOM     19  C   UNL     1       3.282   6.034  18.518  0.00  0.00    +0.000 A 
ATOM     20  C   UNL     1       2.958   4.832  19.147  0.00  0.00    +0.000 A 
ATOM     21 BR   UNL     1       1.996   4.857  20.774  0.00  0.00    +0.000 Br
ATOM     22  C   UNL     1       3.336   3.615  18.585  0.00  0.00    +0.000 A 
ATOM     23  C   UNL     1       4.037   3.600  17.377  0.00  0.00    +0.000 A 
ENDBRANCH  16  17
ENDBRANCH  15  16
ENDBRANCH  13  15
ENDBRANCH   1  13
TORSDOF 5
ENDMDL
