MODEL 1
REMARK VINA RESULT:      -6.9      0.000      0.000
REMARK  Name = 
REMARK  5 active torsions:
REMARK  status: ('A' for Active; 'I' for Inactive)
REMARK    1  A    between atoms: O_1  and  C_2
REMARK    2  A    between atoms: C_2  and  C_3
REMARK    3  A    between atoms: C_6  and  N_7
REMARK    4  A    between atoms: C_11  and  N_12
REMARK    5  A    between atoms: N_12  and  C_13
REMARK                            x       y       z     vdW  Elec       q    Type
REMARK                         _______ _______ _______ _____ _____    ______ ____
ROOT
ATOM      1  N   UNL     1       4.400   5.212  17.934  0.00  0.00    +0.000 N 
ATOM      2  C   UNL     1       4.103   6.219  17.055  0.00  0.00    +0.000 A 
ATOM      3  N   UNL     1       5.104   7.068  16.917  0.00  0.00    +0.000 NA
ATOM      4  C   UNL     1       6.089   6.587  17.756  0.00  0.00    +0.000 A 
ATOM      5  C   UNL     1       7.386   7.075  18.020  0.00  0.00    +0.000 A 
ATOM      6  C   UNL     1       8.140   6.333  18.935  0.00  0.00    +0.000 A 
ATOM      7  C   UNL     1       7.589   5.195  19.528  0.00  0.00    +0.000 A 
ATOM      8  N   UNL     1       6.345   4.704  19.307  0.00  0.00    +0.000 NA
ATOM      9  C   UNL     1       5.662   5.442  18.414  0.00  0.00    +0.000 A 
ENDROOT
BRANCH   1  13
ATOM     10  C   UNL     1       1.792   3.925  19.819  0.00  0.00    +0.000 C 
ATOM     11  C   UNL     1       1.329   3.350  18.491  0.00  0.00    +0.000 C 
ATOM     12  C   UNL     1       2.274   3.996  17.513  0.00  0.00    +0.000 C 
ATOM     13  C   UNL     1       3.571   4.083  18.304  0.00  0.00    +0.000 C 
ATOM     14  O   UNL     1       3.206   4.165  19.700  0.00  0.00    +0.000 OA
BRANCH  10  15
ATOM     15  C   UNL     1       1.510   2.996  20.998  0.00  0.00    +0.000 C 
BRANCH  15  16
ATOM     16  O   UNL     1       2.234   3.412  22.149  0.00  0.00    +0.000 OA
ATOM     17  H   UNL     1       2.989   2.806  22.245  0.00  0.00    +0.000 HD
ENDBRANCH  15  16
ENDBRANCH  10  15
ENDBRANCH   1  13
BRANCH   5  18
ATOM     18  N   UNL     1       7.881   8.214  17.353  0.00  0.00    +0.000 N 
ATOM     19  H   UNL     1       7.503   8.221  16.402  0.00  0.00    +0.000 HD
BRANCH  18  20
ATOM     20  C   UNL     1       7.982   9.506  18.028  0.00  0.00    +0.000 C 
ATOM     21  C   UNL     1       8.991   9.773  19.106  0.00  0.00    +0.000 C 
ATOM     22  C   UNL     1       9.183  10.368  17.744  0.00  0.00    +0.000 C 
ENDBRANCH  18  20
ENDBRANCH   5  18
TORSDOF 5
ENDMDL
MODEL 2
REMARK VINA RESULT:      -6.6      4.437      6.404
REMARK  Name = 
REMARK  5 active torsions:
REMARK  status: ('A' for Active; 'I' for Inactive)
REMARK    1  A    between atoms: O_1  and  C_2
REMARK    2  A    between atoms: C_2  and  C_3
REMARK    3  A    between atoms: C_6  and  N_7
REMARK    4  A    between atoms: C_11  and  N_12
REMARK    5  A    between atoms: N_12  and  C_13
REMARK                            x       y       z     vdW  Elec       q    Type
REMARK                         _______ _______ _______ _____ _____    ______ ____
ROOT
ATOM      1  N   UNL     1       2.978   6.367  18.598  0.00  0.00    +0.000 N 
ATOM      2  C   UNL     1       2.634   5.796  19.794  0.00  0.00    +0.000 A 
ATOM      3  N   UNL     1       1.891   6.601  20.532  0.00  0.00    +0.000 NA
ATOM      4  C   UNL     1       1.760   7.748  19.775  0.00  0.00    +0.000 A 
ATOM      5  C   UNL     1       1.070   8.948  20.044  0.00  0.00    +0.000 A 
ATOM      6  C   UNL     1       1.137   9.925  19.045  0.00  0.00    +0.000 A 
ATOM      7  C   UNL     1       1.867   9.677  17.880  0.00  0.00    +0.000 A 
ATOM      8  N   UNL     1       2.550   8.543  17.593  0.00  0.00    +0.000 NA
ATOM      9  C   UNL     1       2.448   7.629  18.576  0.00  0.00    +0.000 A 
ENDROOT
BRANCH   1  13
ATOM     10  C   UNL     1       5.794   4.641  17.547  0.00  0.00    +0.000 C 
ATOM     11  C   UNL     1       4.790   3.777  16.804  0.00  0.00    +0.000 C 
ATOM     12  C   UNL     1       3.474   4.292  17.325  0.00  0.00    +0.000 C 
ATOM     13  C   UNL     1       3.745   5.776  17.521  0.00  0.00    +0.000 C 
ATOM     14  O   UNL     1       5.161   5.913  17.779  0.00  0.00    +0.000 OA
BRANCH  10  15
ATOM     15  C   UNL     1       7.098   4.833  16.775  0.00  0.00    +0.000 C 
BRANCH  15  16
ATOM     16  O   UNL     1       8.153   4.100  17.383  0.00  0.00    +0.000 OA
ATOM     17  H   UNL     1       7.822   3.198  17.537  0.00  0.00    +0.000 HD
ENDBRANCH  15  16
ENDBRANCH  10  15
ENDBRANCH   1  13
BRANCH   5  18
ATOM     18  N   UNL     1       0.327   9.107  21.232  0.00  0.00    +0.000 N 
ATOM     19  H   UNL     1       0.495   8.292  21.828  0.00  0.00    +0.000 HD
BRANCH  18  20
ATOM     20  C   UNL     1       0.234  10.402  21.902  0.00  0.00    +0.000 C 
ATOM     21  C   UNL     1      -0.940  11.318  21.720  0.00  0.00    +0.000 C 
ATOM     22  C   UNL     1      -0.777  10.563  23.005  0.00  0.00    +0.000 C 
ENDBRANCH  18  20
ENDBRANCH   5  18
TORSDOF 5
ENDMDL
MODEL 3
REMARK VINA RESULT:      -6.5      3.340      4.773
REMARK  Name = 
REMARK  5 active torsions:
REMARK  status: ('A' for Active; 'I' for Inactive)
REMARK    1  A    between atoms: O_1  and  C_2
REMARK    2  A    between atoms: C_2  and  C_3
REMARK    3  A    between atoms: C_6  and  N_7
REMARK    4  A    between atoms: C_11  and  N_12
REMARK    5  A    between atoms: N_12  and  C_13
REMARK                            x       y       z     vdW  Elec       q    Type
REMARK                         _______ _______ _______ _____ _____    ______ ____
ROOT
ATOM      1  N   UNL     1       3.917   4.910  18.241  0.00  0.00    +0.000 N 
ATOM      2  C   UNL     1       3.266   3.908  17.573  0.00  0.00    +0.000 A 
ATOM      3  N   UNL     1       3.934   3.506  16.508  0.00  0.00    +0.000 NA
ATOM      4  C   UNL     1       5.066   4.296  16.487  0.00  0.00    +0.000 A 
ATOM      5  C   UNL     1       6.152   4.316  15.586  0.00  0.00    +0.000 A 
ATOM      6  C   UNL     1       7.153   5.252  15.861  0.00  0.00    +0.000 A 
ATOM      7  C   UNL     1       7.027   6.098  16.966  0.00  0.00    +0.000 A 
ATOM      8  N   UNL     1       5.996   6.114  17.845  0.00  0.00    +0.000 NA
ATOM      9  C   UNL     1       5.064   5.191  17.547  0.00  0.00    +0.000 A 
ENDROOT
BRANCH   1  13
ATOM     10  C   UNL     1       1.717   7.003  19.911  0.00  0.00    +0.000 C 
ATOM     11  C   UNL     1       1.693   5.888  20.943  0.00  0.00    +0.000 C 
ATOM     12  C   UNL     1       2.467   4.795  20.255  0.00  0.00    +0.000 C 
ATOM     13  C   UNL     1       3.514   5.567  19.467  0.00  0.00    +0.000 C 
ATOM     14  O   UNL     1       2.947   6.865  19.176  0.00  0.00    +0.000 OA
BRANCH  10  15
ATOM     15  C   UNL     1       1.627   8.393  20.537  0.00  0.00    +0.000 C 
BRANCH  15  16
ATOM     16  O   UNL     1       1.746   8.315  21.952  0.00  0.00    +0.000 OA
ATOM     17  H   UNL     1       1.314   7.488  22.228  0.00  0.00    +0.000 HD
ENDBRANCH  15  16
ENDBRANCH  10  15
ENDBRANCH   1  13
BRANCH   5  18
ATOM     18  N   UNL     1       6.220   3.404  14.512  0.00  0.00    +0.000 N 
ATOM     19  H   UNL     1       5.613   2.608  14.726  0.00  0.00    +0.000 HD
BRANCH  18  20
ATOM     20  C   UNL     1       6.234   3.865  13.125  0.00  0.00    +0.000 C 
ATOM     21  C   UNL     1       6.515   2.943  11.975  0.00  0.00    +0.000 C 
ATOM     22  C   UNL     1       5.117   3.426  12.217  0.00  0.00    +0.000 C 
ENDBRANCH  18  20
ENDBRANCH   5  18
TORSDOF 5
ENDMDL
MODEL 4
REMARK VINA RESULT:      -6.3      3.901      6.789
REMARK  Name = 
REMARK  5 active torsions:
REMARK  status: ('A' for Active; 'I' for Inactive)
REMARK    1  A    between atoms: O_1  and  C_2
REMARK    2  A    between atoms: C_2  and  C_3
REMARK    3  A    between atoms: C_6  and  N_7
REMARK    4  A    between atoms: C_11  and  N_12
REMARK    5  A    between atoms: N_12  and  C_13
REMARK                            x       y       z     vdW  Elec       q    Type
REMARK                         _______ _______ _______ _____ _____    ______ ____
ROOT
ATOM      1  N   UNL     1       4.935   5.058  16.563  0.00  0.00    +0.000 N 
ATOM      2  C   UNL     1       5.127   3.931  17.315  0.00  0.00    +0.000 A 
ATOM      3  N   UNL     1       4.512   4.002  18.481  0.00  0.00    +0.000 NA
ATOM      4  C   UNL     1       3.902   5.240  18.479  0.00  0.00    +0.000 A 
ATOM      5  C   UNL     1       3.098   5.866  19.455  0.00  0.00    +0.000 A 
ATOM      6  C   UNL     1       2.628   7.142  19.129  0.00  0.00    +0.000 A 
ATOM      7  C   UNL     1       2.974   7.717  17.903  0.00  0.00    +0.000 A 
ATOM      8  N   UNL     1       3.751   7.151  16.948  0.00  0.00    +0.000 NA
ATOM      9  C   UNL     1       4.171   5.922  17.301  0.00  0.00    +0.000 A 
ENDROOT
BRANCH   1  13
ATOM     10  C   UNL     1       7.476   4.839  14.215  0.00  0.00    +0.000 C 
ATOM     11  C   UNL     1       6.376   4.312  13.311  0.00  0.00    +0.000 C 
ATOM     12  C   UNL     1       5.220   4.159  14.264  0.00  0.00    +0.000 C 
ATOM     13  C   UNL     1       5.417   5.324  15.223  0.00  0.00    +0.000 C 
ATOM     14  O   UNL     1       6.834   5.611  15.247  0.00  0.00    +0.000 OA
BRANCH  10  15
ATOM     15  C   UNL     1       8.496   5.698  13.470  0.00  0.00    +0.000 C 
BRANCH  15  16
ATOM     16  O   UNL     1       8.023   6.023  12.170  0.00  0.00    +0.000 OA
ATOM     17  H   UNL     1       7.100   5.723  12.119  0.00  0.00    +0.000 HD
ENDBRANCH  15  16
ENDBRANCH  10  15
ENDBRANCH   1  13
BRANCH   5  18
ATOM     18  N   UNL     1       2.766   5.203  20.655  0.00  0.00    +0.000 N 
ATOM     19  H   UNL     1       3.081   5.781  21.440  0.00  0.00    +0.000 HD
BRANCH  18  20
ATOM     20  C   UNL     1       1.485   4.520  20.816  0.00  0.00    +0.000 C 
ATOM     21  C   UNL     1       1.019   3.452  19.870  0.00  0.00    +0.000 C 
ATOM     22  C   UNL     1       1.495   3.076  21.241  0.00  0.00    +0.000 C 
ENDBRANCH  18  20
ENDBRANCH   5  18
TORSDOF 5
ENDMDL
MODEL 5
REMARK VINA RESULT:      -6.3      3.490      6.004
REMARK  Name = 
REMARK  5 active torsions:
REMARK  status: ('A' for Active; 'I' for Inactive)
REMARK    1  A    between atoms: O_1  and  C_2
REMARK    2  A    between atoms: C_2  and  C_3
REMARK    3  A    between atoms: C_6  and  N_7
REMARK    4  A    between atoms: C_11  and  N_12
REMARK    5  A    between atoms: N_12  and  C_13
REMARK                            x       y       z     vdW  Elec       q    Type
REMARK                         _______ _______ _______ _____ _____    ______ ____
ROOT
ATOM      1  N   UNL     1       4.164   5.284  17.914  0.00  0.00    +0.000 N 
ATOM      2  C   UNL     1       3.752   6.572  17.700  0.00  0.00    +0.000 A 
ATOM      3  N   UNL     1       2.850   6.957  18.583  0.00  0.00    +0.000 NA
ATOM      4  C   UNL     1       2.668   5.858  19.399  0.00  0.00    +0.000 A 
ATOM      5  C   UNL     1       1.832   5.679  20.521  0.00  0.00    +0.000 A 
ATOM      6  C   UNL     1       1.895   4.422  21.131  0.00  0.00    +0.000 A 
ATOM      7  C   UNL     1       2.741   3.439  20.612  0.00  0.00    +0.000 A 
ATOM      8  N   UNL     1       3.549   3.572  19.532  0.00  0.00    +0.000 NA
ATOM      9  C   UNL     1       3.463   4.799  18.985  0.00  0.00    +0.000 A 
ENDROOT
BRANCH   1  13
ATOM     10  C   UNL     1       6.624   5.212  15.473  0.00  0.00    +0.000 C 
ATOM     11  C   UNL     1       7.448   4.529  16.551  0.00  0.00    +0.000 C 
ATOM     12  C   UNL     1       6.565   4.662  17.764  0.00  0.00    +0.000 C 
ATOM     13  C   UNL     1       5.166   4.539  17.179  0.00  0.00    +0.000 C 
ATOM     14  O   UNL     1       5.240   5.010  15.814  0.00  0.00    +0.000 OA
BRANCH  10  15
ATOM     15  C   UNL     1       6.909   4.667  14.075  0.00  0.00    +0.000 C 
BRANCH  15  16
ATOM     16  O   UNL     1       6.329   3.380  13.910  0.00  0.00    +0.000 OA
ATOM     17  H   UNL     1       5.588   3.479  13.287  0.00  0.00    +0.000 HD
ENDBRANCH  15  16
ENDBRANCH  10  15
ENDBRANCH   1  13
BRANCH   5  18
ATOM     18  N   UNL     1       1.030   6.734  21.003  0.00  0.00    +0.000 N 
ATOM     19  H   UNL     1       0.477   6.384  21.791  0.00  0.00    +0.000 HD
BRANCH  18  20
ATOM     20  C   UNL     1       1.552   8.093  21.121  0.00  0.00    +0.000 C 
ATOM     21  C   UNL     1       0.794   9.290  20.629  0.00  0.00    +0.000 C 
ATOM     22  C   UNL     1       0.896   9.027  22.101  0.00  0.00    +0.000 C 
ENDBRANCH  18  20
ENDBRANCH   5  18
TORSDOF 5
ENDMDL
MODEL 6
REMARK VINA RESULT:      -6.2      5.239      7.445
REMARK  Name = 
REMARK  5 active torsions:
REMARK  status: ('A' for Active; 'I' for Inactive)
REMARK    1  A    between atoms: O_1  and  C_2
REMARK    2  A    between atoms: C_2  and  C_3
REMARK    3  A    between atoms: C_6  and  N_7
REMARK    4  A    between atoms: C_11  and  N_12
REMARK    5  A    between atoms: N_12  and  C_13
REMARK                            x       y       z     vdW  Elec       q    Type
REMARK                         _______ _______ _______ _____ _____    ______ ____
ROOT
ATOM      1  N   UNL     1       1.235   9.029  19.710  0.00  0.00    +0.000 N 
ATOM      2  C   UNL     1       0.923   8.514  20.940  0.00  0.00    +0.000 A 
ATOM      3  N   UNL     1       1.487   7.338  21.142  0.00  0.00    +0.000 NA
ATOM      4  C   UNL     1       2.188   7.082  19.981  0.00  0.00    +0.000 A 
ATOM      5  C   UNL     1       2.990   5.979  19.620  0.00  0.00    +0.000 A 
ATOM      6  C   UNL     1       3.570   6.039  18.348  0.00  0.00    +0.000 A 
ATOM      7  C   UNL     1       3.325   7.141  17.525  0.00  0.00    +0.000 A 
ATOM      8  N   UNL     1       2.553   8.211  17.834  0.00  0.00    +0.000 NA
ATOM      9  C   UNL     1       2.026   8.114  19.068  0.00  0.00    +0.000 A 
ENDROOT
BRANCH   1  13
ATOM     10  C   UNL     1      -1.260  11.347  19.063  0.00  0.00    +0.000 C 
ATOM     11  C   UNL     1      -0.273  12.335  19.660  0.00  0.00    +0.000 C 
ATOM     12  C   UNL     1       0.813  11.432  20.181  0.00  0.00    +0.000 C 
ATOM     13  C   UNL     1       0.838  10.308  19.156  0.00  0.00    +0.000 C 
ATOM     14  O   UNL     1      -0.493  10.220  18.598  0.00  0.00    +0.000 OA
BRANCH  10  15
ATOM     15  C   UNL     1      -2.075  11.941  17.916  0.00  0.00    +0.000 C 
BRANCH  15  16
ATOM     16  O   UNL     1      -1.239  12.684  17.038  0.00  0.00    +0.000 OA
ATOM     17  H   UNL     1      -0.357  12.719  17.447  0.00  0.00    +0.000 HD
ENDBRANCH  15  16
ENDBRANCH  10  15
ENDBRANCH   1  13
BRANCH   5  18
ATOM     18  N   UNL     1       3.215   4.919  20.522  0.00  0.00    +0.000 N 
ATOM     19  H   UNL     1       4.028   5.153  21.098  0.00  0.00    +0.000 HD
BRANCH  18  20
ATOM     20  C   UNL     1       2.106   4.247  21.195  0.00  0.00    +0.000 C 
ATOM     21  C   UNL     1       1.182   3.307  20.479  0.00  0.00    +0.000 C 
ATOM     22  C   UNL     1       2.207   2.763  21.428  0.00  0.00    +0.000 C 
ENDBRANCH  18  20
ENDBRANCH   5  18
TORSDOF 5
ENDMDL
MODEL 7
REMARK VINA RESULT:      -6.2      4.516      5.881
REMARK  Name = 
REMARK  5 active torsions:
REMARK  status: ('A' for Active; 'I' for Inactive)
REMARK    1  A    between atoms: O_1  and  C_2
REMARK    2  A    between atoms: C_2  and  C_3
REMARK    3  A    between atoms: C_6  and  N_7
REMARK    4  A    between atoms: C_11  and  N_12
REMARK    5  A    between atoms: N_12  and  C_13
REMARK                            x       y       z     vdW  Elec       q    Type
REMARK                         _______ _______ _______ _____ _____    ______ ____
ROOT
ATOM      1  N   UNL     1       2.815   6.812  18.903  0.00  0.00    +0.000 N 
ATOM      2  C   UNL     1       3.045   7.420  17.698  0.00  0.00    +0.000 A 
ATOM      3  N   UNL     1       2.450   8.595  17.614  0.00  0.00    +0.000 NA
ATOM      4  C   UNL     1       1.799   8.744  18.822  0.00  0.00    +0.000 A 
ATOM      5  C   UNL     1       1.005   9.804  19.310  0.00  0.00    +0.000 A 
ATOM      6  C   UNL     1       0.491   9.634  20.599  0.00  0.00    +0.000 A 
ATOM      7  C   UNL     1       0.768   8.463  21.309  0.00  0.00    +0.000 A 
ATOM      8  N   UNL     1       1.515   7.422  20.869  0.00  0.00    +0.000 NA
ATOM      9  C   UNL     1       1.997   7.634  19.630  0.00  0.00    +0.000 A 
ENDROOT
BRANCH   1  13
ATOM     10  C   UNL     1       3.635   3.508  18.247  0.00  0.00    +0.000 C 
ATOM     11  C   UNL     1       4.946   3.868  18.926  0.00  0.00    +0.000 C 
ATOM     12  C   UNL     1       4.820   5.358  19.101  0.00  0.00    +0.000 C 
ATOM     13  C   UNL     1       3.334   5.543  19.370  0.00  0.00    +0.000 C 
ATOM     14  O   UNL     1       2.651   4.449  18.714  0.00  0.00    +0.000 OA
BRANCH  10  15
ATOM     15  C   UNL     1       3.184   2.080  18.546  0.00  0.00    +0.000 C 
BRANCH  15  16
ATOM     16  O   UNL     1       4.305   1.213  18.659  0.00  0.00    +0.000 OA
ATOM     17  H   UNL     1       4.249   0.578  17.925  0.00  0.00    +0.000 HD
ENDBRANCH  15  16
ENDBRANCH  10  15
ENDBRANCH   1  13
BRANCH   5  18
ATOM     18  N   UNL     1       0.800  10.969  18.543  0.00  0.00    +0.000 N 
ATOM     19  H   UNL     1       0.797  10.707  17.553  0.00  0.00    +0.000 HD
BRANCH  18  20
ATOM     20  C   UNL     1      -0.160  11.990  18.954  0.00  0.00    +0.000 C 
ATOM     21  C   UNL     1      -0.324  13.284  18.213  0.00  0.00    +0.000 C 
ATOM     22  C   UNL     1      -1.372  12.218  18.091  0.00  0.00    +0.000 C 
ENDBRANCH  18  20
ENDBRANCH   5  18
TORSDOF 5
ENDMDL
MODEL 8
REMARK VINA RESULT:      -6.2      3.717      6.126
REMARK  Name = 
REMARK  5 active torsions:
REMARK  status: ('A' for Active; 'I' for Inactive)
REMARK    1  A    between atoms: O_1  and  C_2
REMARK    2  A    between atoms: C_2  and  C_3
REMARK    3  A    between atoms: C_6  and  N_7
REMARK    4  A    between atoms: C_11  and  N_12
REMARK    5  A    between atoms: N_12  and  C_13
REMARK                            x       y       z     vdW  Elec       q    Type
REMARK                         _______ _______ _______ _____ _____    ______ ____
ROOT
ATOM      1  N   UNL     1       4.083   6.046  17.591  0.00  0.00    +0.000 N 
ATOM      2  C   UNL     1       3.920   7.349  17.207  0.00  0.00    +0.000 A 
ATOM      3  N   UNL     1       3.104   8.005  18.011  0.00  0.00    +0.000 NA
ATOM      4  C   UNL     1       2.718   7.073  18.952  0.00  0.00    +0.000 A 
ATOM      5  C   UNL     1       1.859   7.198  20.065  0.00  0.00    +0.000 A 
ATOM      6  C   UNL     1       1.683   6.040  20.830  0.00  0.00    +0.000 A 
ATOM      7  C   UNL     1       2.332   4.859  20.461  0.00  0.00    +0.000 A 
ATOM      8  N   UNL     1       3.153   4.700  19.395  0.00  0.00    +0.000 NA
ATOM      9  C   UNL     1       3.301   5.841  18.696  0.00  0.00    +0.000 A 
ENDROOT
BRANCH   1  13
ATOM     10  C   UNL     1       6.645   5.241  15.400  0.00  0.00    +0.000 C 
ATOM     11  C   UNL     1       7.183   4.444  16.576  0.00  0.00    +0.000 C 
ATOM     12  C   UNL     1       6.262   4.856  17.694  0.00  0.00    +0.000 C 
ATOM     13  C   UNL     1       4.930   5.040  16.983  0.00  0.00    +0.000 C 
ATOM     14  O   UNL     1       5.231   5.399  15.615  0.00  0.00    +0.000 OA
BRANCH  10  15
ATOM     15  C   UNL     1       6.904   4.563  14.056  0.00  0.00    +0.000 C 
BRANCH  15  16
ATOM     16  O   UNL     1       6.276   3.289  14.007  0.00  0.00    +0.000 OA
ATOM     17  H   UNL     1       5.579   3.289  14.686  0.00  0.00    +0.000 HD
ENDBRANCH  15  16
ENDBRANCH  10  15
ENDBRANCH   1  13
BRANCH   5  18
ATOM     18  N   UNL     1       1.268   8.436  20.390  0.00  0.00    +0.000 N 
ATOM     19  H   UNL     1       1.027   8.916  19.519  0.00  0.00    +0.000 HD
BRANCH  18  20
ATOM     20  C   UNL     1       0.316   8.557  21.492  0.00  0.00    +0.000 C 
ATOM     21  C   UNL     1       0.627   9.328  22.741  0.00  0.00    +0.000 C 
ATOM     22  C   UNL     1      -0.328   9.896  21.734  0.00  0.00    +0.000 C 
ENDBRANCH  18  20
ENDBRANCH   5  18
TORSDOF 5
ENDMDL
MODEL 9
REMARK VINA RESULT:      -6.2      3.477      5.066
REMARK  Name = 
REMARK  5 active torsions:
REMARK  status: ('A' for Active; 'I' for Inactive)
REMARK    1  A    between atoms: O_1  and  C_2
REMARK    2  A    between atoms: C_2  and  C_3
REMARK    3  A    between atoms: C_6  and  N_7
REMARK    4  A    between atoms: C_11  and  N_12
REMARK    5  A    between atoms: N_12  and  C_13
REMARK                            x       y       z     vdW  Elec       q    Type
REMARK                         _______ _______ _______ _____ _____    ______ ____
ROOT
ATOM      1  N   UNL     1       2.974   6.952  18.020  0.00  0.00    +0.000 N 
ATOM      2  C   UNL     1       4.165   7.487  17.611  0.00  0.00    +0.000 A 
ATOM      3  N   UNL     1       5.028   6.557  17.246  0.00  0.00    +0.000 NA
ATOM      4  C   UNL     1       4.358   5.365  17.438  0.00  0.00    +0.000 A 
ATOM      5  C   UNL     1       4.773   4.036  17.213  0.00  0.00    +0.000 A 
ATOM      6  C   UNL     1       3.832   3.046  17.513  0.00  0.00    +0.000 A 
ATOM      7  C   UNL     1       2.579   3.409  18.014  0.00  0.00    +0.000 A 
ATOM      8  N   UNL     1       2.151   4.672  18.252  0.00  0.00    +0.000 NA
ATOM      9  C   UNL     1       3.084   5.590  17.939  0.00  0.00    +0.000 A 
ENDROOT
BRANCH   1  13
ATOM     10  C   UNL     1       1.450   9.156  20.218  0.00  0.00    +0.000 C 
ATOM     11  C   UNL     1       0.923   9.805  18.949  0.00  0.00    +0.000 C 
ATOM     12  C   UNL     1       1.670   9.062  17.873  0.00  0.00    +0.000 C 
ATOM     13  C   UNL     1       1.783   7.658  18.448  0.00  0.00    +0.000 C 
ATOM     14  O   UNL     1       1.771   7.793  19.888  0.00  0.00    +0.000 OA
BRANCH  10  15
ATOM     15  C   UNL     1       0.445   9.199  21.368  0.00  0.00    +0.000 C 
BRANCH  15  16
ATOM     16  O   UNL     1       0.738  10.274  22.250  0.00  0.00    +0.000 OA
ATOM     17  H   UNL     1       1.155  10.974  21.718  0.00  0.00    +0.000 HD
ENDBRANCH  15  16
ENDBRANCH  10  15
ENDBRANCH   1  13
BRANCH   5  18
ATOM     18  N   UNL     1       6.045   3.754  16.673  0.00  0.00    +0.000 N 
ATOM     19  H   UNL     1       6.499   3.054  17.266  0.00  0.00    +0.000 HD
BRANCH  18  20
ATOM     20  C   UNL     1       6.247   3.625  15.232  0.00  0.00    +0.000 C 
ATOM     21  C   UNL     1       5.470   4.435  14.236  0.00  0.00    +0.000 C 
ATOM     22  C   UNL     1       6.910   4.761  14.500  0.00  0.00    +0.000 C 
ENDBRANCH  18  20
ENDBRANCH   5  18
TORSDOF 5
ENDMDL
