MODEL 1
REMARK VINA RESULT:      -8.6      0.000      0.000
REMARK  Name = 
REMARK  6 active torsions:
REMARK  status: ('A' for Active; 'I' for Inactive)
REMARK    1  A    between atoms: C_1  and  C_2
REMARK    2  A    between atoms: C_5  and  C_6
REMARK    3  A    between atoms: C_9  and  O_10
REMARK    4  A    between atoms: O_10  and  C_11
REMARK    5  A    between atoms: C_17  and  N_18
REMARK    6  A    between atoms: N_18  and  C_19
REMARK                            x       y       z     vdW  Elec       q    Type
REMARK                         _______ _______ _______ _____ _____    ______ ____
ROOT
ATOM      1  C   UNL     1       0.299   9.871  20.317  0.00  0.00    +0.000 C 
ATOM      2  C   UNL     1       1.258   8.969  19.620  0.00  0.00    +0.000 A 
ATOM      3  N   UNL     1       1.709   9.338  18.409  0.00  0.00    +0.000 NA
ATOM      4  C   UNL     1       2.534   8.470  17.821  0.00  0.00    +0.000 A 
ATOM      5  C   UNL     1       2.941   7.242  18.359  0.00  0.00    +0.000 A 
ATOM      6  C   UNL     1       2.435   6.977  19.643  0.00  0.00    +0.000 A 
ATOM      7  N   UNL     1       1.601   7.825  20.251  0.00  0.00    +0.000 NA
ENDROOT
BRANCH   5   8
ATOM      8  C   UNL     1       3.787   6.348  17.571  0.00  0.00    +0.000 A 
ATOM      9  C   UNL     1       4.939   6.790  16.899  0.00  0.00    +0.000 A 
ATOM     10  C   UNL     1       5.725   5.927  16.159  0.00  0.00    +0.000 A 
ATOM     11  C   UNL     1       5.408   4.573  16.068  0.00  0.00    +0.000 A 
ATOM     12  C   UNL     1       4.248   4.120  16.707  0.00  0.00    +0.000 A 
ATOM     13  C   UNL     1       3.464   4.983  17.450  0.00  0.00    +0.000 A 
BRANCH  11  14
ATOM     14  O   UNL     1       6.246   3.819  15.319  0.00  0.00    +0.000 OA
BRANCH  14  15
ATOM     15  C   UNL     1       6.234   4.038  13.912  0.00  0.00    +0.000 C 
ATOM     16  F   UNL     1       7.080   4.995  13.487  0.00  0.00    +0.000 F 
ATOM     17  F   UNL     1       6.541   2.884  13.276  0.00  0.00    +0.000 F 
ATOM     18  F   UNL     1       4.987   4.413  13.535  0.00  0.00    +0.000 F 
ENDBRANCH  14  15
ENDBRANCH  11  14
ENDBRANCH   5   8
BRANCH   6  19
ATOM     19  N   UNL     1       2.895   5.847  20.352  0.00  0.00    +0.000 N 
ATOM     20  H   UNL     1       3.670   5.407  19.868  0.00  0.00    +0.000 HD
BRANCH  19  21
ATOM     21  C   UNL     1       1.952   4.862  20.859  0.00  0.00    +0.000 C 
ATOM     22  C   UNL     1       1.216   4.149  19.716  0.00  0.00    +0.000 C 
ATOM     23  C   UNL     1       0.623   2.920  20.394  0.00  0.00    +0.000 C 
ATOM     24  C   UNL     1       1.572   2.571  21.540  0.00  0.00    +0.000 C 
ATOM     25  C   UNL     1       2.580   3.713  21.646  0.00  0.00    +0.000 C 
ENDBRANCH  19  21
ENDBRANCH   6  19
TORSDOF 5
ENDMDL
MODEL 2
REMARK VINA RESULT:      -8.2      4.947      6.779
REMARK  Name = 
REMARK  6 active torsions:
REMARK  status: ('A' for Active; 'I' for Inactive)
REMARK    1  A    between atoms: C_1  and  C_2
REMARK    2  A    between atoms: C_5  and  C_6
REMARK    3  A    between atoms: C_9  and  O_10
REMARK    4  A    between atoms: O_10  and  C_11
REMARK    5  A    between atoms: C_17  and  N_18
REMARK    6  A    between atoms: N_18  and  C_19
REMARK                            x       y       z     vdW  Elec       q    Type
REMARK                         _______ _______ _______ _____ _____    ______ ____
ROOT
ATOM      1  C   UNL     1       6.217   3.858  15.638  0.00  0.00    +0.000 C 
ATOM      2  C   UNL     1       5.261   4.747  16.355  0.00  0.00    +0.000 A 
ATOM      3  N   UNL     1       5.576   6.047  16.478  0.00  0.00    +0.000 NA
ATOM      4  C   UNL     1       4.699   6.782  17.164  0.00  0.00    +0.000 A 
ATOM      5  C   UNL     1       3.518   6.305  17.748  0.00  0.00    +0.000 A 
ATOM      6  C   UNL     1       3.274   4.939  17.525  0.00  0.00    +0.000 A 
ATOM      7  N   UNL     1       4.140   4.179  16.849  0.00  0.00    +0.000 NA
ENDROOT
BRANCH   5   8
ATOM      8  C   UNL     1       2.684   7.205  18.542  0.00  0.00    +0.000 A 
ATOM      9  C   UNL     1       2.134   8.388  18.021  0.00  0.00    +0.000 A 
ATOM     10  C   UNL     1       1.348   9.225  18.790  0.00  0.00    +0.000 A 
ATOM     11  C   UNL     1       1.059   8.911  20.116  0.00  0.00    +0.000 A 
ATOM     12  C   UNL     1       1.621   7.752  20.662  0.00  0.00    +0.000 A 
ATOM     13  C   UNL     1       2.404   6.914  19.891  0.00  0.00    +0.000 A 
BRANCH  11  14
ATOM     14  O   UNL     1       0.279   9.800  20.777  0.00  0.00    +0.000 OA
BRANCH  14  15
ATOM     15  C   UNL     1       0.067   9.570  22.166  0.00  0.00    +0.000 C 
ATOM     16  F   UNL     1      -0.473  10.610  22.829  0.00  0.00    +0.000 F 
ATOM     17  F   UNL     1      -0.742   8.497  22.324  0.00  0.00    +0.000 F 
ATOM     18  F   UNL     1       1.256   9.297  22.755  0.00  0.00    +0.000 F 
ENDBRANCH  14  15
ENDBRANCH  11  14
ENDBRANCH   5   8
BRANCH   6  19
ATOM     19  N   UNL     1       2.044   4.378  17.929  0.00  0.00    +0.000 N 
ATOM     20  H   UNL     1       1.340   5.097  18.050  0.00  0.00    +0.000 HD
BRANCH  19  21
ATOM     21  C   UNL     1       2.000   3.399  19.005  0.00  0.00    +0.000 C 
ATOM     22  C   UNL     1       3.254   3.476  19.886  0.00  0.00    +0.000 C 
ATOM     23  C   UNL     1       2.849   2.716  21.142  0.00  0.00    +0.000 C 
ATOM     24  C   UNL     1       1.338   2.905  21.281  0.00  0.00    +0.000 C 
ATOM     25  C   UNL     1       0.857   3.588  20.002  0.00  0.00    +0.000 C 
ENDBRANCH  19  21
ENDBRANCH   6  19
TORSDOF 5
ENDMDL
MODEL 3
REMARK VINA RESULT:      -8.0      4.715      6.620
REMARK  Name = 
REMARK  6 active torsions:
REMARK  status: ('A' for Active; 'I' for Inactive)
REMARK    1  A    between atoms: C_1  and  C_2
REMARK    2  A    between atoms: C_5  and  C_6
REMARK    3  A    between atoms: C_9  and  O_10
REMARK    4  A    between atoms: O_10  and  C_11
REMARK    5  A    between atoms: C_17  and  N_18
REMARK    6  A    between atoms: N_18  and  C_19
REMARK                            x       y       z     vdW  Elec       q    Type
REMARK                         _______ _______ _______ _____ _____    ______ ____
ROOT
ATOM      1  C   UNL     1       6.057   3.711  15.729  0.00  0.00    +0.000 C 
ATOM      2  C   UNL     1       5.141   4.679  16.394  0.00  0.00    +0.000 A 
ATOM      3  N   UNL     1       5.491   5.976  16.408  0.00  0.00    +0.000 NA
ATOM      4  C   UNL     1       4.649   6.786  17.052  0.00  0.00    +0.000 A 
ATOM      5  C   UNL     1       3.470   6.387  17.696  0.00  0.00    +0.000 A 
ATOM      6  C   UNL     1       3.187   5.015  17.588  0.00  0.00    +0.000 A 
ATOM      7  N   UNL     1       4.017   4.181  16.955  0.00  0.00    +0.000 NA
ENDROOT
BRANCH   5   8
ATOM      8  C   UNL     1       2.678   7.368  18.434  0.00  0.00    +0.000 A 
ATOM      9  C   UNL     1       2.267   8.589  17.873  0.00  0.00    +0.000 A 
ATOM     10  C   UNL     1       1.518   9.503  18.590  0.00  0.00    +0.000 A 
ATOM     11  C   UNL     1       1.128   9.234  19.900  0.00  0.00    +0.000 A 
ATOM     12  C   UNL     1       1.551   8.037  20.486  0.00  0.00    +0.000 A 
ATOM     13  C   UNL     1       2.297   7.121  19.767  0.00  0.00    +0.000 A 
BRANCH  11  14
ATOM     14  O   UNL     1       0.395  10.198  20.508  0.00  0.00    +0.000 OA
BRANCH  14  15
ATOM     15  C   UNL     1      -0.730  10.704  19.796  0.00  0.00    +0.000 C 
ATOM     16  F   UNL     1      -1.390   9.785  19.066  0.00  0.00    +0.000 F 
ATOM     17  F   UNL     1      -1.601  11.259  20.671  0.00  0.00    +0.000 F 
ATOM     18  F   UNL     1      -0.314  11.668  18.940  0.00  0.00    +0.000 F 
ENDBRANCH  14  15
ENDBRANCH  11  14
ENDBRANCH   5   8
BRANCH   6  19
ATOM     19  N   UNL     1       1.954   4.520  18.061  0.00  0.00    +0.000 N 
ATOM     20  H   UNL     1       1.307   5.279  18.249  0.00  0.00    +0.000 HD
BRANCH  19  21
ATOM     21  C   UNL     1       1.918   3.514  19.111  0.00  0.00    +0.000 C 
ATOM     22  C   UNL     1       3.189   3.554  19.970  0.00  0.00    +0.000 C 
ATOM     23  C   UNL     1       2.799   2.764  21.213  0.00  0.00    +0.000 C 
ATOM     24  C   UNL     1       1.293   2.965  21.384  0.00  0.00    +0.000 C 
ATOM     25  C   UNL     1       0.796   3.687  20.134  0.00  0.00    +0.000 C 
ENDBRANCH  19  21
ENDBRANCH   6  19
TORSDOF 5
ENDMDL
MODEL 4
REMARK VINA RESULT:      -8.0      4.945      6.835
REMARK  Name = 
REMARK  6 active torsions:
REMARK  status: ('A' for Active; 'I' for Inactive)
REMARK    1  A    between atoms: C_1  and  C_2
REMARK    2  A    between atoms: C_5  and  C_6
REMARK    3  A    between atoms: C_9  and  O_10
REMARK    4  A    between atoms: O_10  and  C_11
REMARK    5  A    between atoms: C_17  and  N_18
REMARK    6  A    between atoms: N_18  and  C_19
REMARK                            x       y       z     vdW  Elec       q    Type
REMARK                         _______ _______ _______ _____ _____    ______ ____
ROOT
ATOM      1  C   UNL     1       6.164   4.060  15.793  0.00  0.00    +0.000 C 
ATOM      2  C   UNL     1       5.183   4.951  16.473  0.00  0.00    +0.000 A 
ATOM      3  N   UNL     1       5.478   6.257  16.576  0.00  0.00    +0.000 NA
ATOM      4  C   UNL     1       4.579   6.995  17.230  0.00  0.00    +0.000 A 
ATOM      5  C   UNL     1       3.394   6.514  17.800  0.00  0.00    +0.000 A 
ATOM      6  C   UNL     1       3.171   5.140  17.601  0.00  0.00    +0.000 A 
ATOM      7  N   UNL     1       4.059   4.378  16.957  0.00  0.00    +0.000 NA
ENDROOT
BRANCH   5   8
ATOM      8  C   UNL     1       2.533   7.418  18.560  0.00  0.00    +0.000 A 
ATOM      9  C   UNL     1       2.239   7.222  19.920  0.00  0.00    +0.000 A 
ATOM     10  C   UNL     1       1.422   8.090  20.619  0.00  0.00    +0.000 A 
ATOM     11  C   UNL     1       0.870   9.208  19.997  0.00  0.00    +0.000 A 
ATOM     12  C   UNL     1       1.128   9.404  18.636  0.00  0.00    +0.000 A 
ATOM     13  C   UNL     1       1.949   8.538  17.938  0.00  0.00    +0.000 A 
BRANCH  11  14
ATOM     14  O   UNL     1       0.086   9.991  20.776  0.00  0.00    +0.000 OA
BRANCH  14  15
ATOM     15  C   UNL     1       0.077   9.715  22.173  0.00  0.00    +0.000 C 
ATOM     16  F   UNL     1       1.279   9.396  22.688  0.00  0.00    +0.000 F 
ATOM     17  F   UNL     1      -0.402  10.790  22.840  0.00  0.00    +0.000 F 
ATOM     18  F   UNL     1      -0.748   8.666  22.409  0.00  0.00    +0.000 F 
ENDBRANCH  14  15
ENDBRANCH  11  14
ENDBRANCH   5   8
BRANCH   6  19
ATOM     19  N   UNL     1       1.941   4.571  17.993  0.00  0.00    +0.000 N 
ATOM     20  H   UNL     1       1.233   5.287  18.111  0.00  0.00    +0.000 HD
BRANCH  19  21
ATOM     21  C   UNL     1       1.893   3.588  19.064  0.00  0.00    +0.000 C 
ATOM     22  C   UNL     1       3.151   3.651  19.942  0.00  0.00    +0.000 C 
ATOM     23  C   UNL     1       2.744   2.887  21.195  0.00  0.00    +0.000 C 
ATOM     24  C   UNL     1       1.235   3.087  21.339  0.00  0.00    +0.000 C 
ATOM     25  C   UNL     1       0.754   3.779  20.066  0.00  0.00    +0.000 C 
ENDBRANCH  19  21
ENDBRANCH   6  19
TORSDOF 5
ENDMDL
MODEL 5
REMARK VINA RESULT:      -7.9      0.869      1.161
REMARK  Name = 
REMARK  6 active torsions:
REMARK  status: ('A' for Active; 'I' for Inactive)
REMARK    1  A    between atoms: C_1  and  C_2
REMARK    2  A    between atoms: C_5  and  C_6
REMARK    3  A    between atoms: C_9  and  O_10
REMARK    4  A    between atoms: O_10  and  C_11
REMARK    5  A    between atoms: C_17  and  N_18
REMARK    6  A    between atoms: N_18  and  C_19
REMARK                            x       y       z     vdW  Elec       q    Type
REMARK                         _______ _______ _______ _____ _____    ______ ____
ROOT
ATOM      1  C   UNL     1       0.731   9.087  20.601  0.00  0.00    +0.000 C 
ATOM      2  C   UNL     1       1.664   8.298  19.749  0.00  0.00    +0.000 A 
ATOM      3  N   UNL     1       1.966   8.774  18.530  0.00  0.00    +0.000 NA
ATOM      4  C   UNL     1       2.775   8.002  17.802  0.00  0.00    +0.000 A 
ATOM      5  C   UNL     1       3.304   6.770  18.207  0.00  0.00    +0.000 A 
ATOM      6  C   UNL     1       2.949   6.388  19.512  0.00  0.00    +0.000 A 
ATOM      7  N   UNL     1       2.136   7.139  20.259  0.00  0.00    +0.000 NA
ENDROOT
BRANCH   5   8
ATOM      8  C   UNL     1       4.116   5.987  17.277  0.00  0.00    +0.000 A 
ATOM      9  C   UNL     1       5.126   6.558  16.484  0.00  0.00    +0.000 A 
ATOM     10  C   UNL     1       5.881   5.798  15.611  0.00  0.00    +0.000 A 
ATOM     11  C   UNL     1       5.675   4.425  15.499  0.00  0.00    +0.000 A 
ATOM     12  C   UNL     1       4.654   3.843  16.258  0.00  0.00    +0.000 A 
ATOM     13  C   UNL     1       3.902   4.603  17.134  0.00  0.00    +0.000 A 
BRANCH  11  14
ATOM     14  O   UNL     1       6.471   3.778  14.614  0.00  0.00    +0.000 OA
BRANCH  14  15
ATOM     15  C   UNL     1       6.069   3.793  13.248  0.00  0.00    +0.000 C 
ATOM     16  F   UNL     1       4.767   4.070  13.051  0.00  0.00    +0.000 F 
ATOM     17  F   UNL     1       6.806   4.706  12.574  0.00  0.00    +0.000 F 
ATOM     18  F   UNL     1       6.303   2.573  12.707  0.00  0.00    +0.000 F 
ENDBRANCH  14  15
ENDBRANCH  11  14
ENDBRANCH   5   8
BRANCH   6  19
ATOM     19  N   UNL     1       3.544   5.246  20.088  0.00  0.00    +0.000 N 
ATOM     20  H   UNL     1       4.340   4.937  19.540  0.00  0.00    +0.000 HD
BRANCH  19  21
ATOM     21  C   UNL     1       2.722   4.125  20.518  0.00  0.00    +0.000 C 
ATOM     22  C   UNL     1       1.289   4.241  19.980  0.00  0.00    +0.000 C 
ATOM     23  C   UNL     1       0.730   2.836  20.164  0.00  0.00    +0.000 C 
ATOM     24  C   UNL     1       1.924   1.889  20.050  0.00  0.00    +0.000 C 
ATOM     25  C   UNL     1       3.179   2.758  20.013  0.00  0.00    +0.000 C 
ENDBRANCH  19  21
ENDBRANCH   6  19
TORSDOF 5
ENDMDL
MODEL 6
REMARK VINA RESULT:      -7.9      0.622      1.407
REMARK  Name = 
REMARK  6 active torsions:
REMARK  status: ('A' for Active; 'I' for Inactive)
REMARK    1  A    between atoms: C_1  and  C_2
REMARK    2  A    between atoms: C_5  and  C_6
REMARK    3  A    between atoms: C_9  and  O_10
REMARK    4  A    between atoms: O_10  and  C_11
REMARK    5  A    between atoms: C_17  and  N_18
REMARK    6  A    between atoms: N_18  and  C_19
REMARK                            x       y       z     vdW  Elec       q    Type
REMARK                         _______ _______ _______ _____ _____    ______ ____
ROOT
ATOM      1  C   UNL     1       0.574   9.631  20.209  0.00  0.00    +0.000 C 
ATOM      2  C   UNL     1       1.529   8.763  19.464  0.00  0.00    +0.000 A 
ATOM      3  N   UNL     1       1.983   9.195  18.276  0.00  0.00    +0.000 NA
ATOM      4  C   UNL     1       2.804   8.356  17.642  0.00  0.00    +0.000 A 
ATOM      5  C   UNL     1       3.203   7.098  18.112  0.00  0.00    +0.000 A 
ATOM      6  C   UNL     1       2.695   6.766  19.379  0.00  0.00    +0.000 A 
ATOM      7  N   UNL     1       1.866   7.584  20.032  0.00  0.00    +0.000 NA
ENDROOT
BRANCH   5   8
ATOM      8  C   UNL     1       4.045   6.243  17.277  0.00  0.00    +0.000 A 
ATOM      9  C   UNL     1       3.738   4.897  17.017  0.00  0.00    +0.000 A 
ATOM     10  C   UNL     1       4.549   4.107  16.225  0.00  0.00    +0.000 A 
ATOM     11  C   UNL     1       5.701   4.628  15.639  0.00  0.00    +0.000 A 
ATOM     12  C   UNL     1       6.039   5.959  15.910  0.00  0.00    +0.000 A 
ATOM     13  C   UNL     1       5.225   6.750  16.699  0.00  0.00    +0.000 A 
BRANCH  11  14
ATOM     14  O   UNL     1       6.421   3.766  14.882  0.00  0.00    +0.000 OA
BRANCH  14  15
ATOM     15  C   UNL     1       6.202   3.800  13.475  0.00  0.00    +0.000 C 
ATOM     16  F   UNL     1       6.285   2.602  12.867  0.00  0.00    +0.000 F 
ATOM     17  F   UNL     1       4.979   4.323  13.224  0.00  0.00    +0.000 F 
ATOM     18  F   UNL     1       7.133   4.602  12.903  0.00  0.00    +0.000 F 
ENDBRANCH  14  15
ENDBRANCH  11  14
ENDBRANCH   5   8
BRANCH   6  19
ATOM     19  N   UNL     1       3.148   5.597  20.025  0.00  0.00    +0.000 N 
ATOM     20  H   UNL     1       4.007   5.260  19.604  0.00  0.00    +0.000 HD
BRANCH  19  21
ATOM     21  C   UNL     1       2.226   4.506  20.307  0.00  0.00    +0.000 C 
ATOM     22  C   UNL     1       2.544   3.269  19.456  0.00  0.00    +0.000 C 
ATOM     23  C   UNL     1       1.788   2.152  20.164  0.00  0.00    +0.000 C 
ATOM     24  C   UNL     1       1.739   2.546  21.640  0.00  0.00    +0.000 C 
ATOM     25  C   UNL     1       2.275   3.972  21.738  0.00  0.00    +0.000 C 
ENDBRANCH  19  21
ENDBRANCH   6  19
TORSDOF 5
ENDMDL
MODEL 7
REMARK VINA RESULT:      -7.8      4.489      7.087
REMARK  Name = 
REMARK  6 active torsions:
REMARK  status: ('A' for Active; 'I' for Inactive)
REMARK    1  A    between atoms: C_1  and  C_2
REMARK    2  A    between atoms: C_5  and  C_6
REMARK    3  A    between atoms: C_9  and  O_10
REMARK    4  A    between atoms: O_10  and  C_11
REMARK    5  A    between atoms: C_17  and  N_18
REMARK    6  A    between atoms: N_18  and  C_19
REMARK                            x       y       z     vdW  Elec       q    Type
REMARK                         _______ _______ _______ _____ _____    ______ ____
ROOT
ATOM      1  C   UNL     1       7.566   5.191  12.830  0.00  0.00    +0.000 C 
ATOM      2  C   UNL     1       6.699   4.823  13.984  0.00  0.00    +0.000 A 
ATOM      3  N   UNL     1       6.357   3.533  14.135  0.00  0.00    +0.000 NA
ATOM      4  C   UNL     1       5.548   3.274  15.163  0.00  0.00    +0.000 A 
ATOM      5  C   UNL     1       5.044   4.225  16.060  0.00  0.00    +0.000 A 
ATOM      6  C   UNL     1       5.495   5.536  15.828  0.00  0.00    +0.000 A 
ATOM      7  N   UNL     1       6.299   5.823  14.800  0.00  0.00    +0.000 NA
ENDROOT
BRANCH   5   8
ATOM      8  C   UNL     1       4.100   3.817  17.099  0.00  0.00    +0.000 A 
ATOM      9  C   UNL     1       4.167   2.566  17.735  0.00  0.00    +0.000 A 
ATOM     10  C   UNL     1       3.263   2.200  18.715  0.00  0.00    +0.000 A 
ATOM     11  C   UNL     1       2.256   3.074  19.119  0.00  0.00    +0.000 A 
ATOM     12  C   UNL     1       2.156   4.313  18.476  0.00  0.00    +0.000 A 
ATOM     13  C   UNL     1       3.063   4.680  17.499  0.00  0.00    +0.000 A 
BRANCH  11  14
ATOM     14  O   UNL     1       1.427   2.614  20.086  0.00  0.00    +0.000 OA
BRANCH  14  15
ATOM     15  C   UNL     1       1.746   2.957  21.431  0.00  0.00    +0.000 C 
ATOM     16  F   UNL     1       1.907   4.276  21.649  0.00  0.00    +0.000 F 
ATOM     17  F   UNL     1       0.771   2.504  22.252  0.00  0.00    +0.000 F 
ATOM     18  F   UNL     1       2.909   2.352  21.776  0.00  0.00    +0.000 F 
ENDBRANCH  14  15
ENDBRANCH  11  14
ENDBRANCH   5   8
BRANCH   6  19
ATOM     19  N   UNL     1       5.182   6.553  16.753  0.00  0.00    +0.000 N 
ATOM     20  H   UNL     1       4.858   7.388  16.278  0.00  0.00    +0.000 HD
BRANCH  19  21
ATOM     21  C   UNL     1       6.104   6.876  17.832  0.00  0.00    +0.000 C 
ATOM     22  C   UNL     1       6.830   5.624  18.344  0.00  0.00    +0.000 C 
ATOM     23  C   UNL     1       8.003   6.194  19.130  0.00  0.00    +0.000 C 
ATOM     24  C   UNL     1       8.347   7.528  18.466  0.00  0.00    +0.000 C 
ATOM     25  C   UNL     1       7.247   7.813  17.446  0.00  0.00    +0.000 C 
ENDBRANCH  19  21
ENDBRANCH   6  19
TORSDOF 5
ENDMDL
MODEL 8
REMARK VINA RESULT:      -7.8      4.587      7.270
REMARK  Name = 
REMARK  6 active torsions:
REMARK  status: ('A' for Active; 'I' for Inactive)
REMARK    1  A    between atoms: C_1  and  C_2
REMARK    2  A    between atoms: C_5  and  C_6
REMARK    3  A    between atoms: C_9  and  O_10
REMARK    4  A    between atoms: O_10  and  C_11
REMARK    5  A    between atoms: C_17  and  N_18
REMARK    6  A    between atoms: N_18  and  C_19
REMARK                            x       y       z     vdW  Elec       q    Type
REMARK                         _______ _______ _______ _____ _____    ______ ____
ROOT
ATOM      1  C   UNL     1       8.014   5.260  12.789  0.00  0.00    +0.000 C 
ATOM      2  C   UNL     1       7.074   4.838  13.865  0.00  0.00    +0.000 A 
ATOM      3  N   UNL     1       5.951   4.193  13.508  0.00  0.00    +0.000 NA
ATOM      4  C   UNL     1       5.132   3.877  14.512  0.00  0.00    +0.000 A 
ATOM      5  C   UNL     1       5.354   4.168  15.864  0.00  0.00    +0.000 A 
ATOM      6  C   UNL     1       6.575   4.814  16.124  0.00  0.00    +0.000 A 
ATOM      7  N   UNL     1       7.409   5.148  15.136  0.00  0.00    +0.000 NA
ENDROOT
BRANCH   5   8
ATOM      8  C   UNL     1       4.334   3.835  16.857  0.00  0.00    +0.000 A 
ATOM      9  C   UNL     1       4.177   2.539  17.377  0.00  0.00    +0.000 A 
ATOM     10  C   UNL     1       3.205   2.246  18.316  0.00  0.00    +0.000 A 
ATOM     11  C   UNL     1       2.352   3.239  18.793  0.00  0.00    +0.000 A 
ATOM     12  C   UNL     1       2.474   4.529  18.265  0.00  0.00    +0.000 A 
ATOM     13  C   UNL     1       3.449   4.822  17.330  0.00  0.00    +0.000 A 
BRANCH  11  14
ATOM     14  O   UNL     1       1.439   2.841  19.710  0.00  0.00    +0.000 OA
BRANCH  14  15
ATOM     15  C   UNL     1       1.406   3.552  20.944  0.00  0.00    +0.000 C 
ATOM     16  F   UNL     1       2.612   3.939  21.399  0.00  0.00    +0.000 F 
ATOM     17  F   UNL     1       0.629   4.652  20.807  0.00  0.00    +0.000 F 
ATOM     18  F   UNL     1       0.857   2.760  21.896  0.00  0.00    +0.000 F 
ENDBRANCH  14  15
ENDBRANCH  11  14
ENDBRANCH   5   8
BRANCH   6  19
ATOM     19  N   UNL     1       6.982   5.020  17.459  0.00  0.00    +0.000 N 
ATOM     20  H   UNL     1       6.490   4.394  18.088  0.00  0.00    +0.000 HD
BRANCH  19  21
ATOM     21  C   UNL     1       7.068   6.367  18.003  0.00  0.00    +0.000 C 
ATOM     22  C   UNL     1       8.342   6.554  18.840  0.00  0.00    +0.000 C 
ATOM     23  C   UNL     1       8.465   8.067  18.958  0.00  0.00    +0.000 C 
ATOM     24  C   UNL     1       7.831   8.643  17.692  0.00  0.00    +0.000 C 
ATOM     25  C   UNL     1       7.165   7.480  16.961  0.00  0.00    +0.000 C 
ENDBRANCH  19  21
ENDBRANCH   6  19
TORSDOF 5
ENDMDL
MODEL 9
REMARK VINA RESULT:      -7.8      4.521      7.080
REMARK  Name = 
REMARK  6 active torsions:
REMARK  status: ('A' for Active; 'I' for Inactive)
REMARK    1  A    between atoms: C_1  and  C_2
REMARK    2  A    between atoms: C_5  and  C_6
REMARK    3  A    between atoms: C_9  and  O_10
REMARK    4  A    between atoms: O_10  and  C_11
REMARK    5  A    between atoms: C_17  and  N_18
REMARK    6  A    between atoms: N_18  and  C_19
REMARK                            x       y       z     vdW  Elec       q    Type
REMARK                         _______ _______ _______ _____ _____    ______ ____
ROOT
ATOM      1  C   UNL     1       7.543   5.133  12.831  0.00  0.00    +0.000 C 
ATOM      2  C   UNL     1       6.681   4.797  13.999  0.00  0.00    +0.000 A 
ATOM      3  N   UNL     1       6.325   3.514  14.175  0.00  0.00    +0.000 NA
ATOM      4  C   UNL     1       5.522   3.285  15.215  0.00  0.00    +0.000 A 
ATOM      5  C   UNL     1       5.038   4.258  16.099  0.00  0.00    +0.000 A 
ATOM      6  C   UNL     1       5.502   5.558  15.839  0.00  0.00    +0.000 A 
ATOM      7  N   UNL     1       6.301   5.816  14.800  0.00  0.00    +0.000 NA
ENDROOT
BRANCH   5   8
ATOM      8  C   UNL     1       4.098   3.880  17.153  0.00  0.00    +0.000 A 
ATOM      9  C   UNL     1       2.888   4.561  17.370  0.00  0.00    +0.000 A 
ATOM     10  C   UNL     1       2.013   4.187  18.373  0.00  0.00    +0.000 A 
ATOM     11  C   UNL     1       2.298   3.102  19.199  0.00  0.00    +0.000 A 
ATOM     12  C   UNL     1       3.511   2.430  19.017  0.00  0.00    +0.000 A 
ATOM     13  C   UNL     1       4.383   2.802  18.011  0.00  0.00    +0.000 A 
BRANCH  11  14
ATOM     14  O   UNL     1       1.372   2.823  20.148  0.00  0.00    +0.000 OA
BRANCH  14  15
ATOM     15  C   UNL     1       1.769   2.977  21.506  0.00  0.00    +0.000 C 
ATOM     16  F   UNL     1       2.844   2.250  21.862  0.00  0.00    +0.000 F 
ATOM     17  F   UNL     1       2.036   4.281  21.751  0.00  0.00    +0.000 F 
ATOM     18  F   UNL     1       0.747   2.595  22.310  0.00  0.00    +0.000 F 
ENDBRANCH  14  15
ENDBRANCH  11  14
ENDBRANCH   5   8
BRANCH   6  19
ATOM     19  N   UNL     1       5.210   6.596  16.748  0.00  0.00    +0.000 N 
ATOM     20  H   UNL     1       4.928   7.438  16.259  0.00  0.00    +0.000 HD
BRANCH  19  21
ATOM     21  C   UNL     1       6.121   6.894  17.843  0.00  0.00    +0.000 C 
ATOM     22  C   UNL     1       6.872   5.637  18.306  0.00  0.00    +0.000 C 
ATOM     23  C   UNL     1       8.030   6.200  19.120  0.00  0.00    +0.000 C 
ATOM     24  C   UNL     1       8.347   7.567  18.514  0.00  0.00    +0.000 C 
ATOM     25  C   UNL     1       7.245   7.871  17.502  0.00  0.00    +0.000 C 
ENDBRANCH  19  21
ENDBRANCH   6  19
TORSDOF 5
ENDMDL
