MODEL 1
REMARK VINA RESULT:      -8.0      0.000      0.000
REMARK  Name = 
REMARK  7 active torsions:
REMARK  status: ('A' for Active; 'I' for Inactive)
REMARK    1  A    between atoms: C_1  and  O_2
REMARK    2  A    between atoms: O_2  and  C_3
REMARK    3  A    between atoms: C_6  and  N_7
REMARK    4  A    between atoms: C_11  and  C_13
REMARK    5  A    between atoms: C_16  and  N_17
REMARK    6  A    between atoms: N_17  and  S_18
REMARK    7  A    between atoms: S_18  and  C_21
REMARK                            x       y       z     vdW  Elec       q    Type
REMARK                         _______ _______ _______ _____ _____    ______ ____
ROOT
ATOM      1  C   UNL     1       4.289   4.862  18.579  0.00  0.00    +0.000 A 
ATOM      2  C   UNL     1       5.633   5.204  18.759  0.00  0.00    +0.000 A 
ATOM      3  C   UNL     1       6.557   5.007  17.730  0.00  0.00    +0.000 A 
ATOM      4  C   UNL     1       6.160   4.369  16.558  0.00  0.00    +0.000 A 
ATOM      5  C   UNL     1       4.843   3.944  16.401  0.00  0.00    +0.000 A 
ATOM      6  C   UNL     1       3.905   4.194  17.408  0.00  0.00    +0.000 A 
ENDROOT
BRANCH   1  11
ATOM      7  N   UNL     1       1.311   8.823  19.822  0.00  0.00    +0.000 N 
ATOM      8  C   UNL     1       1.440   7.960  21.016  0.00  0.00    +0.000 C 
ATOM      9  C   UNL     1       1.448   6.466  20.615  0.00  0.00    +0.000 C 
ATOM     10  N   UNL     1       2.386   6.193  19.517  0.00  0.00    +0.000 N 
ATOM     11  C   UNL     1       3.256   5.112  19.624  0.00  0.00    +0.000 C 
ATOM     12  O   UNL     1       3.217   4.326  20.568  0.00  0.00    +0.000 OA
ATOM     13  C   UNL     1       2.150   7.048  18.343  0.00  0.00    +0.000 C 
ATOM     14  C   UNL     1       2.266   8.529  18.741  0.00  0.00    +0.000 C 
BRANCH   7  18
ATOM     15  C   UNL     1      -1.670  11.801  19.483  0.00  0.00    +0.000 A 
ATOM     16  C   UNL     1      -1.064  11.539  20.707  0.00  0.00    +0.000 A 
ATOM     17  C   UNL     1      -0.070  10.558  20.813  0.00  0.00    +0.000 A 
ATOM     18  C   UNL     1       0.337   9.792  19.712  0.00  0.00    +0.000 A 
ATOM     19  C   UNL     1      -0.308  10.064  18.495  0.00  0.00    +0.000 A 
ATOM     20  C   UNL     1      -1.298  11.051  18.374  0.00  0.00    +0.000 A 
BRANCH  15  22
ATOM     21  C   UNL     1      -3.359  12.897  20.710  0.00  0.00    +0.000 C 
ATOM     22  O   UNL     1      -2.628  12.775  19.496  0.00  0.00    +0.000 OA
ENDBRANCH  15  22
ENDBRANCH   7  18
ENDBRANCH   1  11
BRANCH   4  23
ATOM     23  N   UNL     1       7.087   4.128  15.513  0.00  0.00    +0.000 N 
ATOM     24  H   UNL     1       7.350   3.165  15.310  0.00  0.00    +0.000 HD
BRANCH  23  25
ATOM     25  S   UNL     1       6.991   5.069  14.115  0.00  0.00    +0.000 S 
ATOM     26  O   UNL     1       5.963   6.055  14.375  0.00  0.00    +0.000 OA
ATOM     27  O   UNL     1       8.319   5.476  13.712  0.00  0.00    +0.000 OA
BRANCH  25  28
ATOM     28  C   UNL     1       6.355   3.919  12.924  0.00  0.00    +0.000 A 
ATOM     29  C   UNL     1       4.980   3.868  12.673  0.00  0.00    +0.000 A 
ATOM     30  C   UNL     1       4.490   2.966  11.729  0.00  0.00    +0.000 A 
ATOM     31  C   UNL     1       5.370   2.129  11.037  0.00  0.00    +0.000 A 
ATOM     32  C   UNL     1       6.743   2.195  11.281  0.00  0.00    +0.000 A 
ATOM     33  C   UNL     1       7.241   3.095  12.221  0.00  0.00    +0.000 A 
ENDBRANCH  25  28
ENDBRANCH  23  25
ENDBRANCH   4  23
TORSDOF 6
ENDMDL
MODEL 2
REMARK VINA RESULT:      -7.9      0.185      1.217
REMARK  Name = 
REMARK  7 active torsions:
REMARK  status: ('A' for Active; 'I' for Inactive)
REMARK    1  A    between atoms: C_1  and  O_2
REMARK    2  A    between atoms: O_2  and  C_3
REMARK    3  A    between atoms: C_6  and  N_7
REMARK    4  A    between atoms: C_11  and  C_13
REMARK    5  A    between atoms: C_16  and  N_17
REMARK    6  A    between atoms: N_17  and  S_18
REMARK    7  A    between atoms: S_18  and  C_21
REMARK                            x       y       z     vdW  Elec       q    Type
REMARK                         _______ _______ _______ _____ _____    ______ ____
ROOT
ATOM      1  C   UNL     1       4.212   4.875  18.715  0.00  0.00    +0.000 A 
ATOM      2  C   UNL     1       5.522   5.346  18.843  0.00  0.00    +0.000 A 
ATOM      3  C   UNL     1       6.448   5.149  17.816  0.00  0.00    +0.000 A 
ATOM      4  C   UNL     1       6.096   4.390  16.704  0.00  0.00    +0.000 A 
ATOM      5  C   UNL     1       4.819   3.841  16.604  0.00  0.00    +0.000 A 
ATOM      6  C   UNL     1       3.874   4.087  17.605  0.00  0.00    +0.000 A 
ENDROOT
BRANCH   1  11
ATOM      7  N   UNL     1       1.250   8.835  19.997  0.00  0.00    +0.000 N 
ATOM      8  C   UNL     1       1.365   7.954  21.180  0.00  0.00    +0.000 C 
ATOM      9  C   UNL     1       1.367   6.465  20.756  0.00  0.00    +0.000 C 
ATOM     10  N   UNL     1       2.311   6.203  19.660  0.00  0.00    +0.000 N 
ATOM     11  C   UNL     1       3.173   5.116  19.756  0.00  0.00    +0.000 C 
ATOM     12  O   UNL     1       3.123   4.316  20.688  0.00  0.00    +0.000 OA
ATOM     13  C   UNL     1       2.088   7.078  18.497  0.00  0.00    +0.000 C 
ATOM     14  C   UNL     1       2.210   8.552  18.919  0.00  0.00    +0.000 C 
BRANCH   7  18
ATOM     15  C   UNL     1      -1.723  11.825  19.687  0.00  0.00    +0.000 A 
ATOM     16  C   UNL     1      -1.287  11.138  18.560  0.00  0.00    +0.000 A 
ATOM     17  C   UNL     1      -0.309  10.142  18.668  0.00  0.00    +0.000 A 
ATOM     18  C   UNL     1       0.282   9.812  19.896  0.00  0.00    +0.000 A 
ATOM     19  C   UNL     1      -0.163  10.538  21.013  0.00  0.00    +0.000 A 
ATOM     20  C   UNL     1      -1.150  11.531  20.918  0.00  0.00    +0.000 A 
BRANCH  15  22
ATOM     21  C   UNL     1      -3.499  13.094  20.581  0.00  0.00    +0.000 C 
ATOM     22  O   UNL     1      -2.677  12.777  19.464  0.00  0.00    +0.000 OA
ENDBRANCH  15  22
ENDBRANCH   7  18
ENDBRANCH   1  11
BRANCH   4  23
ATOM     23  N   UNL     1       7.028   4.149  15.664  0.00  0.00    +0.000 N 
ATOM     24  H   UNL     1       7.269   3.185  15.442  0.00  0.00    +0.000 HD
BRANCH  23  25
ATOM     25  S   UNL     1       6.970   5.122  14.286  0.00  0.00    +0.000 S 
ATOM     26  O   UNL     1       5.927   6.096  14.536  0.00  0.00    +0.000 OA
ATOM     27  O   UNL     1       8.307   5.547  13.934  0.00  0.00    +0.000 OA
BRANCH  25  28
ATOM     28  C   UNL     1       6.379   3.998  13.048  0.00  0.00    +0.000 A 
ATOM     29  C   UNL     1       7.287   3.216  12.328  0.00  0.00    +0.000 A 
ATOM     30  C   UNL     1       6.813   2.330  11.361  0.00  0.00    +0.000 A 
ATOM     31  C   UNL     1       5.439   2.222  11.125  0.00  0.00    +0.000 A 
ATOM     32  C   UNL     1       4.536   2.994  11.858  0.00  0.00    +0.000 A 
ATOM     33  C   UNL     1       5.002   3.880  12.827  0.00  0.00    +0.000 A 
ENDBRANCH  25  28
ENDBRANCH  23  25
ENDBRANCH   4  23
TORSDOF 6
ENDMDL
MODEL 3
REMARK VINA RESULT:      -7.9      3.042      5.258
REMARK  Name = 
REMARK  7 active torsions:
REMARK  status: ('A' for Active; 'I' for Inactive)
REMARK    1  A    between atoms: C_1  and  O_2
REMARK    2  A    between atoms: O_2  and  C_3
REMARK    3  A    between atoms: C_6  and  N_7
REMARK    4  A    between atoms: C_11  and  C_13
REMARK    5  A    between atoms: C_16  and  N_17
REMARK    6  A    between atoms: N_17  and  S_18
REMARK    7  A    between atoms: S_18  and  C_21
REMARK                            x       y       z     vdW  Elec       q    Type
REMARK                         _______ _______ _______ _____ _____    ______ ____
ROOT
ATOM      1  C   UNL     1       1.898   8.468  18.961  0.00  0.00    +0.000 A 
ATOM      2  C   UNL     1       1.539   7.705  20.076  0.00  0.00    +0.000 A 
ATOM      3  C   UNL     1       2.183   6.496  20.344  0.00  0.00    +0.000 A 
ATOM      4  C   UNL     1       3.116   5.995  19.440  0.00  0.00    +0.000 A 
ATOM      5  C   UNL     1       3.420   6.704  18.280  0.00  0.00    +0.000 A 
ATOM      6  C   UNL     1       2.817   7.943  18.041  0.00  0.00    +0.000 A 
ENDROOT
BRANCH   1  11
ATOM      7  N   UNL     1      -1.249  11.609  21.478  0.00  0.00    +0.000 N 
ATOM      8  C   UNL     1      -1.356  11.920  20.036  0.00  0.00    +0.000 C 
ATOM      9  C   UNL     1       0.025  11.805  19.347  0.00  0.00    +0.000 C 
ATOM     10  N   UNL     1       0.710  10.550  19.688  0.00  0.00    +0.000 N 
ATOM     11  C   UNL     1       1.283   9.794  18.670  0.00  0.00    +0.000 C 
ATOM     12  O   UNL     1       1.308  10.175  17.501  0.00  0.00    +0.000 OA
ATOM     13  C   UNL     1       0.832  10.346  21.140  0.00  0.00    +0.000 C 
ATOM     14  C   UNL     1      -0.563  10.345  21.788  0.00  0.00    +0.000 C 
BRANCH   7  18
ATOM     15  C   UNL     1      -2.677  14.236  24.467  0.00  0.00    +0.000 A 
ATOM     16  C   UNL     1      -1.410  14.405  23.919  0.00  0.00    +0.000 A 
ATOM     17  C   UNL     1      -0.944  13.538  22.923  0.00  0.00    +0.000 A 
ATOM     18  C   UNL     1      -1.714  12.464  22.455  0.00  0.00    +0.000 A 
ATOM     19  C   UNL     1      -2.979  12.305  23.042  0.00  0.00    +0.000 A 
ATOM     20  C   UNL     1      -3.460  13.173  24.034  0.00  0.00    +0.000 A 
BRANCH  15  22
ATOM     21  C   UNL     1      -2.353  16.389  25.374  0.00  0.00    +0.000 C 
ATOM     22  O   UNL     1      -3.025  15.136  25.433  0.00  0.00    +0.000 OA
ENDBRANCH  15  22
ENDBRANCH   7  18
ENDBRANCH   1  11
BRANCH   4  23
ATOM     23  N   UNL     1       3.760   4.754  19.673  0.00  0.00    +0.000 N 
ATOM     24  H   UNL     1       3.713   4.352  20.608  0.00  0.00    +0.000 HD
BRANCH  23  25
ATOM     25  S   UNL     1       3.698   3.573  18.469  0.00  0.00    +0.000 S 
ATOM     26  O   UNL     1       4.063   2.330  19.118  0.00  0.00    +0.000 OA
ATOM     27  O   UNL     1       2.454   3.687  17.740  0.00  0.00    +0.000 OA
BRANCH  25  28
ATOM     28  C   UNL     1       5.035   4.043  17.403  0.00  0.00    +0.000 A 
ATOM     29  C   UNL     1       6.275   4.384  17.952  0.00  0.00    +0.000 A 
ATOM     30  C   UNL     1       7.322   4.746  17.105  0.00  0.00    +0.000 A 
ATOM     31  C   UNL     1       7.132   4.757  15.721  0.00  0.00    +0.000 A 
ATOM     32  C   UNL     1       5.896   4.402  15.178  0.00  0.00    +0.000 A 
ATOM     33  C   UNL     1       4.844   4.037  16.017  0.00  0.00    +0.000 A 
ENDBRANCH  25  28
ENDBRANCH  23  25
ENDBRANCH   4  23
TORSDOF 6
ENDMDL
MODEL 4
REMARK VINA RESULT:      -7.7      2.969      5.158
REMARK  Name = 
REMARK  7 active torsions:
REMARK  status: ('A' for Active; 'I' for Inactive)
REMARK    1  A    between atoms: C_1  and  O_2
REMARK    2  A    between atoms: O_2  and  C_3
REMARK    3  A    between atoms: C_6  and  N_7
REMARK    4  A    between atoms: C_11  and  C_13
REMARK    5  A    between atoms: C_16  and  N_17
REMARK    6  A    between atoms: N_17  and  S_18
REMARK    7  A    between atoms: S_18  and  C_21
REMARK                            x       y       z     vdW  Elec       q    Type
REMARK                         _______ _______ _______ _____ _____    ______ ____
ROOT
ATOM      1  C   UNL     1       1.938   8.973  18.700  0.00  0.00    +0.000 A 
ATOM      2  C   UNL     1       2.578   8.385  17.605  0.00  0.00    +0.000 A 
ATOM      3  C   UNL     1       2.940   7.037  17.637  0.00  0.00    +0.000 A 
ATOM      4  C   UNL     1       2.757   6.300  18.804  0.00  0.00    +0.000 A 
ATOM      5  C   UNL     1       2.198   6.898  19.932  0.00  0.00    +0.000 A 
ATOM      6  C   UNL     1       1.783   8.232  19.880  0.00  0.00    +0.000 A 
ENDROOT
BRANCH   1  11
ATOM      7  N   UNL     1      -2.572  11.287  18.058  0.00  0.00    +0.000 N 
ATOM      8  C   UNL     1      -1.511  12.263  17.729  0.00  0.00    +0.000 C 
ATOM      9  C   UNL     1      -0.302  12.100  18.681  0.00  0.00    +0.000 C 
ATOM     10  N   UNL     1       0.124  10.698  18.799  0.00  0.00    +0.000 N 
ATOM     11  C   UNL     1       1.476  10.391  18.687  0.00  0.00    +0.000 C 
ATOM     12  O   UNL     1       2.341  11.256  18.572  0.00  0.00    +0.000 OA
ATOM     13  C   UNL     1      -0.975   9.801  19.192  0.00  0.00    +0.000 C 
ATOM     14  C   UNL     1      -2.117   9.891  18.165  0.00  0.00    +0.000 C 
BRANCH   7  18
ATOM     15  C   UNL     1      -6.570  12.455  18.785  0.00  0.00    +0.000 A 
ATOM     16  C   UNL     1      -5.593  12.623  19.760  0.00  0.00    +0.000 A 
ATOM     17  C   UNL     1      -4.268  12.244  19.512  0.00  0.00    +0.000 A 
ATOM     18  C   UNL     1      -3.877  11.665  18.297  0.00  0.00    +0.000 A 
ATOM     19  C   UNL     1      -4.890  11.487  17.340  0.00  0.00    +0.000 A 
ATOM     20  C   UNL     1      -6.218  11.873  17.573  0.00  0.00    +0.000 A 
BRANCH  15  22
ATOM     21  C   UNL     1      -7.913  14.137  19.748  0.00  0.00    +0.000 C 
ATOM     22  O   UNL     1      -7.828  12.856  19.136  0.00  0.00    +0.000 OA
ENDBRANCH  15  22
ENDBRANCH   7  18
ENDBRANCH   1  11
BRANCH   4  23
ATOM     23  N   UNL     1       3.146   4.939  18.873  0.00  0.00    +0.000 N 
ATOM     24  H   UNL     1       2.679   4.270  18.262  0.00  0.00    +0.000 HD
BRANCH  23  25
ATOM     25  S   UNL     1       4.781   4.575  19.081  0.00  0.00    +0.000 S 
ATOM     26  O   UNL     1       5.340   5.689  19.820  0.00  0.00    +0.000 OA
ATOM     27  O   UNL     1       4.919   3.221  19.570  0.00  0.00    +0.000 OA
BRANCH  25  28
ATOM     28  C   UNL     1       5.405   4.655  17.422  0.00  0.00    +0.000 A 
ATOM     29  C   UNL     1       4.723   4.002  16.391  0.00  0.00    +0.000 A 
ATOM     30  C   UNL     1       5.218   4.076  15.089  0.00  0.00    +0.000 A 
ATOM     31  C   UNL     1       6.380   4.805  14.822  0.00  0.00    +0.000 A 
ATOM     32  C   UNL     1       7.048   5.467  15.854  0.00  0.00    +0.000 A 
ATOM     33  C   UNL     1       6.559   5.400  17.157  0.00  0.00    +0.000 A 
ENDBRANCH  25  28
ENDBRANCH  23  25
ENDBRANCH   4  23
TORSDOF 6
ENDMDL
MODEL 5
REMARK VINA RESULT:      -7.7      2.927      5.040
REMARK  Name = 
REMARK  7 active torsions:
REMARK  status: ('A' for Active; 'I' for Inactive)
REMARK    1  A    between atoms: C_1  and  O_2
REMARK    2  A    between atoms: O_2  and  C_3
REMARK    3  A    between atoms: C_6  and  N_7
REMARK    4  A    between atoms: C_11  and  C_13
REMARK    5  A    between atoms: C_16  and  N_17
REMARK    6  A    between atoms: N_17  and  S_18
REMARK    7  A    between atoms: S_18  and  C_21
REMARK                            x       y       z     vdW  Elec       q    Type
REMARK                         _______ _______ _______ _____ _____    ______ ____
ROOT
ATOM      1  C   UNL     1       2.124   8.670  18.649  0.00  0.00    +0.000 A 
ATOM      2  C   UNL     1       1.775   7.898  19.761  0.00  0.00    +0.000 A 
ATOM      3  C   UNL     1       2.227   6.582  19.880  0.00  0.00    +0.000 A 
ATOM      4  C   UNL     1       2.942   6.001  18.836  0.00  0.00    +0.000 A 
ATOM      5  C   UNL     1       3.223   6.732  17.684  0.00  0.00    +0.000 A 
ATOM      6  C   UNL     1       2.820   8.068  17.591  0.00  0.00    +0.000 A 
ENDROOT
BRANCH   1  11
ATOM      7  N   UNL     1      -1.020  11.786  21.201  0.00  0.00    +0.000 N 
ATOM      8  C   UNL     1      -0.853  12.330  19.836  0.00  0.00    +0.000 C 
ATOM      9  C   UNL     1       0.601  12.133  19.342  0.00  0.00    +0.000 C 
ATOM     10  N   UNL     1       1.075  10.758  19.552  0.00  0.00    +0.000 N 
ATOM     11  C   UNL     1       1.718  10.098  18.510  0.00  0.00    +0.000 C 
ATOM     12  O   UNL     1       1.977  10.648  17.442  0.00  0.00    +0.000 OA
ATOM     13  C   UNL     1       0.934  10.315  20.949  0.00  0.00    +0.000 C 
ATOM     14  C   UNL     1      -0.540  10.406  21.381  0.00  0.00    +0.000 C 
BRANCH   7  18
ATOM     15  C   UNL     1      -2.615  14.087  24.369  0.00  0.00    +0.000 A 
ATOM     16  C   UNL     1      -1.380  14.403  23.814  0.00  0.00    +0.000 A 
ATOM     17  C   UNL     1      -0.859  13.645  22.758  0.00  0.00    +0.000 A 
ATOM     18  C   UNL     1      -1.538  12.535  22.237  0.00  0.00    +0.000 A 
ATOM     19  C   UNL     1      -2.772  12.226  22.833  0.00  0.00    +0.000 A 
ATOM     20  C   UNL     1      -3.308  12.985  23.884  0.00  0.00    +0.000 A 
BRANCH  15  22
ATOM     21  C   UNL     1      -2.003  15.682  25.994  0.00  0.00    +0.000 C 
ATOM     22  O   UNL     1      -3.022  14.891  25.395  0.00  0.00    +0.000 OA
ENDBRANCH  15  22
ENDBRANCH   7  18
ENDBRANCH   1  11
BRANCH   4  23
ATOM     23  N   UNL     1       3.384   4.657  18.919  0.00  0.00    +0.000 N 
ATOM     24  H   UNL     1       2.928   3.959  18.332  0.00  0.00    +0.000 HD
BRANCH  23  25
ATOM     25  S   UNL     1       5.036   4.358  19.093  0.00  0.00    +0.000 S 
ATOM     26  O   UNL     1       5.578   5.526  19.759  0.00  0.00    +0.000 OA
ATOM     27  O   UNL     1       5.235   3.036  19.644  0.00  0.00    +0.000 OA
BRANCH  25  28
ATOM     28  C   UNL     1       5.607   4.375  17.414  0.00  0.00    +0.000 A 
ATOM     29  C   UNL     1       4.767   3.929  16.390  0.00  0.00    +0.000 A 
ATOM     30  C   UNL     1       5.223   3.952  15.072  0.00  0.00    +0.000 A 
ATOM     31  C   UNL     1       6.505   4.426  14.783  0.00  0.00    +0.000 A 
ATOM     32  C   UNL     1       7.335   4.883  15.808  0.00  0.00    +0.000 A 
ATOM     33  C   UNL     1       6.886   4.865  17.128  0.00  0.00    +0.000 A 
ENDBRANCH  25  28
ENDBRANCH  23  25
ENDBRANCH   4  23
TORSDOF 6
ENDMDL
MODEL 6
REMARK VINA RESULT:      -7.7      3.561      5.354
REMARK  Name = 
REMARK  7 active torsions:
REMARK  status: ('A' for Active; 'I' for Inactive)
REMARK    1  A    between atoms: C_1  and  O_2
REMARK    2  A    between atoms: O_2  and  C_3
REMARK    3  A    between atoms: C_6  and  N_7
REMARK    4  A    between atoms: C_11  and  C_13
REMARK    5  A    between atoms: C_16  and  N_17
REMARK    6  A    between atoms: N_17  and  S_18
REMARK    7  A    between atoms: S_18  and  C_21
REMARK                            x       y       z     vdW  Elec       q    Type
REMARK                         _______ _______ _______ _____ _____    ______ ____
ROOT
ATOM      1  C   UNL     1       1.387   8.346  20.316  0.00  0.00    +0.000 A 
ATOM      2  C   UNL     1       1.997   8.502  19.068  0.00  0.00    +0.000 A 
ATOM      3  C   UNL     1       2.509   7.395  18.387  0.00  0.00    +0.000 A 
ATOM      4  C   UNL     1       2.505   6.145  18.999  0.00  0.00    +0.000 A 
ATOM      5  C   UNL     1       1.977   5.991  20.280  0.00  0.00    +0.000 A 
ATOM      6  C   UNL     1       1.413   7.089  20.937  0.00  0.00    +0.000 A 
ENDROOT
BRANCH   1  11
ATOM      7  N   UNL     1       1.435  13.426  19.773  0.00  0.00    +0.000 N 
ATOM      8  C   UNL     1       1.096  13.124  21.180  0.00  0.00    +0.000 C 
ATOM      9  C   UNL     1       0.188  11.874  21.269  0.00  0.00    +0.000 C 
ATOM     10  N   UNL     1       0.711  10.752  20.476  0.00  0.00    +0.000 N 
ATOM     11  C   UNL     1       0.770   9.487  21.051  0.00  0.00    +0.000 C 
ATOM     12  O   UNL     1       0.328   9.252  22.173  0.00  0.00    +0.000 OA
ATOM     13  C   UNL     1       0.961  11.118  19.072  0.00  0.00    +0.000 C 
ATOM     14  C   UNL     1       1.960  12.286  19.005  0.00  0.00    +0.000 C 
BRANCH   7  18
ATOM     15  C   UNL     1       0.792  17.231  18.047  0.00  0.00    +0.000 A 
ATOM     16  C   UNL     1       2.081  16.748  18.240  0.00  0.00    +0.000 A 
ATOM     17  C   UNL     1       2.290  15.483  18.803  0.00  0.00    +0.000 A 
ATOM     18  C   UNL     1       1.225  14.668  19.213  0.00  0.00    +0.000 A 
ATOM     19  C   UNL     1      -0.064  15.192  19.026  0.00  0.00    +0.000 A 
ATOM     20  C   UNL     1      -0.286  16.454  18.453  0.00  0.00    +0.000 A 
BRANCH  15  22
ATOM     21  C   UNL     1       0.635  18.513  16.074  0.00  0.00    +0.000 C 
ATOM     22  O   UNL     1       0.707  18.477  17.494  0.00  0.00    +0.000 OA
ENDBRANCH  15  22
ENDBRANCH   7  18
ENDBRANCH   1  11
BRANCH   4  23
ATOM     23  N   UNL     1       3.047   5.013  18.342  0.00  0.00    +0.000 N 
ATOM     24  H   UNL     1       2.886   4.909  17.341  0.00  0.00    +0.000 HD
BRANCH  23  25
ATOM     25  S   UNL     1       4.580   4.472  18.797  0.00  0.00    +0.000 S 
ATOM     26  O   UNL     1       5.129   5.512  19.643  0.00  0.00    +0.000 OA
ATOM     27  O   UNL     1       4.494   3.107  19.268  0.00  0.00    +0.000 OA
BRANCH  25  28
ATOM     28  C   UNL     1       5.466   4.495  17.260  0.00  0.00    +0.000 A 
ATOM     29  C   UNL     1       4.773   4.338  16.056  0.00  0.00    +0.000 A 
ATOM     30  C   UNL     1       5.477   4.365  14.853  0.00  0.00    +0.000 A 
ATOM     31  C   UNL     1       6.862   4.556  14.856  0.00  0.00    +0.000 A 
ATOM     32  C   UNL     1       7.546   4.727  16.060  0.00  0.00    +0.000 A 
ATOM     33  C   UNL     1       6.850   4.704  17.267  0.00  0.00    +0.000 A 
ENDBRANCH  25  28
ENDBRANCH  23  25
ENDBRANCH   4  23
TORSDOF 6
ENDMDL
MODEL 7
REMARK VINA RESULT:      -7.7      3.007      5.462
REMARK  Name = 
REMARK  7 active torsions:
REMARK  status: ('A' for Active; 'I' for Inactive)
REMARK    1  A    between atoms: C_1  and  O_2
REMARK    2  A    between atoms: O_2  and  C_3
REMARK    3  A    between atoms: C_6  and  N_7
REMARK    4  A    between atoms: C_11  and  C_13
REMARK    5  A    between atoms: C_16  and  N_17
REMARK    6  A    between atoms: N_17  and  S_18
REMARK    7  A    between atoms: S_18  and  C_21
REMARK                            x       y       z     vdW  Elec       q    Type
REMARK                         _______ _______ _______ _____ _____    ______ ____
ROOT
ATOM      1  C   UNL     1       1.467   8.639  19.006  0.00  0.00    +0.000 A 
ATOM      2  C   UNL     1       1.324   7.891  20.179  0.00  0.00    +0.000 A 
ATOM      3  C   UNL     1       2.195   6.835  20.455  0.00  0.00    +0.000 A 
ATOM      4  C   UNL     1       3.146   6.458  19.510  0.00  0.00    +0.000 A 
ATOM      5  C   UNL     1       3.242   7.141  18.299  0.00  0.00    +0.000 A 
ATOM      6  C   UNL     1       2.407   8.235  18.048  0.00  0.00    +0.000 A 
ENDROOT
BRANCH   1  11
ATOM      7  N   UNL     1      -1.377  11.843  21.790  0.00  0.00    +0.000 N 
ATOM      8  C   UNL     1      -1.894  11.865  20.405  0.00  0.00    +0.000 C 
ATOM      9  C   UNL     1      -0.734  11.770  19.385  0.00  0.00    +0.000 C 
ATOM     10  N   UNL     1       0.199  10.682  19.709  0.00  0.00    +0.000 N 
ATOM     11  C   UNL     1       0.602   9.814  18.699  0.00  0.00    +0.000 C 
ATOM     12  O   UNL     1       0.269   9.968  17.526  0.00  0.00    +0.000 OA
ATOM     13  C   UNL     1       0.718  10.769  21.083  0.00  0.00    +0.000 C 
ATOM     14  C   UNL     1      -0.448  10.741  22.086  0.00  0.00    +0.000 C 
BRANCH   7  18
ATOM     15  C   UNL     1      -2.377  14.819  24.621  0.00  0.00    +0.000 A 
ATOM     16  C   UNL     1      -1.155  14.851  23.960  0.00  0.00    +0.000 A 
ATOM     17  C   UNL     1      -0.831  13.869  23.016  0.00  0.00    +0.000 A 
ATOM     18  C   UNL     1      -1.702  12.812  22.716  0.00  0.00    +0.000 A 
ATOM     19  C   UNL     1      -2.919  12.794  23.416  0.00  0.00    +0.000 A 
ATOM     20  C   UNL     1      -3.259  13.778  24.356  0.00  0.00    +0.000 A 
BRANCH  15  22
ATOM     21  C   UNL     1      -1.427  16.273  26.216  0.00  0.00    +0.000 C 
ATOM     22  O   UNL     1      -2.585  15.824  25.523  0.00  0.00    +0.000 OA
ENDBRANCH  15  22
ENDBRANCH   7  18
ENDBRANCH   1  11
BRANCH   4  23
ATOM     23  N   UNL     1       4.020   5.369  19.753  0.00  0.00    +0.000 N 
ATOM     24  H   UNL     1       4.280   5.162  20.716  0.00  0.00    +0.000 HD
BRANCH  23  25
ATOM     25  S   UNL     1       3.843   3.970  18.827  0.00  0.00    +0.000 S 
ATOM     26  O   UNL     1       4.308   2.883  19.664  0.00  0.00    +0.000 OA
ATOM     27  O   UNL     1       2.521   3.937  18.242  0.00  0.00    +0.000 OA
BRANCH  25  28
ATOM     28  C   UNL     1       5.037   4.212  17.537  0.00  0.00    +0.000 A 
ATOM     29  C   UNL     1       4.632   4.173  16.199  0.00  0.00    +0.000 A 
ATOM     30  C   UNL     1       5.576   4.371  15.192  0.00  0.00    +0.000 A 
ATOM     31  C   UNL     1       6.912   4.615  15.523  0.00  0.00    +0.000 A 
ATOM     32  C   UNL     1       7.308   4.666  16.861  0.00  0.00    +0.000 A 
ATOM     33  C   UNL     1       6.370   4.471  17.873  0.00  0.00    +0.000 A 
ENDBRANCH  25  28
ENDBRANCH  23  25
ENDBRANCH   4  23
TORSDOF 6
ENDMDL
MODEL 8
REMARK VINA RESULT:      -7.7      3.339      4.961
REMARK  Name = 
REMARK  7 active torsions:
REMARK  status: ('A' for Active; 'I' for Inactive)
REMARK    1  A    between atoms: C_1  and  O_2
REMARK    2  A    between atoms: O_2  and  C_3
REMARK    3  A    between atoms: C_6  and  N_7
REMARK    4  A    between atoms: C_11  and  C_13
REMARK    5  A    between atoms: C_16  and  N_17
REMARK    6  A    between atoms: N_17  and  S_18
REMARK    7  A    between atoms: S_18  and  C_21
REMARK                            x       y       z     vdW  Elec       q    Type
REMARK                         _______ _______ _______ _____ _____    ______ ____
ROOT
ATOM      1  C   UNL     1       2.107   7.248  18.696  0.00  0.00    +0.000 A 
ATOM      2  C   UNL     1       2.470   6.842  19.983  0.00  0.00    +0.000 A 
ATOM      3  C   UNL     1       2.668   5.489  20.269  0.00  0.00    +0.000 A 
ATOM      4  C   UNL     1       2.401   4.531  19.295  0.00  0.00    +0.000 A 
ATOM      5  C   UNL     1       1.954   4.918  18.033  0.00  0.00    +0.000 A 
ATOM      6  C   UNL     1       1.812   6.276  17.730  0.00  0.00    +0.000 A 
ENDROOT
BRANCH   1  11
ATOM      7  N   UNL     1      -0.858  11.075  20.330  0.00  0.00    +0.000 N 
ATOM      8  C   UNL     1      -0.418  11.398  18.955  0.00  0.00    +0.000 C 
ATOM      9  C   UNL     1       1.044  10.945  18.727  0.00  0.00    +0.000 C 
ATOM     10  N   UNL     1       1.270   9.561  19.169  0.00  0.00    +0.000 N 
ATOM     11  C   UNL     1       1.946   8.684  18.328  0.00  0.00    +0.000 C 
ATOM     12  O   UNL     1       2.435   9.042  17.258  0.00  0.00    +0.000 OA
ATOM     13  C   UNL     1       0.866   9.339  20.567  0.00  0.00    +0.000 C 
ATOM     14  C   UNL     1      -0.624   9.682  20.743  0.00  0.00    +0.000 C 
BRANCH   7  18
ATOM     15  C   UNL     1      -2.522  13.971  22.922  0.00  0.00    +0.000 A 
ATOM     16  C   UNL     1      -3.031  13.788  21.641  0.00  0.00    +0.000 A 
ATOM     17  C   UNL     1      -2.484  12.821  20.789  0.00  0.00    +0.000 A 
ATOM     18  C   UNL     1      -1.399  12.022  21.174  0.00  0.00    +0.000 A 
ATOM     19  C   UNL     1      -0.891  12.245  22.465  0.00  0.00    +0.000 A 
ATOM     20  C   UNL     1      -1.438  13.203  23.331  0.00  0.00    +0.000 A 
BRANCH  15  22
ATOM     21  C   UNL     1      -2.739  15.004  25.031  0.00  0.00    +0.000 C 
ATOM     22  O   UNL     1      -3.130  14.943  23.664  0.00  0.00    +0.000 OA
ENDBRANCH  15  22
ENDBRANCH   7  18
ENDBRANCH   1  11
BRANCH   4  23
ATOM     23  N   UNL     1       2.563   3.151  19.571  0.00  0.00    +0.000 N 
ATOM     24  H   UNL     1       1.757   2.536  19.464  0.00  0.00    +0.000 HD
BRANCH  23  25
ATOM     25  S   UNL     1       4.000   2.397  19.108  0.00  0.00    +0.000 S 
ATOM     26  O   UNL     1       4.750   2.196  20.331  0.00  0.00    +0.000 OA
ATOM     27  O   UNL     1       3.706   1.285  18.231  0.00  0.00    +0.000 OA
BRANCH  25  28
ATOM     28  C   UNL     1       4.814   3.667  18.173  0.00  0.00    +0.000 A 
ATOM     29  C   UNL     1       5.630   4.596  18.826  0.00  0.00    +0.000 A 
ATOM     30  C   UNL     1       6.271   5.586  18.082  0.00  0.00    +0.000 A 
ATOM     31  C   UNL     1       6.102   5.640  16.696  0.00  0.00    +0.000 A 
ATOM     32  C   UNL     1       5.298   4.701  16.048  0.00  0.00    +0.000 A 
ATOM     33  C   UNL     1       4.655   3.707  16.784  0.00  0.00    +0.000 A 
ENDBRANCH  25  28
ENDBRANCH  23  25
ENDBRANCH   4  23
TORSDOF 6
ENDMDL
MODEL 9
REMARK VINA RESULT:      -7.6      3.332      4.878
REMARK  Name = 
REMARK  7 active torsions:
REMARK  status: ('A' for Active; 'I' for Inactive)
REMARK    1  A    between atoms: C_1  and  O_2
REMARK    2  A    between atoms: O_2  and  C_3
REMARK    3  A    between atoms: C_6  and  N_7
REMARK    4  A    between atoms: C_11  and  C_13
REMARK    5  A    between atoms: C_16  and  N_17
REMARK    6  A    between atoms: N_17  and  S_18
REMARK    7  A    between atoms: S_18  and  C_21
REMARK                            x       y       z     vdW  Elec       q    Type
REMARK                         _______ _______ _______ _____ _____    ______ ____
ROOT
ATOM      1  C   UNL     1       2.092   7.256  18.678  0.00  0.00    +0.000 A 
ATOM      2  C   UNL     1       2.432   6.825  19.964  0.00  0.00    +0.000 A 
ATOM      3  C   UNL     1       2.615   5.466  20.229  0.00  0.00    +0.000 A 
ATOM      4  C   UNL     1       2.356   4.527  19.234  0.00  0.00    +0.000 A 
ATOM      5  C   UNL     1       1.933   4.939  17.972  0.00  0.00    +0.000 A 
ATOM      6  C   UNL     1       1.806   6.303  17.691  0.00  0.00    +0.000 A 
ENDROOT
BRANCH   1  11
ATOM      7  N   UNL     1      -0.856  11.081  20.346  0.00  0.00    +0.000 N 
ATOM      8  C   UNL     1      -0.398  11.424  18.982  0.00  0.00    +0.000 C 
ATOM      9  C   UNL     1       1.062  10.961  18.762  0.00  0.00    +0.000 C 
ATOM     10  N   UNL     1       1.271   9.568  19.182  0.00  0.00    +0.000 N 
ATOM     11  C   UNL     1       1.949   8.700  18.333  0.00  0.00    +0.000 C 
ATOM     12  O   UNL     1       2.452   9.072  17.276  0.00  0.00    +0.000 OA
ATOM     13  C   UNL     1       0.849   9.325  20.572  0.00  0.00    +0.000 C 
ATOM     14  C   UNL     1      -0.639   9.680  20.738  0.00  0.00    +0.000 C 
BRANCH   7  18
ATOM     15  C   UNL     1      -2.513  13.960  22.961  0.00  0.00    +0.000 A 
ATOM     16  C   UNL     1      -1.318  13.322  23.273  0.00  0.00    +0.000 A 
ATOM     17  C   UNL     1      -0.767  12.376  22.400  0.00  0.00    +0.000 A 
ATOM     18  C   UNL     1      -1.398  12.018  21.200  0.00  0.00    +0.000 A 
ATOM     19  C   UNL     1      -2.615  12.662  20.923  0.00  0.00    +0.000 A 
ATOM     20  C   UNL     1      -3.171  13.619  21.785  0.00  0.00    +0.000 A 
BRANCH  15  22
ATOM     21  C   UNL     1      -4.355  15.130  23.855  0.00  0.00    +0.000 C 
ATOM     22  O   UNL     1      -2.959  14.861  23.886  0.00  0.00    +0.000 OA
ENDBRANCH  15  22
ENDBRANCH   7  18
ENDBRANCH   1  11
BRANCH   4  23
ATOM     23  N   UNL     1       2.503   3.140  19.488  0.00  0.00    +0.000 N 
ATOM     24  H   UNL     1       1.715   2.525  19.292  0.00  0.00    +0.000 HD
BRANCH  23  25
ATOM     25  S   UNL     1       3.983   2.408  19.140  0.00  0.00    +0.000 S 
ATOM     26  O   UNL     1       4.687   2.323  20.403  0.00  0.00    +0.000 OA
ATOM     27  O   UNL     1       3.763   1.225  18.337  0.00  0.00    +0.000 OA
BRANCH  25  28
ATOM     28  C   UNL     1       4.793   3.635  18.147  0.00  0.00    +0.000 A 
ATOM     29  C   UNL     1       4.589   3.656  16.765  0.00  0.00    +0.000 A 
ATOM     30  C   UNL     1       5.225   4.629  15.993  0.00  0.00    +0.000 A 
ATOM     31  C   UNL     1       6.051   5.576  16.604  0.00  0.00    +0.000 A 
ATOM     32  C   UNL     1       6.240   5.559  17.987  0.00  0.00    +0.000 A 
ATOM     33  C   UNL     1       5.607   4.592  18.765  0.00  0.00    +0.000 A 
ENDBRANCH  25  28
ENDBRANCH  23  25
ENDBRANCH   4  23
TORSDOF 6
ENDMDL
