MODEL 1
REMARK VINA RESULT:      -7.0      0.000      0.000
REMARK  Name = 
REMARK  2 active torsions:
REMARK  status: ('A' for Active; 'I' for Inactive)
REMARK    1  A    between atoms: C_1  and  C_13
REMARK    2  A    between atoms: N_2  and  N_3
REMARK                            x       y       z     vdW  Elec       q    Type
REMARK                         _______ _______ _______ _____ _____    ______ ____
ROOT
ATOM      1  N   UNL     1       6.297   4.408  17.835  0.00  0.00    +0.000 N 
ATOM      2  C   UNL     1       5.112   4.254  18.468  0.00  0.00    +0.000 A 
ATOM      3  N   UNL     1       4.573   5.006  19.396  0.00  0.00    +0.000 NA
ATOM      4  C   UNL     1       3.349   4.431  19.658  0.00  0.00    +0.000 A 
ATOM      5  C   UNL     1       2.332   4.840  20.532  0.00  0.00    +0.000 A 
ATOM      6  C   UNL     1       1.175   4.054  20.631  0.00  0.00    +0.000 A 
ATOM      7  C   UNL     1       1.038   2.884  19.881  0.00  0.00    +0.000 A 
ATOM      8  C   UNL     1       2.034   2.466  18.993  0.00  0.00    +0.000 A 
ATOM      9  C   UNL     1       3.169   3.274  18.906  0.00  0.00    +0.000 A 
ATOM     10  N   UNL     1       4.302   3.200  18.144  0.00  0.00    +0.000 N 
ATOM     11  H   UNL     1       6.797   5.253  18.117  0.00  0.00    +0.000 HD
ATOM     12  H   UNL     1       4.538   2.514  17.443  0.00  0.00    +0.000 HD
ENDROOT
BRANCH   1  14
ATOM     13  C   UNL     1       6.550   4.850  15.638  0.00  0.00    +0.000 C 
ATOM     14  N   UNL     1       6.474   3.941  16.561  0.00  0.00    +0.000 NA
BRANCH  13  15
ATOM     15  C   UNL     1       6.604   4.457  14.252  0.00  0.00    +0.000 A 
ATOM     16  C   UNL     1       5.761   3.605  13.565  0.00  0.00    +0.000 A 
ATOM     17  C   UNL     1       6.107   3.495  12.187  0.00  0.00    +0.000 A 
ATOM     18  C   UNL     1       7.204   4.264  11.871  0.00  0.00    +0.000 A 
ATOM     19  S   UNL     1       7.810   5.109  13.232  0.00  0.00    +0.000 S 
ENDBRANCH  13  15
ENDBRANCH   1  14
TORSDOF 2
ENDMDL
MODEL 2
REMARK VINA RESULT:      -7.0      2.310      7.031
REMARK  Name = 
REMARK  2 active torsions:
REMARK  status: ('A' for Active; 'I' for Inactive)
REMARK    1  A    between atoms: C_1  and  C_13
REMARK    2  A    between atoms: N_2  and  N_3
REMARK                            x       y       z     vdW  Elec       q    Type
REMARK                         _______ _______ _______ _____ _____    ______ ____
ROOT
ATOM      1  N   UNL     1       6.099   5.694  17.519  0.00  0.00    +0.000 N 
ATOM      2  C   UNL     1       6.310   5.340  16.231  0.00  0.00    +0.000 A 
ATOM      3  N   UNL     1       7.277   5.708  15.427  0.00  0.00    +0.000 NA
ATOM      4  C   UNL     1       7.045   5.025  14.253  0.00  0.00    +0.000 A 
ATOM      5  C   UNL     1       7.789   5.003  13.064  0.00  0.00    +0.000 A 
ATOM      6  C   UNL     1       7.320   4.232  11.992  0.00  0.00    +0.000 A 
ATOM      7  C   UNL     1       6.132   3.504  12.099  0.00  0.00    +0.000 A 
ATOM      8  C   UNL     1       5.383   3.501  13.280  0.00  0.00    +0.000 A 
ATOM      9  C   UNL     1       5.882   4.268  14.335  0.00  0.00    +0.000 A 
ATOM     10  N   UNL     1       5.447   4.476  15.615  0.00  0.00    +0.000 N 
ATOM     11  H   UNL     1       6.828   6.302  17.894  0.00  0.00    +0.000 HD
ATOM     12  H   UNL     1       4.644   4.073  16.073  0.00  0.00    +0.000 HD
ENDROOT
BRANCH   1  14
ATOM     13  C   UNL     1       4.243   5.199  18.701  0.00  0.00    +0.000 C 
ATOM     14  N   UNL     1       5.450   4.849  18.378  0.00  0.00    +0.000 NA
BRANCH  13  15
ATOM     15  C   UNL     1       3.525   4.448  19.700  0.00  0.00    +0.000 A 
ATOM     16  C   UNL     1       2.519   4.879  20.544  0.00  0.00    +0.000 A 
ATOM     17  C   UNL     1       2.018   3.830  21.369  0.00  0.00    +0.000 A 
ATOM     18  C   UNL     1       2.661   2.637  21.128  0.00  0.00    +0.000 A 
ATOM     19  S   UNL     1       3.861   2.787  19.916  0.00  0.00    +0.000 S 
ENDBRANCH  13  15
ENDBRANCH   1  14
TORSDOF 2
ENDMDL
MODEL 3
REMARK VINA RESULT:      -7.0      0.801      1.055
REMARK  Name = 
REMARK  2 active torsions:
REMARK  status: ('A' for Active; 'I' for Inactive)
REMARK    1  A    between atoms: C_1  and  C_13
REMARK    2  A    between atoms: N_2  and  N_3
REMARK                            x       y       z     vdW  Elec       q    Type
REMARK                         _______ _______ _______ _____ _____    ______ ____
ROOT
ATOM      1  N   UNL     1       6.444   4.388  18.047  0.00  0.00    +0.000 N 
ATOM      2  C   UNL     1       5.209   4.215  18.569  0.00  0.00    +0.000 A 
ATOM      3  N   UNL     1       4.626   4.879  19.537  0.00  0.00    +0.000 NA
ATOM      4  C   UNL     1       3.365   4.331  19.638  0.00  0.00    +0.000 A 
ATOM      5  C   UNL     1       2.298   4.682  20.477  0.00  0.00    +0.000 A 
ATOM      6  C   UNL     1       1.110   3.942  20.398  0.00  0.00    +0.000 A 
ATOM      7  C   UNL     1       0.991   2.872  19.508  0.00  0.00    +0.000 A 
ATOM      8  C   UNL     1       2.038   2.515  18.653  0.00  0.00    +0.000 A 
ATOM      9  C   UNL     1       3.204   3.278  18.745  0.00  0.00    +0.000 A 
ATOM     10  N   UNL     1       4.390   3.241  18.065  0.00  0.00    +0.000 N 
ATOM     11  H   UNL     1       6.950   5.172  18.462  0.00  0.00    +0.000 HD
ATOM     12  H   UNL     1       4.656   2.630  17.308  0.00  0.00    +0.000 HD
ENDROOT
BRANCH   1  14
ATOM     13  C   UNL     1       6.703   5.055  15.908  0.00  0.00    +0.000 C 
ATOM     14  N   UNL     1       6.704   4.062  16.744  0.00  0.00    +0.000 NA
BRANCH  13  15
ATOM     15  C   UNL     1       6.835   4.799  14.495  0.00  0.00    +0.000 A 
ATOM     16  C   UNL     1       7.742   5.339  13.604  0.00  0.00    +0.000 A 
ATOM     17  C   UNL     1       7.593   4.807  12.291  0.00  0.00    +0.000 A 
ATOM     18  C   UNL     1       6.574   3.883  12.225  0.00  0.00    +0.000 A 
ATOM     19  S   UNL     1       5.806   3.664  13.739  0.00  0.00    +0.000 S 
ENDBRANCH  13  15
ENDBRANCH   1  14
TORSDOF 2
ENDMDL
MODEL 4
REMARK VINA RESULT:      -6.8      2.599      7.152
REMARK  Name = 
REMARK  2 active torsions:
REMARK  status: ('A' for Active; 'I' for Inactive)
REMARK    1  A    between atoms: C_1  and  C_13
REMARK    2  A    between atoms: N_2  and  N_3
REMARK                            x       y       z     vdW  Elec       q    Type
REMARK                         _______ _______ _______ _____ _____    ______ ____
ROOT
ATOM      1  N   UNL     1       5.810   5.428  17.493  0.00  0.00    +0.000 N 
ATOM      2  C   UNL     1       6.117   5.154  16.205  0.00  0.00    +0.000 A 
ATOM      3  N   UNL     1       7.144   5.562  15.501  0.00  0.00    +0.000 NA
ATOM      4  C   UNL     1       6.999   4.957  14.272  0.00  0.00    +0.000 A 
ATOM      5  C   UNL     1       7.831   5.003  13.144  0.00  0.00    +0.000 A 
ATOM      6  C   UNL     1       7.440   4.305  11.993  0.00  0.00    +0.000 A 
ATOM      7  C   UNL     1       6.244   3.584  11.963  0.00  0.00    +0.000 A 
ATOM      8  C   UNL     1       5.407   3.514  13.081  0.00  0.00    +0.000 A 
ATOM      9  C   UNL     1       5.828   4.208  14.218  0.00  0.00    +0.000 A 
ATOM     10  N   UNL     1       5.298   4.339  15.472  0.00  0.00    +0.000 N 
ATOM     11  H   UNL     1       6.512   6.004  17.960  0.00  0.00    +0.000 HD
ATOM     12  H   UNL     1       4.461   3.916  15.842  0.00  0.00    +0.000 HD
ENDROOT
BRANCH   1  14
ATOM     13  C   UNL     1       4.138   5.050  18.959  0.00  0.00    +0.000 C 
ATOM     14  N   UNL     1       5.093   4.538  18.245  0.00  0.00    +0.000 NA
BRANCH  13  15
ATOM     15  C   UNL     1       3.412   4.215  19.884  0.00  0.00    +0.000 A 
ATOM     16  C   UNL     1       3.667   2.906  20.245  0.00  0.00    +0.000 A 
ATOM     17  C   UNL     1       2.752   2.428  21.228  0.00  0.00    +0.000 A 
ATOM     18  C   UNL     1       1.829   3.387  21.578  0.00  0.00    +0.000 A 
ATOM     19  S   UNL     1       2.068   4.852  20.725  0.00  0.00    +0.000 S 
ENDBRANCH  13  15
ENDBRANCH   1  14
TORSDOF 2
ENDMDL
MODEL 5
REMARK VINA RESULT:      -6.4      5.605      7.118
REMARK  Name = 
REMARK  2 active torsions:
REMARK  status: ('A' for Active; 'I' for Inactive)
REMARK    1  A    between atoms: C_1  and  C_13
REMARK    2  A    between atoms: N_2  and  N_3
REMARK                            x       y       z     vdW  Elec       q    Type
REMARK                         _______ _______ _______ _____ _____    ______ ____
ROOT
ATOM      1  N   UNL     1       8.549   7.850  18.849  0.00  0.00    +0.000 N 
ATOM      2  C   UNL     1       7.727   6.937  18.283  0.00  0.00    +0.000 A 
ATOM      3  N   UNL     1       7.162   5.889  18.833  0.00  0.00    +0.000 NA
ATOM      4  C   UNL     1       6.394   5.332  17.834  0.00  0.00    +0.000 A 
ATOM      5  C   UNL     1       5.542   4.220  17.871  0.00  0.00    +0.000 A 
ATOM      6  C   UNL     1       4.881   3.840  16.694  0.00  0.00    +0.000 A 
ATOM      7  C   UNL     1       5.072   4.548  15.505  0.00  0.00    +0.000 A 
ATOM      8  C   UNL     1       5.907   5.668  15.450  0.00  0.00    +0.000 A 
ATOM      9  C   UNL     1       6.541   6.031  16.640  0.00  0.00    +0.000 A 
ATOM     10  N   UNL     1       7.382   7.059  16.965  0.00  0.00    +0.000 N 
ATOM     11  H   UNL     1       8.700   7.692  19.846  0.00  0.00    +0.000 HD
ATOM     12  H   UNL     1       7.708   7.808  16.373  0.00  0.00    +0.000 HD
ENDROOT
BRANCH   1  14
ATOM     13  C   UNL     1       9.265   9.973  19.107  0.00  0.00    +0.000 C 
ATOM     14  N   UNL     1       8.594   9.134  18.378  0.00  0.00    +0.000 NA
BRANCH  13  15
ATOM     15  C   UNL     1       9.263  11.375  18.767  0.00  0.00    +0.000 A 
ATOM     16  C   UNL     1       8.579  12.013  17.750  0.00  0.00    +0.000 A 
ATOM     17  C   UNL     1       8.791  13.422  17.756  0.00  0.00    +0.000 A 
ATOM     18  C   UNL     1       9.633  13.809  18.774  0.00  0.00    +0.000 A 
ATOM     19  S   UNL     1      10.161  12.478  19.713  0.00  0.00    +0.000 S 
ENDBRANCH  13  15
ENDBRANCH   1  14
TORSDOF 2
ENDMDL
MODEL 6
REMARK VINA RESULT:      -6.4      4.740      6.746
REMARK  Name = 
REMARK  2 active torsions:
REMARK  status: ('A' for Active; 'I' for Inactive)
REMARK    1  A    between atoms: C_1  and  C_13
REMARK    2  A    between atoms: N_2  and  N_3
REMARK                            x       y       z     vdW  Elec       q    Type
REMARK                         _______ _______ _______ _____ _____    ______ ____
ROOT
ATOM      1  N   UNL     1       2.347   7.796  19.046  0.00  0.00    +0.000 N 
ATOM      2  C   UNL     1       1.588   8.584  19.841  0.00  0.00    +0.000 A 
ATOM      3  N   UNL     1       1.011   9.726  19.555  0.00  0.00    +0.000 NA
ATOM      4  C   UNL     1       0.327  10.077  20.699  0.00  0.00    +0.000 A 
ATOM      5  C   UNL     1      -0.500  11.181  20.947  0.00  0.00    +0.000 A 
ATOM      6  C   UNL     1      -1.068  11.322  22.221  0.00  0.00    +0.000 A 
ATOM      7  C   UNL     1      -0.811  10.387  23.227  0.00  0.00    +0.000 A 
ATOM      8  C   UNL     1      -0.001   9.272  22.996  0.00  0.00    +0.000 A 
ATOM      9  C   UNL     1       0.541   9.151  21.714  0.00  0.00    +0.000 A 
ATOM     10  N   UNL     1       1.333   8.202  21.130  0.00  0.00    +0.000 N 
ATOM     11  H   UNL     1       2.432   8.150  18.092  0.00  0.00    +0.000 HD
ATOM     12  H   UNL     1       1.682   7.346  21.534  0.00  0.00    +0.000 HD
ENDROOT
BRANCH   1  14
ATOM     13  C   UNL     1       2.532   5.725  18.173  0.00  0.00    +0.000 C 
ATOM     14  N   UNL     1       2.395   6.443  19.245  0.00  0.00    +0.000 NA
BRANCH  13  15
ATOM     15  C   UNL     1       2.461   4.287  18.263  0.00  0.00    +0.000 A 
ATOM     16  C   UNL     1       1.418   3.504  18.718  0.00  0.00    +0.000 A 
ATOM     17  C   UNL     1       1.702   2.111  18.612  0.00  0.00    +0.000 A 
ATOM     18  C   UNL     1       2.953   1.881  18.085  0.00  0.00    +0.000 A 
ATOM     19  S   UNL     1       3.775   3.339  17.723  0.00  0.00    +0.000 S 
ENDBRANCH  13  15
ENDBRANCH   1  14
TORSDOF 2
ENDMDL
MODEL 7
REMARK VINA RESULT:      -6.3      4.802      8.100
REMARK  Name = 
REMARK  2 active torsions:
REMARK  status: ('A' for Active; 'I' for Inactive)
REMARK    1  A    between atoms: C_1  and  C_13
REMARK    2  A    between atoms: N_2  and  N_3
REMARK                            x       y       z     vdW  Elec       q    Type
REMARK                         _______ _______ _______ _____ _____    ______ ____
ROOT
ATOM      1  N   UNL     1       2.536   6.444  20.126  0.00  0.00    +0.000 N 
ATOM      2  C   UNL     1       3.223   5.989  19.053  0.00  0.00    +0.000 A 
ATOM      3  N   UNL     1       3.455   4.751  18.691  0.00  0.00    +0.000 NA
ATOM      4  C   UNL     1       4.155   4.849  17.509  0.00  0.00    +0.000 A 
ATOM      5  C   UNL     1       4.625   3.839  16.657  0.00  0.00    +0.000 A 
ATOM      6  C   UNL     1       5.339   4.208  15.508  0.00  0.00    +0.000 A 
ATOM      7  C   UNL     1       5.586   5.552  15.219  0.00  0.00    +0.000 A 
ATOM      8  C   UNL     1       5.114   6.575  16.047  0.00  0.00    +0.000 A 
ATOM      9  C   UNL     1       4.395   6.178  17.177  0.00  0.00    +0.000 A 
ATOM     10  N   UNL     1       3.771   6.880  18.171  0.00  0.00    +0.000 N 
ATOM     11  H   UNL     1       2.128   5.697  20.688  0.00  0.00    +0.000 HD
ATOM     12  H   UNL     1       3.692   7.881  18.272  0.00  0.00    +0.000 HD
ENDROOT
BRANCH   1  14
ATOM     13  C   UNL     1       1.334   8.027  21.192  0.00  0.00    +0.000 C 
ATOM     14  N   UNL     1       1.894   7.652  20.083  0.00  0.00    +0.000 NA
BRANCH  13  15
ATOM     15  C   UNL     1       0.523   9.219  21.215  0.00  0.00    +0.000 A 
ATOM     16  C   UNL     1       0.093   9.988  20.151  0.00  0.00    +0.000 A 
ATOM     17  C   UNL     1      -0.734  11.071  20.566  0.00  0.00    +0.000 A 
ATOM     18  C   UNL     1      -0.903  11.093  21.931  0.00  0.00    +0.000 A 
ATOM     19  S   UNL     1      -0.067   9.814  22.703  0.00  0.00    +0.000 S 
ENDBRANCH  13  15
ENDBRANCH   1  14
TORSDOF 2
ENDMDL
MODEL 8
REMARK VINA RESULT:      -6.3      4.871      6.184
REMARK  Name = 
REMARK  2 active torsions:
REMARK  status: ('A' for Active; 'I' for Inactive)
REMARK    1  A    between atoms: C_1  and  C_13
REMARK    2  A    between atoms: N_2  and  N_3
REMARK                            x       y       z     vdW  Elec       q    Type
REMARK                         _______ _______ _______ _____ _____    ______ ____
ROOT
ATOM      1  N   UNL     1       7.677   7.108  16.996  0.00  0.00    +0.000 N 
ATOM      2  C   UNL     1       6.495   6.459  17.097  0.00  0.00    +0.000 A 
ATOM      3  N   UNL     1       6.170   5.269  16.652  0.00  0.00    +0.000 NA
ATOM      4  C   UNL     1       4.870   5.076  17.063  0.00  0.00    +0.000 A 
ATOM      5  C   UNL     1       4.033   3.962  16.903  0.00  0.00    +0.000 A 
ATOM      6  C   UNL     1       2.724   4.028  17.403  0.00  0.00    +0.000 A 
ATOM      7  C   UNL     1       2.258   5.180  18.040  0.00  0.00    +0.000 A 
ATOM      8  C   UNL     1       3.080   6.296  18.222  0.00  0.00    +0.000 A 
ATOM      9  C   UNL     1       4.382   6.197  17.727  0.00  0.00    +0.000 A 
ATOM     10  N   UNL     1       5.448   7.053  17.749  0.00  0.00    +0.000 N 
ATOM     11  H   UNL     1       8.401   6.555  16.536  0.00  0.00    +0.000 HD
ATOM     12  H   UNL     1       5.505   7.967  18.170  0.00  0.00    +0.000 HD
ENDROOT
BRANCH   1  14
ATOM     13  C   UNL     1       8.220   9.234  17.516  0.00  0.00    +0.000 C 
ATOM     14  N   UNL     1       8.056   8.020  17.943  0.00  0.00    +0.000 NA
BRANCH  13  15
ATOM     15  C   UNL     1       8.745  10.239  18.406  0.00  0.00    +0.000 A 
ATOM     16  C   UNL     1       9.281  10.076  19.669  0.00  0.00    +0.000 A 
ATOM     17  C   UNL     1       9.740  11.305  20.225  0.00  0.00    +0.000 A 
ATOM     18  C   UNL     1       9.535  12.363  19.369  0.00  0.00    +0.000 A 
ATOM     19  S   UNL     1       8.792  11.873  17.907  0.00  0.00    +0.000 S 
ENDBRANCH  13  15
ENDBRANCH   1  14
TORSDOF 2
ENDMDL
MODEL 9
REMARK VINA RESULT:      -6.3      1.052      1.052
REMARK  Name = 
REMARK  2 active torsions:
REMARK  status: ('A' for Active; 'I' for Inactive)
REMARK    1  A    between atoms: C_1  and  C_13
REMARK    2  A    between atoms: N_2  and  N_3
REMARK                            x       y       z     vdW  Elec       q    Type
REMARK                         _______ _______ _______ _____ _____    ______ ____
ROOT
ATOM      1  N   UNL     1       5.199   6.013  17.125  0.00  0.00    +0.000 N 
ATOM      2  C   UNL     1       4.222   5.497  17.906  0.00  0.00    +0.000 A 
ATOM      3  N   UNL     1       3.653   6.022  18.963  0.00  0.00    +0.000 NA
ATOM      4  C   UNL     1       2.696   5.108  19.346  0.00  0.00    +0.000 A 
ATOM      5  C   UNL     1       1.761   5.169  20.388  0.00  0.00    +0.000 A 
ATOM      6  C   UNL     1       0.900   4.080  20.583  0.00  0.00    +0.000 A 
ATOM      7  C   UNL     1       0.975   2.952  19.763  0.00  0.00    +0.000 A 
ATOM      8  C   UNL     1       1.890   2.877  18.709  0.00  0.00    +0.000 A 
ATOM      9  C   UNL     1       2.726   3.981  18.531  0.00  0.00    +0.000 A 
ATOM     10  N   UNL     1       3.697   4.269  17.611  0.00  0.00    +0.000 N 
ATOM     11  H   UNL     1       5.483   6.952  17.405  0.00  0.00    +0.000 HD
ATOM     12  H   UNL     1       3.997   3.710  16.827  0.00  0.00    +0.000 HD
ENDROOT
BRANCH   1  14
ATOM     13  C   UNL     1       6.140   4.729  15.528  0.00  0.00    +0.000 C 
ATOM     14  N   UNL     1       5.291   5.671  15.804  0.00  0.00    +0.000 NA
BRANCH  13  15
ATOM     15  C   UNL     1       6.406   4.388  14.152  0.00  0.00    +0.000 A 
ATOM     16  C   UNL     1       5.708   3.526  13.329  0.00  0.00    +0.000 A 
ATOM     17  C   UNL     1       6.248   3.480  12.011  0.00  0.00    +0.000 A 
ATOM     18  C   UNL     1       7.341   4.306  11.876  0.00  0.00    +0.000 A 
ATOM     19  S   UNL     1       7.710   5.127  13.332  0.00  0.00    +0.000 S 
ENDBRANCH  13  15
ENDBRANCH   1  14
TORSDOF 2
ENDMDL
