MODEL 1
REMARK VINA RESULT:      -8.6      0.000      0.000
REMARK  Name = 
REMARK  6 active torsions:
REMARK  status: ('A' for Active; 'I' for Inactive)
REMARK    1  A    between atoms: C_2  and  C_15
REMARK    2  A    between atoms: N_3  and  C_4
REMARK    3  A    between atoms: C_4  and  C_5
REMARK    4  A    between atoms: C_8  and  C_9
REMARK    5  A    between atoms: C_18  and  S_19
REMARK    6  A    between atoms: S_19  and  N_22
REMARK                            x       y       z     vdW  Elec       q    Type
REMARK                         _______ _______ _______ _____ _____    ______ ____
ROOT
ATOM      1  C   UNL     1       2.890   6.956  18.787  0.00  0.00    +0.000 A 
ATOM      2  C   UNL     1       2.247   7.073  20.027  0.00  0.00    +0.000 A 
ATOM      3  C   UNL     1       1.498   8.215  20.322  0.00  0.00    +0.000 A 
ATOM      4  C   UNL     1       1.394   9.240  19.375  0.00  0.00    +0.000 A 
ATOM      5  C   UNL     1       1.998   9.115  18.121  0.00  0.00    +0.000 A 
ATOM      6  C   UNL     1       2.747   7.972  17.829  0.00  0.00    +0.000 A 
ENDROOT
BRANCH   1   8
ATOM      7  O   UNL     1       3.179   4.621  18.614  0.00  0.00    +0.000 OA
ATOM      8  C   UNL     1       3.685   5.728  18.505  0.00  0.00    +0.000 C 
ATOM      9  N   UNL     1       5.001   5.942  18.152  0.00  0.00    +0.000 N 
ATOM     10  H   UNL     1       5.418   6.845  18.332  0.00  0.00    +0.000 HD
BRANCH   9  11
ATOM     11  C   UNL     1       5.901   4.840  17.906  0.00  0.00    +0.000 C 
BRANCH  11  12
ATOM     12  C   UNL     1       6.044   4.585  16.426  0.00  0.00    +0.000 A 
ATOM     13  C   UNL     1       7.151   5.069  15.717  0.00  0.00    +0.000 A 
ATOM     14  C   UNL     1       7.292   4.803  14.352  0.00  0.00    +0.000 A 
ATOM     15  C   UNL     1       6.328   4.049  13.665  0.00  0.00    +0.000 A 
ATOM     16  C   UNL     1       5.217   3.570  14.375  0.00  0.00    +0.000 A 
ATOM     17  C   UNL     1       5.078   3.835  15.740  0.00  0.00    +0.000 A 
BRANCH  15  18
ATOM     18  C   UNL     1       6.479   3.743  12.196  0.00  0.00    +0.000 C 
ATOM     19  F   UNL     1       7.254   4.642  11.527  0.00  0.00    +0.000 F 
ATOM     20  F   UNL     1       7.046   2.525  11.970  0.00  0.00    +0.000 F 
ATOM     21  F   UNL     1       5.284   3.725  11.542  0.00  0.00    +0.000 F 
ENDBRANCH  15  18
ENDBRANCH  11  12
ENDBRANCH   9  11
ENDBRANCH   1   8
BRANCH   4  22
ATOM     22  S   UNL     1       0.372  10.653  19.732  0.00  0.00    +0.000 S 
ATOM     23  O   UNL     1      -0.822  10.164  20.391  0.00  0.00    +0.000 OA
ATOM     24  O   UNL     1       1.214  11.651  20.353  0.00  0.00    +0.000 OA
BRANCH  22  25
ATOM     25  N   UNL     1      -0.122  11.128  18.183  0.00  0.00    +0.000 N 
ATOM     26  C   UNL     1      -1.483  10.828  17.957  0.00  0.00    +0.000 A 
ATOM     27  N   UNL     1      -1.796   9.759  17.271  0.00  0.00    +0.000 NA
ATOM     28  C   UNL     1      -3.175   9.664  17.206  0.00  0.00    +0.000 A 
ATOM     29  C   UNL     1      -3.873  10.731  17.735  0.00  0.00    +0.000 A 
ATOM     30  S   UNL     1      -2.768  11.862  18.402  0.00  0.00    +0.000 S 
ATOM     31  H   UNL     1       0.445  10.578  17.535  0.00  0.00    +0.000 HD
ENDBRANCH  22  25
ENDBRANCH   4  22
TORSDOF 6
ENDMDL
MODEL 2
REMARK VINA RESULT:      -8.5      0.179      1.149
REMARK  Name = 
REMARK  6 active torsions:
REMARK  status: ('A' for Active; 'I' for Inactive)
REMARK    1  A    between atoms: C_2  and  C_15
REMARK    2  A    between atoms: N_3  and  C_4
REMARK    3  A    between atoms: C_4  and  C_5
REMARK    4  A    between atoms: C_8  and  C_9
REMARK    5  A    between atoms: C_18  and  S_19
REMARK    6  A    between atoms: S_19  and  N_22
REMARK                            x       y       z     vdW  Elec       q    Type
REMARK                         _______ _______ _______ _____ _____    ______ ____
ROOT
ATOM      1  C   UNL     1       3.032   6.823  18.794  0.00  0.00    +0.000 A 
ATOM      2  C   UNL     1       2.341   6.900  20.011  0.00  0.00    +0.000 A 
ATOM      3  C   UNL     1       1.552   8.016  20.298  0.00  0.00    +0.000 A 
ATOM      4  C   UNL     1       1.456   9.056  19.366  0.00  0.00    +0.000 A 
ATOM      5  C   UNL     1       2.110   8.970  18.134  0.00  0.00    +0.000 A 
ATOM      6  C   UNL     1       2.899   7.852  17.849  0.00  0.00    +0.000 A 
ENDROOT
BRANCH   1   8
ATOM      7  O   UNL     1       3.406   4.498  18.651  0.00  0.00    +0.000 OA
ATOM      8  C   UNL     1       3.869   5.621  18.519  0.00  0.00    +0.000 C 
ATOM      9  N   UNL     1       5.172   5.878  18.147  0.00  0.00    +0.000 N 
ATOM     10  H   UNL     1       5.557   6.799  18.308  0.00  0.00    +0.000 HD
BRANCH   9  11
ATOM     11  C   UNL     1       6.111   4.808  17.905  0.00  0.00    +0.000 C 
BRANCH  11  12
ATOM     12  C   UNL     1       6.212   4.506  16.431  0.00  0.00    +0.000 A 
ATOM     13  C   UNL     1       5.269   3.684  15.800  0.00  0.00    +0.000 A 
ATOM     14  C   UNL     1       5.352   3.433  14.427  0.00  0.00    +0.000 A 
ATOM     15  C   UNL     1       6.379   3.996  13.656  0.00  0.00    +0.000 A 
ATOM     16  C   UNL     1       7.327   4.813  14.290  0.00  0.00    +0.000 A 
ATOM     17  C   UNL     1       7.242   5.066  15.662  0.00  0.00    +0.000 A 
BRANCH  15  18
ATOM     18  C   UNL     1       6.468   3.744  12.171  0.00  0.00    +0.000 C 
ATOM     19  F   UNL     1       7.021   2.540  11.854  0.00  0.00    +0.000 F 
ATOM     20  F   UNL     1       5.249   3.764  11.563  0.00  0.00    +0.000 F 
ATOM     21  F   UNL     1       7.221   4.679  11.528  0.00  0.00    +0.000 F 
ENDBRANCH  15  18
ENDBRANCH  11  12
ENDBRANCH   9  11
ENDBRANCH   1   8
BRANCH   4  22
ATOM     22  S   UNL     1       0.385  10.435  19.710  0.00  0.00    +0.000 S 
ATOM     23  O   UNL     1      -0.829   9.901  20.294  0.00  0.00    +0.000 OA
ATOM     24  O   UNL     1       1.171  11.432  20.401  0.00  0.00    +0.000 OA
BRANCH  22  25
ATOM     25  N   UNL     1      -0.041  10.944  18.152  0.00  0.00    +0.000 N 
ATOM     26  C   UNL     1      -1.410  10.718  17.888  0.00  0.00    +0.000 A 
ATOM     27  N   UNL     1      -1.760   9.670  17.186  0.00  0.00    +0.000 NA
ATOM     28  C   UNL     1      -3.140   9.649  17.084  0.00  0.00    +0.000 A 
ATOM     29  C   UNL     1      -3.795  10.748  17.601  0.00  0.00    +0.000 A 
ATOM     30  S   UNL     1      -2.651  11.815  18.305  0.00  0.00    +0.000 S 
ATOM     31  H   UNL     1       0.513  10.368  17.516  0.00  0.00    +0.000 HD
ENDBRANCH  22  25
ENDBRANCH   4  22
TORSDOF 6
ENDMDL
MODEL 3
REMARK VINA RESULT:      -8.3      1.708      2.589
REMARK  Name = 
REMARK  6 active torsions:
REMARK  status: ('A' for Active; 'I' for Inactive)
REMARK    1  A    between atoms: C_2  and  C_15
REMARK    2  A    between atoms: N_3  and  C_4
REMARK    3  A    between atoms: C_4  and  C_5
REMARK    4  A    between atoms: C_8  and  C_9
REMARK    5  A    between atoms: C_18  and  S_19
REMARK    6  A    between atoms: S_19  and  N_22
REMARK                            x       y       z     vdW  Elec       q    Type
REMARK                         _______ _______ _______ _____ _____    ______ ____
ROOT
ATOM      1  C   UNL     1       2.854   7.042  18.826  0.00  0.00    +0.000 A 
ATOM      2  C   UNL     1       2.189   7.197  20.050  0.00  0.00    +0.000 A 
ATOM      3  C   UNL     1       1.363   8.303  20.263  0.00  0.00    +0.000 A 
ATOM      4  C   UNL     1       1.205   9.255  19.249  0.00  0.00    +0.000 A 
ATOM      5  C   UNL     1       1.833   9.089  18.011  0.00  0.00    +0.000 A 
ATOM      6  C   UNL     1       2.658   7.981  17.801  0.00  0.00    +0.000 A 
ENDROOT
BRANCH   1   8
ATOM      7  O   UNL     1       3.328   4.732  18.906  0.00  0.00    +0.000 OA
ATOM      8  C   UNL     1       3.731   5.853  18.632  0.00  0.00    +0.000 C 
ATOM      9  N   UNL     1       4.999   6.122  18.162  0.00  0.00    +0.000 N 
ATOM     10  H   UNL     1       5.349   7.070  18.204  0.00  0.00    +0.000 HD
BRANCH   9  11
ATOM     11  C   UNL     1       5.973   5.071  17.981  0.00  0.00    +0.000 C 
BRANCH  11  12
ATOM     12  C   UNL     1       6.075   4.679  16.528  0.00  0.00    +0.000 A 
ATOM     13  C   UNL     1       5.165   3.776  15.963  0.00  0.00    +0.000 A 
ATOM     14  C   UNL     1       5.248   3.440  14.608  0.00  0.00    +0.000 A 
ATOM     15  C   UNL     1       6.242   3.998  13.790  0.00  0.00    +0.000 A 
ATOM     16  C   UNL     1       7.156   4.897  14.359  0.00  0.00    +0.000 A 
ATOM     17  C   UNL     1       7.071   5.234  15.713  0.00  0.00    +0.000 A 
BRANCH  15  18
ATOM     18  C   UNL     1       6.329   3.654  12.323  0.00  0.00    +0.000 C 
ATOM     19  F   UNL     1       5.154   3.815  11.654  0.00  0.00    +0.000 F 
ATOM     20  F   UNL     1       7.242   4.418  11.661  0.00  0.00    +0.000 F 
ATOM     21  F   UNL     1       6.702   2.361  12.113  0.00  0.00    +0.000 F 
ENDBRANCH  15  18
ENDBRANCH  11  12
ENDBRANCH   9  11
ENDBRANCH   1   8
BRANCH   4  22
ATOM     22  S   UNL     1       0.088  10.618  19.504  0.00  0.00    +0.000 S 
ATOM     23  O   UNL     1      -1.253  10.125  19.268  0.00  0.00    +0.000 OA
ATOM     24  O   UNL     1       0.445  11.242  20.758  0.00  0.00    +0.000 OA
BRANCH  22  25
ATOM     25  N   UNL     1       0.448  11.616  18.184  0.00  0.00    +0.000 N 
ATOM     26  C   UNL     1       0.730  12.938  18.594  0.00  0.00    +0.000 A 
ATOM     27  N   UNL     1      -0.203  13.850  18.492  0.00  0.00    +0.000 NA
ATOM     28  C   UNL     1       0.296  15.047  18.976  0.00  0.00    +0.000 A 
ATOM     29  C   UNL     1       1.634  15.044  19.314  0.00  0.00    +0.000 A 
ATOM     30  S   UNL     1       2.276  13.469  19.087  0.00  0.00    +0.000 S 
ATOM     31  H   UNL     1      -0.397  11.626  17.610  0.00  0.00    +0.000 HD
ENDBRANCH  22  25
ENDBRANCH   4  22
TORSDOF 6
ENDMDL
MODEL 4
REMARK VINA RESULT:      -8.3      7.605      9.110
REMARK  Name = 
REMARK  6 active torsions:
REMARK  status: ('A' for Active; 'I' for Inactive)
REMARK    1  A    between atoms: C_2  and  C_15
REMARK    2  A    between atoms: N_3  and  C_4
REMARK    3  A    between atoms: C_4  and  C_5
REMARK    4  A    between atoms: C_8  and  C_9
REMARK    5  A    between atoms: C_18  and  S_19
REMARK    6  A    between atoms: S_19  and  N_22
REMARK                            x       y       z     vdW  Elec       q    Type
REMARK                         _______ _______ _______ _____ _____    ______ ____
ROOT
ATOM      1  C   UNL     1       8.447   9.534  18.310  0.00  0.00    +0.000 A 
ATOM      2  C   UNL     1       9.332   9.816  19.359  0.00  0.00    +0.000 A 
ATOM      3  C   UNL     1       9.799  11.119  19.550  0.00  0.00    +0.000 A 
ATOM      4  C   UNL     1       9.381  12.138  18.687  0.00  0.00    +0.000 A 
ATOM      5  C   UNL     1       8.467  11.874  17.662  0.00  0.00    +0.000 A 
ATOM      6  C   UNL     1       8.002  10.570  17.474  0.00  0.00    +0.000 A 
ENDROOT
BRANCH   1   8
ATOM      7  O   UNL     1       8.465   7.221  18.777  0.00  0.00    +0.000 OA
ATOM      8  C   UNL     1       7.970   8.133  18.131  0.00  0.00    +0.000 C 
ATOM      9  N   UNL     1       6.980   7.960  17.187  0.00  0.00    +0.000 N 
ATOM     10  H   UNL     1       6.804   8.696  16.518  0.00  0.00    +0.000 HD
BRANCH   9  11
ATOM     11  C   UNL     1       6.465   6.648  16.870  0.00  0.00    +0.000 C 
BRANCH  11  12
ATOM     12  C   UNL     1       5.313   6.291  17.777  0.00  0.00    +0.000 A 
ATOM     13  C   UNL     1       4.080   6.946  17.663  0.00  0.00    +0.000 A 
ATOM     14  C   UNL     1       3.008   6.589  18.487  0.00  0.00    +0.000 A 
ATOM     15  C   UNL     1       3.146   5.572  19.443  0.00  0.00    +0.000 A 
ATOM     16  C   UNL     1       4.383   4.922  19.560  0.00  0.00    +0.000 A 
ATOM     17  C   UNL     1       5.454   5.277  18.735  0.00  0.00    +0.000 A 
BRANCH  15  18
ATOM     18  C   UNL     1       1.991   5.169  20.326  0.00  0.00    +0.000 C 
ATOM     19  F   UNL     1       2.372   4.516  21.459  0.00  0.00    +0.000 F 
ATOM     20  F   UNL     1       1.253   6.236  20.742  0.00  0.00    +0.000 F 
ATOM     21  F   UNL     1       1.118   4.336  19.693  0.00  0.00    +0.000 F 
ENDBRANCH  15  18
ENDBRANCH  11  12
ENDBRANCH   9  11
ENDBRANCH   1   8
BRANCH   4  22
ATOM     22  S   UNL     1       9.920  13.807  18.988  0.00  0.00    +0.000 S 
ATOM     23  O   UNL     1       9.201  14.289  20.150  0.00  0.00    +0.000 OA
ATOM     24  O   UNL     1      11.366  13.809  18.950  0.00  0.00    +0.000 OA
BRANCH  22  25
ATOM     25  N   UNL     1       9.259  14.633  17.665  0.00  0.00    +0.000 N 
ATOM     26  C   UNL     1       9.550  16.014  17.716  0.00  0.00    +0.000 A 
ATOM     27  N   UNL     1       8.636  16.842  18.154  0.00  0.00    +0.000 NA
ATOM     28  C   UNL     1       9.159  18.124  18.136  0.00  0.00    +0.000 A 
ATOM     29  C   UNL     1      10.409  18.252  17.566  0.00  0.00    +0.000 A 
ATOM     30  S   UNL     1      10.985  16.704  17.100  0.00  0.00    +0.000 S 
ATOM     31  H   UNL     1       8.248  14.509  17.744  0.00  0.00    +0.000 HD
ENDBRANCH  22  25
ENDBRANCH   4  22
TORSDOF 6
ENDMDL
MODEL 5
REMARK VINA RESULT:      -8.3      1.987      2.800
REMARK  Name = 
REMARK  6 active torsions:
REMARK  status: ('A' for Active; 'I' for Inactive)
REMARK    1  A    between atoms: C_2  and  C_15
REMARK    2  A    between atoms: N_3  and  C_4
REMARK    3  A    between atoms: C_4  and  C_5
REMARK    4  A    between atoms: C_8  and  C_9
REMARK    5  A    between atoms: C_18  and  S_19
REMARK    6  A    between atoms: S_19  and  N_22
REMARK                            x       y       z     vdW  Elec       q    Type
REMARK                         _______ _______ _______ _____ _____    ______ ____
ROOT
ATOM      1  C   UNL     1       2.821   7.041  18.787  0.00  0.00    +0.000 A 
ATOM      2  C   UNL     1       2.713   7.965  17.739  0.00  0.00    +0.000 A 
ATOM      3  C   UNL     1       1.947   9.122  17.902  0.00  0.00    +0.000 A 
ATOM      4  C   UNL     1       1.287   9.352  19.114  0.00  0.00    +0.000 A 
ATOM      5  C   UNL     1       1.420   8.455  20.179  0.00  0.00    +0.000 A 
ATOM      6  C   UNL     1       2.187   7.299  20.013  0.00  0.00    +0.000 A 
ENDROOT
BRANCH   1   8
ATOM      7  O   UNL     1       3.168   4.707  18.790  0.00  0.00    +0.000 OA
ATOM      8  C   UNL     1       3.641   5.815  18.581  0.00  0.00    +0.000 C 
ATOM      9  N   UNL     1       4.942   6.033  18.178  0.00  0.00    +0.000 N 
ATOM     10  H   UNL     1       5.339   6.957  18.275  0.00  0.00    +0.000 HD
BRANCH   9  11
ATOM     11  C   UNL     1       5.866   4.938  17.995  0.00  0.00    +0.000 C 
BRANCH  11  12
ATOM     12  C   UNL     1       6.011   4.597  16.532  0.00  0.00    +0.000 A 
ATOM     13  C   UNL     1       5.122   3.712  15.910  0.00  0.00    +0.000 A 
ATOM     14  C   UNL     1       5.244   3.423  14.547  0.00  0.00    +0.000 A 
ATOM     15  C   UNL     1       6.258   4.014  13.778  0.00  0.00    +0.000 A 
ATOM     16  C   UNL     1       7.151   4.895  14.403  0.00  0.00    +0.000 A 
ATOM     17  C   UNL     1       7.027   5.185  15.765  0.00  0.00    +0.000 A 
BRANCH  15  18
ATOM     18  C   UNL     1       6.388   3.722  12.303  0.00  0.00    +0.000 C 
ATOM     19  F   UNL     1       7.304   4.506  11.670  0.00  0.00    +0.000 F 
ATOM     20  F   UNL     1       6.765   2.436  12.056  0.00  0.00    +0.000 F 
ATOM     21  F   UNL     1       5.217   3.902  11.631  0.00  0.00    +0.000 F 
ENDBRANCH  15  18
ENDBRANCH  11  12
ENDBRANCH   9  11
ENDBRANCH   1   8
BRANCH   4  22
ATOM     22  S   UNL     1       0.380  10.867  19.336  0.00  0.00    +0.000 S 
ATOM     23  O   UNL     1       0.896  11.822  18.377  0.00  0.00    +0.000 OA
ATOM     24  O   UNL     1      -1.026  10.529  19.373  0.00  0.00    +0.000 OA
BRANCH  22  25
ATOM     25  N   UNL     1       0.937  11.389  20.849  0.00  0.00    +0.000 N 
ATOM     26  C   UNL     1      -0.131  11.645  21.736  0.00  0.00    +0.000 A 
ATOM     27  N   UNL     1      -0.524  12.880  21.923  0.00  0.00    +0.000 NA
ATOM     28  C   UNL     1      -1.591  12.875  22.804  0.00  0.00    +0.000 A 
ATOM     29  C   UNL     1      -1.899  11.651  23.362  0.00  0.00    +0.000 A 
ATOM     30  S   UNL     1      -0.865  10.448  22.708  0.00  0.00    +0.000 S 
ATOM     31  H   UNL     1       1.430  12.266  20.670  0.00  0.00    +0.000 HD
ENDBRANCH  22  25
ENDBRANCH   4  22
TORSDOF 6
ENDMDL
MODEL 6
REMARK VINA RESULT:      -8.2      5.923     10.539
REMARK  Name = 
REMARK  6 active torsions:
REMARK  status: ('A' for Active; 'I' for Inactive)
REMARK    1  A    between atoms: C_2  and  C_15
REMARK    2  A    between atoms: N_3  and  C_4
REMARK    3  A    between atoms: C_4  and  C_5
REMARK    4  A    between atoms: C_8  and  C_9
REMARK    5  A    between atoms: C_18  and  S_19
REMARK    6  A    between atoms: S_19  and  N_22
REMARK                            x       y       z     vdW  Elec       q    Type
REMARK                         _______ _______ _______ _____ _____    ______ ____
ROOT
ATOM      1  C   UNL     1       1.190   9.271  19.397  0.00  0.00    +0.000 A 
ATOM      2  C   UNL     1       1.289   8.462  20.537  0.00  0.00    +0.000 A 
ATOM      3  C   UNL     1       1.926   7.221  20.461  0.00  0.00    +0.000 A 
ATOM      4  C   UNL     1       2.462   6.790  19.243  0.00  0.00    +0.000 A 
ATOM      5  C   UNL     1       2.403   7.607  18.110  0.00  0.00    +0.000 A 
ATOM      6  C   UNL     1       1.766   8.848  18.188  0.00  0.00    +0.000 A 
ENDROOT
BRANCH   1   8
ATOM      7  O   UNL     1       0.545  11.225  20.550  0.00  0.00    +0.000 OA
ATOM      8  C   UNL     1       0.501  10.587  19.509  0.00  0.00    +0.000 C 
ATOM      9  N   UNL     1      -0.191  10.992  18.386  0.00  0.00    +0.000 N 
ATOM     10  H   UNL     1      -0.401  10.314  17.667  0.00  0.00    +0.000 HD
BRANCH   9  11
ATOM     11  C   UNL     1      -0.951  12.220  18.374  0.00  0.00    +0.000 C 
BRANCH  11  12
ATOM     12  C   UNL     1      -2.430  11.935  18.464  0.00  0.00    +0.000 A 
ATOM     13  C   UNL     1      -3.205  12.486  19.492  0.00  0.00    +0.000 A 
ATOM     14  C   UNL     1      -4.581  12.242  19.553  0.00  0.00    +0.000 A 
ATOM     15  C   UNL     1      -5.210  11.442  18.587  0.00  0.00    +0.000 A 
ATOM     16  C   UNL     1      -4.431  10.885  17.562  0.00  0.00    +0.000 A 
ATOM     17  C   UNL     1      -3.057  11.132  17.501  0.00  0.00    +0.000 A 
BRANCH  15  18
ATOM     18  C   UNL     1      -6.696  11.186  18.634  0.00  0.00    +0.000 C 
ATOM     19  F   UNL     1      -7.029   9.873  18.487  0.00  0.00    +0.000 F 
ATOM     20  F   UNL     1      -7.258  11.582  19.811  0.00  0.00    +0.000 F 
ATOM     21  F   UNL     1      -7.371  11.852  17.656  0.00  0.00    +0.000 F 
ENDBRANCH  15  18
ENDBRANCH  11  12
ENDBRANCH   9  11
ENDBRANCH   1   8
BRANCH   4  22
ATOM     22  S   UNL     1       3.340   5.243  19.179  0.00  0.00    +0.000 S 
ATOM     23  O   UNL     1       2.892   4.446  20.303  0.00  0.00    +0.000 OA
ATOM     24  O   UNL     1       3.245   4.746  17.825  0.00  0.00    +0.000 OA
BRANCH  22  25
ATOM     25  N   UNL     1       4.920   5.722  19.559  0.00  0.00    +0.000 N 
ATOM     26  C   UNL     1       5.794   5.545  18.464  0.00  0.00    +0.000 A 
ATOM     27  N   UNL     1       6.571   4.492  18.431  0.00  0.00    +0.000 NA
ATOM     28  C   UNL     1       7.308   4.524  17.261  0.00  0.00    +0.000 A 
ATOM     29  C   UNL     1       7.167   5.665  16.497  0.00  0.00    +0.000 A 
ATOM     30  S   UNL     1       6.016   6.704  17.230  0.00  0.00    +0.000 S 
ATOM     31  H   UNL     1       5.217   5.105  20.317  0.00  0.00    +0.000 HD
ENDBRANCH  22  25
ENDBRANCH   4  22
TORSDOF 6
ENDMDL
MODEL 7
REMARK VINA RESULT:      -8.2      1.026      1.313
REMARK  Name = 
REMARK  6 active torsions:
REMARK  status: ('A' for Active; 'I' for Inactive)
REMARK    1  A    between atoms: C_2  and  C_15
REMARK    2  A    between atoms: N_3  and  C_4
REMARK    3  A    between atoms: C_4  and  C_5
REMARK    4  A    between atoms: C_8  and  C_9
REMARK    5  A    between atoms: C_18  and  S_19
REMARK    6  A    between atoms: S_19  and  N_22
REMARK                            x       y       z     vdW  Elec       q    Type
REMARK                         _______ _______ _______ _____ _____    ______ ____
ROOT
ATOM      1  C   UNL     1       2.747   7.211  18.802  0.00  0.00    +0.000 A 
ATOM      2  C   UNL     1       2.124   7.418  20.041  0.00  0.00    +0.000 A 
ATOM      3  C   UNL     1       1.321   8.543  20.242  0.00  0.00    +0.000 A 
ATOM      4  C   UNL     1       1.143   9.462  19.201  0.00  0.00    +0.000 A 
ATOM      5  C   UNL     1       1.727   9.244  17.950  0.00  0.00    +0.000 A 
ATOM      6  C   UNL     1       2.530   8.117  17.752  0.00  0.00    +0.000 A 
ENDROOT
BRANCH   1   8
ATOM      7  O   UNL     1       3.195   4.900  18.955  0.00  0.00    +0.000 OA
ATOM      8  C   UNL     1       3.600   6.003  18.622  0.00  0.00    +0.000 C 
ATOM      9  N   UNL     1       4.853   6.236  18.093  0.00  0.00    +0.000 N 
ATOM     10  H   UNL     1       5.215   7.180  18.084  0.00  0.00    +0.000 HD
BRANCH   9  11
ATOM     11  C   UNL     1       5.805   5.165  17.917  0.00  0.00    +0.000 C 
BRANCH  11  12
ATOM     12  C   UNL     1       5.950   4.811  16.457  0.00  0.00    +0.000 A 
ATOM     13  C   UNL     1       7.115   5.138  15.751  0.00  0.00    +0.000 A 
ATOM     14  C   UNL     1       7.254   4.780  14.406  0.00  0.00    +0.000 A 
ATOM     15  C   UNL     1       6.231   4.090  13.739  0.00  0.00    +0.000 A 
ATOM     16  C   UNL     1       5.063   3.770  14.445  0.00  0.00    +0.000 A 
ATOM     17  C   UNL     1       4.925   4.126  15.790  0.00  0.00    +0.000 A 
BRANCH  15  18
ATOM     18  C   UNL     1       6.378   3.686  12.293  0.00  0.00    +0.000 C 
ATOM     19  F   UNL     1       6.862   2.424  12.125  0.00  0.00    +0.000 F 
ATOM     20  F   UNL     1       5.196   3.723  11.617  0.00  0.00    +0.000 F 
ATOM     21  F   UNL     1       7.225   4.503  11.607  0.00  0.00    +0.000 F 
ENDBRANCH  15  18
ENDBRANCH  11  12
ENDBRANCH   9  11
ENDBRANCH   1   8
BRANCH   4  22
ATOM     22  S   UNL     1       0.054  10.849  19.444  0.00  0.00    +0.000 S 
ATOM     23  O   UNL     1       0.248  11.316  20.801  0.00  0.00    +0.000 OA
ATOM     24  O   UNL     1       0.225  11.737  18.316  0.00  0.00    +0.000 OA
BRANCH  22  25
ATOM     25  N   UNL     1      -1.468  10.105  19.429  0.00  0.00    +0.000 N 
ATOM     26  C   UNL     1      -2.241  10.525  18.324  0.00  0.00    +0.000 A 
ATOM     27  N   UNL     1      -3.157  11.443  18.499  0.00  0.00    +0.000 NA
ATOM     28  C   UNL     1      -3.757  11.706  17.280  0.00  0.00    +0.000 A 
ATOM     29  C   UNL     1      -3.370  10.891  16.236  0.00  0.00    +0.000 A 
ATOM     30  S   UNL     1      -2.159   9.803  16.779  0.00  0.00    +0.000 S 
ATOM     31  H   UNL     1      -1.930  10.412  20.286  0.00  0.00    +0.000 HD
ENDBRANCH  22  25
ENDBRANCH   4  22
TORSDOF 6
ENDMDL
MODEL 8
REMARK VINA RESULT:      -8.2      7.490      9.007
REMARK  Name = 
REMARK  6 active torsions:
REMARK  status: ('A' for Active; 'I' for Inactive)
REMARK    1  A    between atoms: C_2  and  C_15
REMARK    2  A    between atoms: N_3  and  C_4
REMARK    3  A    between atoms: C_4  and  C_5
REMARK    4  A    between atoms: C_8  and  C_9
REMARK    5  A    between atoms: C_18  and  S_19
REMARK    6  A    between atoms: S_19  and  N_22
REMARK                            x       y       z     vdW  Elec       q    Type
REMARK                         _______ _______ _______ _____ _____    ______ ____
ROOT
ATOM      1  C   UNL     1       8.495   9.473  18.292  0.00  0.00    +0.000 A 
ATOM      2  C   UNL     1       8.102  10.494  17.416  0.00  0.00    +0.000 A 
ATOM      3  C   UNL     1       8.578  11.795  17.598  0.00  0.00    +0.000 A 
ATOM      4  C   UNL     1       9.448  12.073  18.659  0.00  0.00    +0.000 A 
ATOM      5  C   UNL     1       9.877  11.053  19.514  0.00  0.00    +0.000 A 
ATOM      6  C   UNL     1       9.399   9.753  19.329  0.00  0.00    +0.000 A 
ENDROOT
BRANCH   1   8
ATOM      7  O   UNL     1       8.402   7.155  18.717  0.00  0.00    +0.000 OA
ATOM      8  C   UNL     1       7.966   8.098  18.074  0.00  0.00    +0.000 C 
ATOM      9  N   UNL     1       7.000   7.982  17.097  0.00  0.00    +0.000 N 
ATOM     10  H   UNL     1       6.876   8.737  16.436  0.00  0.00    +0.000 HD
BRANCH   9  11
ATOM     11  C   UNL     1       6.440   6.700  16.741  0.00  0.00    +0.000 C 
BRANCH  11  12
ATOM     12  C   UNL     1       5.297   6.340  17.658  0.00  0.00    +0.000 A 
ATOM     13  C   UNL     1       5.432   5.321  18.609  0.00  0.00    +0.000 A 
ATOM     14  C   UNL     1       4.379   5.014  19.475  0.00  0.00    +0.000 A 
ATOM     15  C   UNL     1       3.167   5.718  19.409  0.00  0.00    +0.000 A 
ATOM     16  C   UNL     1       3.030   6.734  18.452  0.00  0.00    +0.000 A 
ATOM     17  C   UNL     1       4.085   7.042  17.587  0.00  0.00    +0.000 A 
BRANCH  15  18
ATOM     18  C   UNL     1       2.030   5.405  20.350  0.00  0.00    +0.000 C 
ATOM     19  F   UNL     1       2.431   4.829  21.518  0.00  0.00    +0.000 F 
ATOM     20  F   UNL     1       1.325   6.515  20.706  0.00  0.00    +0.000 F 
ATOM     21  F   UNL     1       1.124   4.547  19.804  0.00  0.00    +0.000 F 
ENDBRANCH  15  18
ENDBRANCH  11  12
ENDBRANCH   9  11
ENDBRANCH   1   8
BRANCH   4  22
ATOM     22  S   UNL     1      10.110  13.716  18.833  0.00  0.00    +0.000 S 
ATOM     23  O   UNL     1       9.552  14.279  20.045  0.00  0.00    +0.000 OA
ATOM     24  O   UNL     1      11.540  13.630  18.637  0.00  0.00    +0.000 OA
BRANCH  22  25
ATOM     25  N   UNL     1       9.353  14.534  17.557  0.00  0.00    +0.000 N 
ATOM     26  C   UNL     1       9.232  15.915  17.825  0.00  0.00    +0.000 A 
ATOM     27  N   UNL     1       8.087  16.385  18.250  0.00  0.00    +0.000 NA
ATOM     28  C   UNL     1       8.222  17.746  18.466  0.00  0.00    +0.000 A 
ATOM     29  C   UNL     1       9.427  18.296  18.078  0.00  0.00    +0.000 A 
ATOM     30  S   UNL     1      10.457  17.057  17.488  0.00  0.00    +0.000 S 
ATOM     31  H   UNL     1       8.416  14.131  17.492  0.00  0.00    +0.000 HD
ENDBRANCH  22  25
ENDBRANCH   4  22
TORSDOF 6
ENDMDL
MODEL 9
REMARK VINA RESULT:      -8.2      1.930      2.784
REMARK  Name = 
REMARK  6 active torsions:
REMARK  status: ('A' for Active; 'I' for Inactive)
REMARK    1  A    between atoms: C_2  and  C_15
REMARK    2  A    between atoms: N_3  and  C_4
REMARK    3  A    between atoms: C_4  and  C_5
REMARK    4  A    between atoms: C_8  and  C_9
REMARK    5  A    between atoms: C_18  and  S_19
REMARK    6  A    between atoms: S_19  and  N_22
REMARK                            x       y       z     vdW  Elec       q    Type
REMARK                         _______ _______ _______ _____ _____    ______ ____
ROOT
ATOM      1  C   UNL     1       2.835   7.132  18.866  0.00  0.00    +0.000 A 
ATOM      2  C   UNL     1       2.732   8.015  17.782  0.00  0.00    +0.000 A 
ATOM      3  C   UNL     1       1.885   9.123  17.861  0.00  0.00    +0.000 A 
ATOM      4  C   UNL     1       1.139   9.345  19.024  0.00  0.00    +0.000 A 
ATOM      5  C   UNL     1       1.266   8.492  20.125  0.00  0.00    +0.000 A 
ATOM      6  C   UNL     1       2.114   7.384  20.043  0.00  0.00    +0.000 A 
ENDROOT
BRANCH   1   8
ATOM      7  O   UNL     1       3.475   4.905  19.309  0.00  0.00    +0.000 OA
ATOM      8  C   UNL     1       3.744   5.958  18.749  0.00  0.00    +0.000 C 
ATOM      9  N   UNL     1       4.888   6.164  18.008  0.00  0.00    +0.000 N 
ATOM     10  H   UNL     1       5.173   7.111  17.796  0.00  0.00    +0.000 HD
BRANCH   9  11
ATOM     11  C   UNL     1       5.885   5.130  17.859  0.00  0.00    +0.000 C 
BRANCH  11  12
ATOM     12  C   UNL     1       6.027   4.726  16.412  0.00  0.00    +0.000 A 
ATOM     13  C   UNL     1       5.004   4.026  15.759  0.00  0.00    +0.000 A 
ATOM     14  C   UNL     1       5.130   3.680  14.410  0.00  0.00    +0.000 A 
ATOM     15  C   UNL     1       6.280   4.026  13.686  0.00  0.00    +0.000 A 
ATOM     16  C   UNL     1       7.306   4.721  14.342  0.00  0.00    +0.000 A 
ATOM     17  C   UNL     1       7.179   5.068  15.691  0.00  0.00    +0.000 A 
BRANCH  15  18
ATOM     18  C   UNL     1       6.418   3.672  12.225  0.00  0.00    +0.000 C 
ATOM     19  F   UNL     1       6.933   2.429  12.011  0.00  0.00    +0.000 F 
ATOM     20  F   UNL     1       5.226   3.698  11.566  0.00  0.00    +0.000 F 
ATOM     21  F   UNL     1       7.234   4.532  11.556  0.00  0.00    +0.000 F 
ENDBRANCH  15  18
ENDBRANCH  11  12
ENDBRANCH   9  11
ENDBRANCH   1   8
BRANCH   4  22
ATOM     22  S   UNL     1       0.125  10.803  19.141  0.00  0.00    +0.000 S 
ATOM     23  O   UNL     1       1.015  11.944  19.193  0.00  0.00    +0.000 OA
ATOM     24  O   UNL     1      -0.900  10.700  18.127  0.00  0.00    +0.000 OA
BRANCH  22  25
ATOM     25  N   UNL     1      -0.522  10.655  20.700  0.00  0.00    +0.000 N 
ATOM     26  C   UNL     1      -0.871  11.912  21.239  0.00  0.00    +0.000 A 
ATOM     27  N   UNL     1      -0.058  12.491  22.086  0.00  0.00    +0.000 NA
ATOM     28  C   UNL     1      -0.598  13.712  22.450  0.00  0.00    +0.000 A 
ATOM     29  C   UNL     1      -1.866  13.972  21.971  0.00  0.00    +0.000 A 
ATOM     30  S   UNL     1      -2.374  12.676  20.969  0.00  0.00    +0.000 S 
ATOM     31  H   UNL     1       0.226  10.252  21.268  0.00  0.00    +0.000 HD
ENDBRANCH  22  25
ENDBRANCH   4  22
TORSDOF 6
ENDMDL
