MODEL 1
REMARK VINA RESULT:     -10.6      0.000      0.000
REMARK  Name = 
REMARK  4 active torsions:
REMARK  status: ('A' for Active; 'I' for Inactive)
REMARK    1  A    between atoms: C_1  and  O_2
REMARK    2  A    between atoms: O_2  and  C_3
REMARK    3  A    between atoms: C_8  and  N_9
REMARK    4  A    between atoms: C_16  and  C_17
REMARK                            x       y       z     vdW  Elec       q    Type
REMARK                         _______ _______ _______ _____ _____    ______ ____
ROOT
ATOM      1  N   UNL     1       4.102   4.226  18.522  0.00  0.00    +0.000 N 
ATOM      2  C   UNL     1       3.934   3.033  19.196  0.00  0.00    +0.000 C 
ATOM      3  O   UNL     1       4.557   1.995  18.973  0.00  0.00    +0.000 OA
ATOM      4  N   UNL     1       2.977   2.994  20.165  0.00  0.00    +0.000 N 
ATOM      5  C   UNL     1       2.102   3.980  20.506  0.00  0.00    +0.000 C 
ATOM      6  O   UNL     1       1.157   3.751  21.258  0.00  0.00    +0.000 OA
ATOM      7  C   UNL     1       2.403   5.294  19.913  0.00  0.00    +0.000 C 
ATOM      8  C   UNL     1       1.711   6.333  20.411  0.00  0.00    +0.000 C 
ATOM      9  C   UNL     1       3.445   5.409  18.868  0.00  0.00    +0.000 C 
ATOM     10  O   UNL     1       3.749   6.514  18.422  0.00  0.00    +0.000 OA
ATOM     11  H   UNL     1       2.811   2.090  20.570  0.00  0.00    +0.000 HD
ENDROOT
BRANCH   8  12
ATOM     12  C   UNL     1       1.662   7.767  20.070  0.00  0.00    +0.000 A 
ATOM     13  C   UNL     1       2.009   8.155  18.755  0.00  0.00    +0.000 A 
ATOM     14  C   UNL     1       1.519   9.340  18.169  0.00  0.00    +0.000 A 
ATOM     15  C   UNL     1       0.569  10.028  18.904  0.00  0.00    +0.000 A 
ATOM     16  C   UNL     1       0.329   9.695  20.226  0.00  0.00    +0.000 A 
ATOM     17  C   UNL     1      -0.532  10.600  20.812  0.00  0.00    +0.000 A 
ATOM     18  C   UNL     1      -0.505  10.797  22.183  0.00  0.00    +0.000 A 
ATOM     19  C   UNL     1       0.267   9.878  22.917  0.00  0.00    +0.000 A 
ATOM     20  C   UNL     1       0.896   8.770  22.302  0.00  0.00    +0.000 A 
ATOM     21  C   UNL     1       0.965   8.687  20.892  0.00  0.00    +0.000 A 
ATOM     22  C   UNL     1      -1.232  11.352  19.735  0.00  0.00    +0.000 C 
ATOM     23  C   UNL     1      -0.212  11.256  18.560  0.00  0.00    +0.000 C 
ENDBRANCH   8  12
BRANCH   1  29
ATOM     24  C   UNL     1       6.455   4.576  17.833  0.00  0.00    +0.000 A 
ATOM     25  C   UNL     1       7.409   4.605  16.811  0.00  0.00    +0.000 A 
ATOM     26  C   UNL     1       7.037   4.419  15.477  0.00  0.00    +0.000 A 
ATOM     27  C   UNL     1       5.697   4.206  15.157  0.00  0.00    +0.000 A 
ATOM     28  C   UNL     1       4.742   4.139  16.160  0.00  0.00    +0.000 A 
ATOM     29  C   UNL     1       5.109   4.302  17.512  0.00  0.00    +0.000 A 
BRANCH  24  31
ATOM     30  C   UNL     1       7.785   5.782  19.370  0.00  0.00    +0.000 C 
ATOM     31  O   UNL     1       6.751   4.829  19.152  0.00  0.00    +0.000 OA
ENDBRANCH  24  31
ENDBRANCH   1  29
TORSDOF 3
ENDMDL
MODEL 2
REMARK VINA RESULT:      -8.8      0.851      1.754
REMARK  Name = 
REMARK  4 active torsions:
REMARK  status: ('A' for Active; 'I' for Inactive)
REMARK    1  A    between atoms: C_1  and  O_2
REMARK    2  A    between atoms: O_2  and  C_3
REMARK    3  A    between atoms: C_8  and  N_9
REMARK    4  A    between atoms: C_16  and  C_17
REMARK                            x       y       z     vdW  Elec       q    Type
REMARK                         _______ _______ _______ _____ _____    ______ ____
ROOT
ATOM      1  N   UNL     1       4.346   4.605  19.329  0.00  0.00    +0.000 N 
ATOM      2  C   UNL     1       4.007   3.366  19.836  0.00  0.00    +0.000 C 
ATOM      3  O   UNL     1       4.721   2.363  19.801  0.00  0.00    +0.000 OA
ATOM      4  N   UNL     1       2.769   3.237  20.389  0.00  0.00    +0.000 N 
ATOM      5  C   UNL     1       1.781   4.173  20.439  0.00  0.00    +0.000 C 
ATOM      6  O   UNL     1       0.642   3.869  20.786  0.00  0.00    +0.000 OA
ATOM      7  C   UNL     1       2.209   5.531  20.061  0.00  0.00    +0.000 C 
ATOM      8  C   UNL     1       1.332   6.515  20.326  0.00  0.00    +0.000 C 
ATOM      9  C   UNL     1       3.550   5.743  19.471  0.00  0.00    +0.000 C 
ATOM     10  O   UNL     1       3.938   6.883  19.221  0.00  0.00    +0.000 OA
ATOM     11  H   UNL     1       2.515   2.304  20.662  0.00  0.00    +0.000 HD
ENDROOT
BRANCH   8  12
ATOM     12  C   UNL     1       1.337   7.966  20.062  0.00  0.00    +0.000 A 
ATOM     13  C   UNL     1       1.714   8.411  18.774  0.00  0.00    +0.000 A 
ATOM     14  C   UNL     1       1.273   9.642  18.246  0.00  0.00    +0.000 A 
ATOM     15  C   UNL     1       0.337  10.322  19.007  0.00  0.00    +0.000 A 
ATOM     16  C   UNL     1       0.069   9.928  20.307  0.00  0.00    +0.000 A 
ATOM     17  C   UNL     1      -0.768  10.831  20.930  0.00  0.00    +0.000 A 
ATOM     18  C   UNL     1      -0.752  10.952  22.310  0.00  0.00    +0.000 A 
ATOM     19  C   UNL     1      -0.022   9.969  23.002  0.00  0.00    +0.000 A 
ATOM     20  C   UNL     1       0.576   8.875  22.336  0.00  0.00    +0.000 A 
ATOM     21  C   UNL     1       0.662   8.865  20.925  0.00  0.00    +0.000 A 
ATOM     22  C   UNL     1      -1.428  11.663  19.888  0.00  0.00    +0.000 C 
ATOM     23  C   UNL     1      -0.397  11.594  18.720  0.00  0.00    +0.000 C 
ENDBRANCH   8  12
BRANCH   1  29
ATOM     24  C   UNL     1       5.901   4.455  17.408  0.00  0.00    +0.000 A 
ATOM     25  C   UNL     1       7.180   4.674  16.886  0.00  0.00    +0.000 A 
ATOM     26  C   UNL     1       8.214   5.154  17.695  0.00  0.00    +0.000 A 
ATOM     27  C   UNL     1       7.969   5.415  19.043  0.00  0.00    +0.000 A 
ATOM     28  C   UNL     1       6.700   5.237  19.569  0.00  0.00    +0.000 A 
ATOM     29  C   UNL     1       5.644   4.775  18.756  0.00  0.00    +0.000 A 
BRANCH  24  31
ATOM     30  C   UNL     1       5.012   3.999  15.266  0.00  0.00    +0.000 C 
ATOM     31  O   UNL     1       4.869   3.912  16.679  0.00  0.00    +0.000 OA
ENDBRANCH  24  31
ENDBRANCH   1  29
TORSDOF 3
ENDMDL
MODEL 3
REMARK VINA RESULT:      -8.7      4.944      8.966
REMARK  Name = 
REMARK  4 active torsions:
REMARK  status: ('A' for Active; 'I' for Inactive)
REMARK    1  A    between atoms: C_1  and  O_2
REMARK    2  A    between atoms: O_2  and  C_3
REMARK    3  A    between atoms: C_8  and  N_9
REMARK    4  A    between atoms: C_16  and  C_17
REMARK                            x       y       z     vdW  Elec       q    Type
REMARK                         _______ _______ _______ _____ _____    ______ ____
ROOT
ATOM      1  N   UNL     1       0.867  13.829  19.589  0.00  0.00    +0.000 N 
ATOM      2  C   UNL     1      -0.024  14.412  18.710  0.00  0.00    +0.000 C 
ATOM      3  O   UNL     1      -0.129  15.620  18.499  0.00  0.00    +0.000 OA
ATOM      4  N   UNL     1      -0.877  13.582  18.046  0.00  0.00    +0.000 N 
ATOM      5  C   UNL     1      -1.012  12.236  18.200  0.00  0.00    +0.000 C 
ATOM      6  O   UNL     1      -1.954  11.635  17.688  0.00  0.00    +0.000 OA
ATOM      7  C   UNL     1       0.051  11.605  19.000  0.00  0.00    +0.000 C 
ATOM      8  C   UNL     1       0.084  10.261  18.973  0.00  0.00    +0.000 C 
ATOM      9  C   UNL     1       1.023  12.448  19.731  0.00  0.00    +0.000 C 
ATOM     10  O   UNL     1       1.954  11.926  20.341  0.00  0.00    +0.000 OA
ATOM     11  H   UNL     1      -1.575  14.040  17.487  0.00  0.00    +0.000 HD
ENDROOT
BRANCH   8  12
ATOM     12  C   UNL     1       0.922   9.259  19.659  0.00  0.00    +0.000 A 
ATOM     13  C   UNL     1       0.592   8.908  20.988  0.00  0.00    +0.000 A 
ATOM     14  C   UNL     1       0.941   7.660  21.543  0.00  0.00    +0.000 A 
ATOM     15  C   UNL     1       1.502   6.747  20.666  0.00  0.00    +0.000 A 
ATOM     16  C   UNL     1       1.916   7.147  19.407  0.00  0.00    +0.000 A 
ATOM     17  C   UNL     1       2.585   6.125  18.764  0.00  0.00    +0.000 A 
ATOM     18  C   UNL     1       3.515   6.417  17.780  0.00  0.00    +0.000 A 
ATOM     19  C   UNL     1       3.551   7.756  17.350  0.00  0.00    +0.000 A 
ATOM     20  C   UNL     1       2.630   8.719  17.825  0.00  0.00    +0.000 A 
ATOM     21  C   UNL     1       1.797   8.419  18.927  0.00  0.00    +0.000 A 
ATOM     22  C   UNL     1       2.260   4.843  19.445  0.00  0.00    +0.000 C 
ATOM     23  C   UNL     1       1.910   5.325  20.887  0.00  0.00    +0.000 C 
ENDBRANCH   8  12
BRANCH   1  29
ATOM     24  C   UNL     1       2.986  15.106  19.691  0.00  0.00    +0.000 A 
ATOM     25  C   UNL     1       3.834  15.959  20.404  0.00  0.00    +0.000 A 
ATOM     26  C   UNL     1       3.532  16.341  21.714  0.00  0.00    +0.000 A 
ATOM     27  C   UNL     1       2.372  15.862  22.322  0.00  0.00    +0.000 A 
ATOM     28  C   UNL     1       1.502  15.045  21.618  0.00  0.00    +0.000 A 
ATOM     29  C   UNL     1       1.785  14.672  20.288  0.00  0.00    +0.000 A 
BRANCH  24  31
ATOM     30  C   UNL     1       3.628  15.631  17.478  0.00  0.00    +0.000 C 
ATOM     31  O   UNL     1       3.271  14.635  18.430  0.00  0.00    +0.000 OA
ENDBRANCH  24  31
ENDBRANCH   1  29
TORSDOF 3
ENDMDL
MODEL 4
REMARK VINA RESULT:      -8.7      6.867      9.776
REMARK  Name = 
REMARK  4 active torsions:
REMARK  status: ('A' for Active; 'I' for Inactive)
REMARK    1  A    between atoms: C_1  and  O_2
REMARK    2  A    between atoms: O_2  and  C_3
REMARK    3  A    between atoms: C_8  and  N_9
REMARK    4  A    between atoms: C_16  and  C_17
REMARK                            x       y       z     vdW  Elec       q    Type
REMARK                         _______ _______ _______ _____ _____    ______ ____
ROOT
ATOM      1  N   UNL     1      -1.482  11.832  18.921  0.00  0.00    +0.000 N 
ATOM      2  C   UNL     1      -0.688  10.927  18.246  0.00  0.00    +0.000 C 
ATOM      3  O   UNL     1       0.538  10.852  18.332  0.00  0.00    +0.000 OA
ATOM      4  N   UNL     1      -1.311  10.068  17.391  0.00  0.00    +0.000 N 
ATOM      5  C   UNL     1      -2.631  10.041  17.058  0.00  0.00    +0.000 C 
ATOM      6  O   UNL     1      -3.032   9.348  16.125  0.00  0.00    +0.000 OA
ATOM      7  C   UNL     1      -3.491  10.883  17.907  0.00  0.00    +0.000 C 
ATOM      8  C   UNL     1      -4.815  10.698  17.765  0.00  0.00    +0.000 C 
ATOM      9  C   UNL     1      -2.878  11.824  18.872  0.00  0.00    +0.000 C 
ATOM     10  O   UNL     1      -3.592  12.476  19.632  0.00  0.00    +0.000 OA
ATOM     11  H   UNL     1      -0.700   9.488  16.844  0.00  0.00    +0.000 HD
ENDROOT
BRANCH   8  12
ATOM     12  C   UNL     1      -5.994  11.355  18.360  0.00  0.00    +0.000 A 
ATOM     13  C   UNL     1      -6.550  10.797  19.534  0.00  0.00    +0.000 A 
ATOM     14  C   UNL     1      -7.287  11.569  20.456  0.00  0.00    +0.000 A 
ATOM     15  C   UNL     1      -7.312  12.932  20.214  0.00  0.00    +0.000 A 
ATOM     16  C   UNL     1      -6.860  13.439  19.008  0.00  0.00    +0.000 A 
ATOM     17  C   UNL     1      -7.121  14.792  18.916  0.00  0.00    +0.000 A 
ATOM     18  C   UNL     1      -7.256  15.388  17.673  0.00  0.00    +0.000 A 
ATOM     19  C   UNL     1      -6.892  14.594  16.571  0.00  0.00    +0.000 A 
ATOM     20  C   UNL     1      -6.335  13.304  16.729  0.00  0.00    +0.000 A 
ATOM     21  C   UNL     1      -6.350  12.677  17.997  0.00  0.00    +0.000 A 
ATOM     22  C   UNL     1      -7.396  15.315  20.281  0.00  0.00    +0.000 C 
ATOM     23  C   UNL     1      -7.916  14.041  21.016  0.00  0.00    +0.000 C 
ENDBRANCH   8  12
BRANCH   1  29
ATOM     24  C   UNL     1      -0.561  12.351  21.160  0.00  0.00    +0.000 A 
ATOM     25  C   UNL     1       0.081  13.261  22.006  0.00  0.00    +0.000 A 
ATOM     26  C   UNL     1       0.379  14.556  21.575  0.00  0.00    +0.000 A 
ATOM     27  C   UNL     1       0.030  14.950  20.284  0.00  0.00    +0.000 A 
ATOM     28  C   UNL     1      -0.575  14.052  19.419  0.00  0.00    +0.000 A 
ATOM     29  C   UNL     1      -0.860  12.735  19.836  0.00  0.00    +0.000 A 
BRANCH  24  31
ATOM     30  C   UNL     1      -1.223  10.950  22.945  0.00  0.00    +0.000 C 
ATOM     31  O   UNL     1      -0.948  11.092  21.555  0.00  0.00    +0.000 OA
ENDBRANCH  24  31
ENDBRANCH   1  29
TORSDOF 3
ENDMDL
MODEL 5
REMARK VINA RESULT:      -8.7      6.208      9.054
REMARK  Name = 
REMARK  4 active torsions:
REMARK  status: ('A' for Active; 'I' for Inactive)
REMARK    1  A    between atoms: C_1  and  O_2
REMARK    2  A    between atoms: O_2  and  C_3
REMARK    3  A    between atoms: C_8  and  N_9
REMARK    4  A    between atoms: C_16  and  C_17
REMARK                            x       y       z     vdW  Elec       q    Type
REMARK                         _______ _______ _______ _____ _____    ______ ____
ROOT
ATOM      1  N   UNL     1       2.410  15.462  19.219  0.00  0.00    +0.000 N 
ATOM      2  C   UNL     1       1.936  16.737  18.985  0.00  0.00    +0.000 C 
ATOM      3  O   UNL     1       2.635  17.731  18.784  0.00  0.00    +0.000 OA
ATOM      4  N   UNL     1       0.586  16.915  19.012  0.00  0.00    +0.000 N 
ATOM      5  C   UNL     1      -0.366  15.992  19.319  0.00  0.00    +0.000 C 
ATOM      6  O   UNL     1      -1.535  16.328  19.503  0.00  0.00    +0.000 OA
ATOM      7  C   UNL     1       0.129  14.607  19.391  0.00  0.00    +0.000 C 
ATOM      8  C   UNL     1      -0.814  13.650  19.452  0.00  0.00    +0.000 C 
ATOM      9  C   UNL     1       1.585  14.342  19.348  0.00  0.00    +0.000 C 
ATOM     10  O   UNL     1       1.999  13.184  19.335  0.00  0.00    +0.000 OA
ATOM     11  H   UNL     1       0.276  17.868  18.935  0.00  0.00    +0.000 HD
ENDROOT
BRANCH   8  12
ATOM     12  C   UNL     1      -0.753  12.183  19.593  0.00  0.00    +0.000 A 
ATOM     13  C   UNL     1      -0.365  11.419  18.469  0.00  0.00    +0.000 A 
ATOM     14  C   UNL     1       0.224  10.144  18.595  0.00  0.00    +0.000 A 
ATOM     15  C   UNL     1       0.526   9.747  19.887  0.00  0.00    +0.000 A 
ATOM     16  C   UNL     1       0.038  10.455  20.971  0.00  0.00    +0.000 A 
ATOM     17  C   UNL     1       0.324   9.801  22.153  0.00  0.00    +0.000 A 
ATOM     18  C   UNL     1      -0.475  10.003  23.267  0.00  0.00    +0.000 A 
ATOM     19  C   UNL     1      -1.408  11.050  23.169  0.00  0.00    +0.000 A 
ATOM     20  C   UNL     1      -1.462  11.901  22.041  0.00  0.00    +0.000 A 
ATOM     21  C   UNL     1      -0.736  11.575  20.872  0.00  0.00    +0.000 A 
ATOM     22  C   UNL     1       1.406   8.812  21.898  0.00  0.00    +0.000 C 
ATOM     23  C   UNL     1       1.218   8.514  20.378  0.00  0.00    +0.000 C 
ENDBRANCH   8  12
BRANCH   1  29
ATOM     24  C   UNL     1       4.603  15.277  20.354  0.00  0.00    +0.000 A 
ATOM     25  C   UNL     1       5.975  15.018  20.267  0.00  0.00    +0.000 A 
ATOM     26  C   UNL     1       6.584  14.778  19.033  0.00  0.00    +0.000 A 
ATOM     27  C   UNL     1       5.817  14.801  17.869  0.00  0.00    +0.000 A 
ATOM     28  C   UNL     1       4.450  15.021  17.939  0.00  0.00    +0.000 A 
ATOM     29  C   UNL     1       3.820  15.241  19.181  0.00  0.00    +0.000 A 
BRANCH  24  31
ATOM     30  C   UNL     1       4.442  14.912  22.683  0.00  0.00    +0.000 C 
ATOM     31  O   UNL     1       3.965  15.595  21.529  0.00  0.00    +0.000 OA
ENDBRANCH  24  31
ENDBRANCH   1  29
TORSDOF 3
ENDMDL
MODEL 6
REMARK VINA RESULT:      -8.7      7.865     11.162
REMARK  Name = 
REMARK  4 active torsions:
REMARK  status: ('A' for Active; 'I' for Inactive)
REMARK    1  A    between atoms: C_1  and  O_2
REMARK    2  A    between atoms: O_2  and  C_3
REMARK    3  A    between atoms: C_8  and  N_9
REMARK    4  A    between atoms: C_16  and  C_17
REMARK                            x       y       z     vdW  Elec       q    Type
REMARK                         _______ _______ _______ _____ _____    ______ ____
ROOT
ATOM      1  N   UNL     1      -5.621  12.853  21.829  0.00  0.00    +0.000 N 
ATOM      2  C   UNL     1      -6.470  12.744  22.912  0.00  0.00    +0.000 C 
ATOM      3  O   UNL     1      -7.697  12.832  22.866  0.00  0.00    +0.000 OA
ATOM      4  N   UNL     1      -5.899  12.557  24.134  0.00  0.00    +0.000 N 
ATOM      5  C   UNL     1      -4.571  12.537  24.436  0.00  0.00    +0.000 C 
ATOM      6  O   UNL     1      -4.190  12.560  25.604  0.00  0.00    +0.000 OA
ATOM      7  C   UNL     1      -3.682  12.476  23.264  0.00  0.00    +0.000 C 
ATOM      8  C   UNL     1      -2.389  12.215  23.524  0.00  0.00    +0.000 C 
ATOM      9  C   UNL     1      -4.241  12.653  21.904  0.00  0.00    +0.000 C 
ATOM     10  O   UNL     1      -3.513  12.531  20.920  0.00  0.00    +0.000 OA
ATOM     11  H   UNL     1      -6.534  12.577  24.913  0.00  0.00    +0.000 HD
ENDROOT
BRANCH   8  12
ATOM     12  C   UNL     1      -1.187  12.129  22.672  0.00  0.00    +0.000 A 
ATOM     13  C   UNL     1      -0.837  10.870  22.135  0.00  0.00    +0.000 A 
ATOM     14  C   UNL     1      -0.085  10.743  20.949  0.00  0.00    +0.000 A 
ATOM     15  C   UNL     1       0.169  11.922  20.268  0.00  0.00    +0.000 A 
ATOM     16  C   UNL     1      -0.084  13.145  20.865  0.00  0.00    +0.000 A 
ATOM     17  C   UNL     1       0.385  14.179  20.081  0.00  0.00    +0.000 A 
ATOM     18  C   UNL     1       0.727  15.389  20.662  0.00  0.00    +0.000 A 
ATOM     19  C   UNL     1       0.356  15.547  22.009  0.00  0.00    +0.000 A 
ATOM     20  C   UNL     1      -0.401  14.570  22.696  0.00  0.00    +0.000 A 
ATOM     21  C   UNL     1      -0.603  13.295  22.119  0.00  0.00    +0.000 A 
ATOM     22  C   UNL     1       0.603  13.667  18.701  0.00  0.00    +0.000 C 
ATOM     23  C   UNL     1       0.853  12.149  18.957  0.00  0.00    +0.000 C 
ENDBRANCH   8  12
BRANCH   1  29
ATOM     24  C   UNL     1      -6.694  11.946  19.790  0.00  0.00    +0.000 A 
ATOM     25  C   UNL     1      -7.274  12.181  18.539  0.00  0.00    +0.000 A 
ATOM     26  C   UNL     1      -7.312  13.468  17.996  0.00  0.00    +0.000 A 
ATOM     27  C   UNL     1      -6.761  14.533  18.707  0.00  0.00    +0.000 A 
ATOM     28  C   UNL     1      -6.213  14.325  19.963  0.00  0.00    +0.000 A 
ATOM     29  C   UNL     1      -6.190  13.034  20.531  0.00  0.00    +0.000 A 
BRANCH  24  31
ATOM     30  C   UNL     1      -7.779  10.042  20.675  0.00  0.00    +0.000 C 
ATOM     31  O   UNL     1      -6.558  10.692  20.338  0.00  0.00    +0.000 OA
ENDBRANCH  24  31
ENDBRANCH   1  29
TORSDOF 3
ENDMDL
MODEL 7
REMARK VINA RESULT:      -8.6      4.950      9.089
REMARK  Name = 
REMARK  4 active torsions:
REMARK  status: ('A' for Active; 'I' for Inactive)
REMARK    1  A    between atoms: C_1  and  O_2
REMARK    2  A    between atoms: O_2  and  C_3
REMARK    3  A    between atoms: C_8  and  N_9
REMARK    4  A    between atoms: C_16  and  C_17
REMARK                            x       y       z     vdW  Elec       q    Type
REMARK                         _______ _______ _______ _____ _____    ______ ____
ROOT
ATOM      1  N   UNL     1       0.822  13.752  19.619  0.00  0.00    +0.000 N 
ATOM      2  C   UNL     1      -0.098  14.328  18.767  0.00  0.00    +0.000 C 
ATOM      3  O   UNL     1      -0.223  15.536  18.565  0.00  0.00    +0.000 OA
ATOM      4  N   UNL     1      -0.959  13.493  18.121  0.00  0.00    +0.000 N 
ATOM      5  C   UNL     1      -1.075  12.144  18.272  0.00  0.00    +0.000 C 
ATOM      6  O   UNL     1      -2.024  11.535  17.782  0.00  0.00    +0.000 OA
ATOM      7  C   UNL     1       0.017  11.521  19.039  0.00  0.00    +0.000 C 
ATOM      8  C   UNL     1       0.064  10.178  19.004  0.00  0.00    +0.000 C 
ATOM      9  C   UNL     1       0.998  12.372  19.749  0.00  0.00    +0.000 C 
ATOM     10  O   UNL     1       1.951  11.857  20.331  0.00  0.00    +0.000 OA
ATOM     11  H   UNL     1      -1.677  13.945  17.584  0.00  0.00    +0.000 HD
ENDROOT
BRANCH   8  12
ATOM     12  C   UNL     1       0.931   9.182  19.662  0.00  0.00    +0.000 A 
ATOM     13  C   UNL     1       0.627   8.803  20.989  0.00  0.00    +0.000 A 
ATOM     14  C   UNL     1       1.009   7.554  21.519  0.00  0.00    +0.000 A 
ATOM     15  C   UNL     1       1.576   6.666  20.619  0.00  0.00    +0.000 A 
ATOM     16  C   UNL     1       1.964   7.095  19.362  0.00  0.00    +0.000 A 
ATOM     17  C   UNL     1       2.644   6.097  18.692  0.00  0.00    +0.000 A 
ATOM     18  C   UNL     1       3.555   6.425  17.701  0.00  0.00    +0.000 A 
ATOM     19  C   UNL     1       3.557   7.770  17.293  0.00  0.00    +0.000 A 
ATOM     20  C   UNL     1       2.624   8.707  17.796  0.00  0.00    +0.000 A 
ATOM     21  C   UNL     1       1.813   8.372  18.905  0.00  0.00    +0.000 A 
ATOM     22  C   UNL     1       2.355   4.798  19.357  0.00  0.00    +0.000 C 
ATOM     23  C   UNL     1       2.015   5.249  20.811  0.00  0.00    +0.000 C 
ENDBRANCH   8  12
BRANCH   1  29
ATOM     24  C   UNL     1       1.579  14.938  21.656  0.00  0.00    +0.000 A 
ATOM     25  C   UNL     1       2.534  15.745  22.284  0.00  0.00    +0.000 A 
ATOM     26  C   UNL     1       3.619  16.261  21.570  0.00  0.00    +0.000 A 
ATOM     27  C   UNL     1       3.751  15.972  20.213  0.00  0.00    +0.000 A 
ATOM     28  C   UNL     1       2.834  15.146  19.582  0.00  0.00    +0.000 A 
ATOM     29  C   UNL     1       1.748  14.601  20.298  0.00  0.00    +0.000 A 
BRANCH  24  31
ATOM     30  C   UNL     1      -0.542  15.448  22.565  0.00  0.00    +0.000 C 
ATOM     31  O   UNL     1       0.452  14.468  22.288  0.00  0.00    +0.000 OA
ENDBRANCH  24  31
ENDBRANCH   1  29
TORSDOF 3
ENDMDL
MODEL 8
REMARK VINA RESULT:      -8.5      6.928     10.001
REMARK  Name = 
REMARK  4 active torsions:
REMARK  status: ('A' for Active; 'I' for Inactive)
REMARK    1  A    between atoms: C_1  and  O_2
REMARK    2  A    between atoms: O_2  and  C_3
REMARK    3  A    between atoms: C_8  and  N_9
REMARK    4  A    between atoms: C_16  and  C_17
REMARK                            x       y       z     vdW  Elec       q    Type
REMARK                         _______ _______ _______ _____ _____    ______ ____
ROOT
ATOM      1  N   UNL     1      -1.943  11.341  18.577  0.00  0.00    +0.000 N 
ATOM      2  C   UNL     1      -1.285  10.534  17.670  0.00  0.00    +0.000 C 
ATOM      3  O   UNL     1      -0.106  10.191  17.748  0.00  0.00    +0.000 OA
ATOM      4  N   UNL     1      -1.992  10.111  16.585  0.00  0.00    +0.000 N 
ATOM      5  C   UNL     1      -3.265  10.451  16.240  0.00  0.00    +0.000 C 
ATOM      6  O   UNL     1      -3.717  10.161  15.134  0.00  0.00    +0.000 OA
ATOM      7  C   UNL     1      -4.012  11.160  17.293  0.00  0.00    +0.000 C 
ATOM      8  C   UNL     1      -5.333  11.298  17.082  0.00  0.00    +0.000 C 
ATOM      9  C   UNL     1      -3.308  11.631  18.507  0.00  0.00    +0.000 C 
ATOM     10  O   UNL     1      -3.941  12.159  19.419  0.00  0.00    +0.000 OA
ATOM     11  H   UNL     1      -1.462   9.607  15.896  0.00  0.00    +0.000 HD
ENDROOT
BRANCH   8  12
ATOM     12  C   UNL     1      -6.408  11.974  17.830  0.00  0.00    +0.000 A 
ATOM     13  C   UNL     1      -6.965  11.311  18.948  0.00  0.00    +0.000 A 
ATOM     14  C   UNL     1      -7.574  12.012  20.009  0.00  0.00    +0.000 A 
ATOM     15  C   UNL     1      -7.469  13.391  19.959  0.00  0.00    +0.000 A 
ATOM     16  C   UNL     1      -7.022  14.019  18.809  0.00  0.00    +0.000 A 
ATOM     17  C   UNL     1      -7.145  15.389  18.919  0.00  0.00    +0.000 A 
ATOM     18  C   UNL     1      -7.274  16.167  17.779  0.00  0.00    +0.000 A 
ATOM     19  C   UNL     1      -7.046  15.507  16.559  0.00  0.00    +0.000 A 
ATOM     20  C   UNL     1      -6.620  14.159  16.505  0.00  0.00    +0.000 A 
ATOM     21  C   UNL     1      -6.642  13.363  17.674  0.00  0.00    +0.000 A 
ATOM     22  C   UNL     1      -7.301  15.737  20.357  0.00  0.00    +0.000 C 
ATOM     23  C   UNL     1      -7.917  14.428  20.940  0.00  0.00    +0.000 C 
ENDBRANCH   8  12
BRANCH   1  29
ATOM     24  C   UNL     1      -0.642  13.066  19.786  0.00  0.00    +0.000 A 
ATOM     25  C   UNL     1       0.012  13.469  20.955  0.00  0.00    +0.000 A 
ATOM     26  C   UNL     1       0.131  12.603  22.045  0.00  0.00    +0.000 A 
ATOM     27  C   UNL     1      -0.405  11.318  21.968  0.00  0.00    +0.000 A 
ATOM     28  C   UNL     1      -1.087  10.914  20.831  0.00  0.00    +0.000 A 
ATOM     29  C   UNL     1      -1.233  11.787  19.733  0.00  0.00    +0.000 A 
BRANCH  24  31
ATOM     30  C   UNL     1      -0.140  15.140  18.769  0.00  0.00    +0.000 C 
ATOM     31  O   UNL     1      -0.721  13.846  18.656  0.00  0.00    +0.000 OA
ENDBRANCH  24  31
ENDBRANCH   1  29
TORSDOF 3
ENDMDL
MODEL 9
REMARK VINA RESULT:      -8.5      6.164     10.725
REMARK  Name = 
REMARK  4 active torsions:
REMARK  status: ('A' for Active; 'I' for Inactive)
REMARK    1  A    between atoms: C_1  and  O_2
REMARK    2  A    between atoms: O_2  and  C_3
REMARK    3  A    between atoms: C_8  and  N_9
REMARK    4  A    between atoms: C_16  and  C_17
REMARK                            x       y       z     vdW  Elec       q    Type
REMARK                         _______ _______ _______ _____ _____    ______ ____
ROOT
ATOM      1  N   UNL     1      -5.379  11.856  18.640  0.00  0.00    +0.000 N 
ATOM      2  C   UNL     1      -5.946  12.001  17.390  0.00  0.00    +0.000 C 
ATOM      3  O   UNL     1      -7.136  12.224  17.170  0.00  0.00    +0.000 OA
ATOM      4  N   UNL     1      -5.125  11.852  16.313  0.00  0.00    +0.000 N 
ATOM      5  C   UNL     1      -3.810  11.499  16.315  0.00  0.00    +0.000 C 
ATOM      6  O   UNL     1      -3.235  11.204  15.269  0.00  0.00    +0.000 OA
ATOM      7  C   UNL     1      -3.175  11.522  17.644  0.00  0.00    +0.000 C 
ATOM      8  C   UNL     1      -1.835  11.415  17.654  0.00  0.00    +0.000 C 
ATOM      9  C   UNL     1      -4.008  11.699  18.855  0.00  0.00    +0.000 C 
ATOM     10  O   UNL     1      -3.474  11.790  19.959  0.00  0.00    +0.000 OA
ATOM     11  H   UNL     1      -5.583  11.867  15.419  0.00  0.00    +0.000 HD
ENDROOT
BRANCH   8  12
ATOM     12  C   UNL     1      -0.839  11.335  18.738  0.00  0.00    +0.000 A 
ATOM     13  C   UNL     1      -1.025  12.149  19.879  0.00  0.00    +0.000 A 
ATOM     14  C   UNL     1      -0.494  11.807  21.140  0.00  0.00    +0.000 A 
ATOM     15  C   UNL     1       0.100  10.559  21.224  0.00  0.00    +0.000 A 
ATOM     16  C   UNL     1       0.370   9.832  20.077  0.00  0.00    +0.000 A 
ATOM     17  C   UNL     1       1.101   8.699  20.375  0.00  0.00    +0.000 A 
ATOM     18  C   UNL     1       1.915   8.127  19.412  0.00  0.00    +0.000 A 
ATOM     19  C   UNL     1       1.764   8.628  18.107  0.00  0.00    +0.000 A 
ATOM     20  C   UNL     1       0.777   9.588  17.784  0.00  0.00    +0.000 A 
ATOM     21  C   UNL     1       0.070  10.251  18.813  0.00  0.00    +0.000 A 
ATOM     22  C   UNL     1       0.978   8.426  21.833  0.00  0.00    +0.000 C 
ATOM     23  C   UNL     1       0.684   9.848  22.403  0.00  0.00    +0.000 C 
ENDBRANCH   8  12
BRANCH   1  29
ATOM     24  C   UNL     1      -7.021  10.973  20.270  0.00  0.00    +0.000 A 
ATOM     25  C   UNL     1      -7.790  11.176  21.420  0.00  0.00    +0.000 A 
ATOM     26  C   UNL     1      -7.806  12.416  22.064  0.00  0.00    +0.000 A 
ATOM     27  C   UNL     1      -7.048  13.469  21.552  0.00  0.00    +0.000 A 
ATOM     28  C   UNL     1      -6.252  13.276  20.434  0.00  0.00    +0.000 A 
ATOM     29  C   UNL     1      -6.211  12.022  19.790  0.00  0.00    +0.000 A 
BRANCH  24  31
ATOM     30  C   UNL     1      -7.353   8.633  20.299  0.00  0.00    +0.000 C 
ATOM     31  O   UNL     1      -7.027   9.800  19.552  0.00  0.00    +0.000 OA
ENDBRANCH  24  31
ENDBRANCH   1  29
TORSDOF 3
ENDMDL
