MODEL 1
REMARK VINA RESULT:      -7.6      0.000      0.000
REMARK  Name = 
REMARK  5 active torsions:
REMARK  status: ('A' for Active; 'I' for Inactive)
REMARK    1  A    between atoms: C_1  and  O_2
REMARK    2  A    between atoms: O_2  and  C_3
REMARK    3  A    between atoms: C_3  and  C_5
REMARK    4  A    between atoms: N_11  and  C_12
REMARK    5  A    between atoms: C_12  and  C_13
REMARK                            x       y       z     vdW  Elec       q    Type
REMARK                         _______ _______ _______ _____ _____    ______ ____
ROOT
ATOM      1  C   UNL     1       6.402   5.767  17.334  0.00  0.00    +0.000 C 
ATOM      2  C   UNL     1       6.951   4.410  16.872  0.00  0.00    +0.000 C 
ATOM      3  C   UNL     1       6.034   3.973  15.748  0.00  0.00    +0.000 C 
ATOM      4  C   UNL     1       5.711   5.264  15.015  0.00  0.00    +0.000 C 
ATOM      5  C   UNL     1       5.789   6.390  16.058  0.00  0.00    +0.000 C 
ATOM      6  C   UNL     1       4.431   6.912  16.511  0.00  0.00    +0.000 C 
ATOM      7  N   UNL     1       4.004   5.972  17.557  0.00  0.00    +0.000 NA
ATOM      8  C   UNL     1       5.227   5.677  18.328  0.00  0.00    +0.000 C 
ENDROOT
BRANCH   1   9
ATOM      9  C   UNL     1       7.520   6.606  17.931  0.00  0.00    +0.000 C 
ATOM     10  O   UNL     1       8.098   6.372  18.974  0.00  0.00    +0.000 OA
BRANCH   9  12
ATOM     11  C   UNL     1       7.977   8.911  17.823  0.00  0.00    +0.000 C 
ATOM     12  O   UNL     1       7.780   7.682  17.122  0.00  0.00    +0.000 OA
ENDBRANCH   9  12
ENDBRANCH   1   9
BRANCH   7  13
ATOM     13  C   UNL     1       2.958   6.595  18.400  0.00  0.00    +0.000 C 
BRANCH  13  14
ATOM     14  C   UNL     1       2.430   5.682  19.520  0.00  0.00    +0.000 C 
ATOM     15  O   UNL     1       2.681   5.930  20.701  0.00  0.00    +0.000 OA
ATOM     16  N   UNL     1       1.590   4.639  19.137  0.00  0.00    +0.000 N 
ATOM     17  C   UNL     1       0.891   3.870  20.163  0.00  0.00    +0.000 C 
ATOM     18  C   UNL     1       1.509   2.483  20.313  0.00  0.00    +0.000 C 
ATOM     19  C   UNL     1       1.565   1.773  18.960  0.00  0.00    +0.000 C 
ATOM     20  C   UNL     1       2.281   2.631  17.919  0.00  0.00    +0.000 C 
ATOM     21  C   UNL     1       1.650   4.017  17.818  0.00  0.00    +0.000 C 
ENDBRANCH  13  14
ENDBRANCH   7  13
TORSDOF 4
ENDMDL
MODEL 2
REMARK VINA RESULT:      -7.5      1.473      2.749
REMARK  Name = 
REMARK  5 active torsions:
REMARK  status: ('A' for Active; 'I' for Inactive)
REMARK    1  A    between atoms: C_1  and  O_2
REMARK    2  A    between atoms: O_2  and  C_3
REMARK    3  A    between atoms: C_3  and  C_5
REMARK    4  A    between atoms: N_11  and  C_12
REMARK    5  A    between atoms: C_12  and  C_13
REMARK                            x       y       z     vdW  Elec       q    Type
REMARK                         _______ _______ _______ _____ _____    ______ ____
ROOT
ATOM      1  C   UNL     1       6.576   6.061  16.684  0.00  0.00    +0.000 C 
ATOM      2  C   UNL     1       7.740   7.026  16.946  0.00  0.00    +0.000 C 
ATOM      3  C   UNL     1       7.849   7.114  18.455  0.00  0.00    +0.000 C 
ATOM      4  C   UNL     1       7.547   5.702  18.927  0.00  0.00    +0.000 C 
ATOM      5  C   UNL     1       6.608   5.083  17.881  0.00  0.00    +0.000 C 
ATOM      6  C   UNL     1       5.153   4.991  18.328  0.00  0.00    +0.000 C 
ATOM      7  N   UNL     1       4.595   6.321  18.044  0.00  0.00    +0.000 NA
ATOM      8  C   UNL     1       5.179   6.711  16.747  0.00  0.00    +0.000 C 
ENDROOT
BRANCH   1   9
ATOM      9  C   UNL     1       6.764   5.371  15.343  0.00  0.00    +0.000 C 
ATOM     10  O   UNL     1       7.793   5.350  14.697  0.00  0.00    +0.000 OA
BRANCH   9  12
ATOM     11  C   UNL     1       5.705   3.955  13.792  0.00  0.00    +0.000 C 
ATOM     12  O   UNL     1       5.591   4.776  14.955  0.00  0.00    +0.000 OA
ENDBRANCH   9  12
ENDBRANCH   1   9
BRANCH   7  13
ATOM     13  C   UNL     1       3.117   6.245  17.983  0.00  0.00    +0.000 C 
BRANCH  13  14
ATOM     14  C   UNL     1       2.469   5.630  19.237  0.00  0.00    +0.000 C 
ATOM     15  O   UNL     1       2.626   6.152  20.342  0.00  0.00    +0.000 OA
ATOM     16  N   UNL     1       1.636   4.532  19.038  0.00  0.00    +0.000 N 
ATOM     17  C   UNL     1       0.830   4.036  20.151  0.00  0.00    +0.000 C 
ATOM     18  C   UNL     1       1.393   2.721  20.680  0.00  0.00    +0.000 C 
ATOM     19  C   UNL     1       1.544   1.707  19.546  0.00  0.00    +0.000 C 
ATOM     20  C   UNL     1       2.371   2.286  18.399  0.00  0.00    +0.000 C 
ATOM     21  C   UNL     1       1.790   3.613  17.915  0.00  0.00    +0.000 C 
ENDBRANCH  13  14
ENDBRANCH   7  13
TORSDOF 4
ENDMDL
MODEL 3
REMARK VINA RESULT:      -7.4      1.234      1.665
REMARK  Name = 
REMARK  5 active torsions:
REMARK  status: ('A' for Active; 'I' for Inactive)
REMARK    1  A    between atoms: C_1  and  O_2
REMARK    2  A    between atoms: O_2  and  C_3
REMARK    3  A    between atoms: C_3  and  C_5
REMARK    4  A    between atoms: N_11  and  C_12
REMARK    5  A    between atoms: C_12  and  C_13
REMARK                            x       y       z     vdW  Elec       q    Type
REMARK                         _______ _______ _______ _____ _____    ______ ____
ROOT
ATOM      1  C   UNL     1       6.717   5.709  17.143  0.00  0.00    +0.000 C 
ATOM      2  C   UNL     1       7.540   4.513  16.646  0.00  0.00    +0.000 C 
ATOM      3  C   UNL     1       6.798   3.999  15.429  0.00  0.00    +0.000 C 
ATOM      4  C   UNL     1       6.288   5.259  14.751  0.00  0.00    +0.000 C 
ATOM      5  C   UNL     1       6.084   6.301  15.862  0.00  0.00    +0.000 C 
ATOM      6  C   UNL     1       4.625   6.532  16.238  0.00  0.00    +0.000 C 
ATOM      7  N   UNL     1       4.314   5.456  17.189  0.00  0.00    +0.000 NA
ATOM      8  C   UNL     1       5.517   5.334  18.034  0.00  0.00    +0.000 C 
ENDROOT
BRANCH   1   9
ATOM      9  C   UNL     1       7.616   6.692  17.875  0.00  0.00    +0.000 C 
ATOM     10  O   UNL     1       8.093   6.525  18.980  0.00  0.00    +0.000 OA
BRANCH   9  12
ATOM     11  C   UNL     1       7.989   9.014  17.857  0.00  0.00    +0.000 C 
ATOM     12  O   UNL     1       7.806   7.812  17.108  0.00  0.00    +0.000 OA
ENDBRANCH   9  12
ENDBRANCH   1   9
BRANCH   7  13
ATOM     13  C   UNL     1       3.116   5.814  17.983  0.00  0.00    +0.000 C 
BRANCH  13  14
ATOM     14  C   UNL     1       2.084   4.678  18.106  0.00  0.00    +0.000 C 
ATOM     15  O   UNL     1       1.114   4.628  17.347  0.00  0.00    +0.000 OA
ATOM     16  N   UNL     1       2.356   3.682  19.040  0.00  0.00    +0.000 N 
ATOM     17  C   UNL     1       1.532   2.476  19.059  0.00  0.00    +0.000 C 
ATOM     18  C   UNL     1       0.600   2.479  20.266  0.00  0.00    +0.000 C 
ATOM     19  C   UNL     1       1.393   2.688  21.556  0.00  0.00    +0.000 C 
ATOM     20  C   UNL     1       2.257   3.945  21.472  0.00  0.00    +0.000 C 
ATOM     21  C   UNL     1       3.156   3.915  20.238  0.00  0.00    +0.000 C 
ENDBRANCH  13  14
ENDBRANCH   7  13
TORSDOF 4
ENDMDL
MODEL 4
REMARK VINA RESULT:      -7.3      2.027      3.285
REMARK  Name = 
REMARK  5 active torsions:
REMARK  status: ('A' for Active; 'I' for Inactive)
REMARK    1  A    between atoms: C_1  and  O_2
REMARK    2  A    between atoms: O_2  and  C_3
REMARK    3  A    between atoms: C_3  and  C_5
REMARK    4  A    between atoms: N_11  and  C_12
REMARK    5  A    between atoms: C_12  and  C_13
REMARK                            x       y       z     vdW  Elec       q    Type
REMARK                         _______ _______ _______ _____ _____    ______ ____
ROOT
ATOM      1  C   UNL     1       6.649   5.491  15.966  0.00  0.00    +0.000 C 
ATOM      2  C   UNL     1       7.339   6.775  16.448  0.00  0.00    +0.000 C 
ATOM      3  C   UNL     1       7.366   6.666  17.959  0.00  0.00    +0.000 C 
ATOM      4  C   UNL     1       7.625   5.192  18.216  0.00  0.00    +0.000 C 
ATOM      5  C   UNL     1       7.028   4.429  17.024  0.00  0.00    +0.000 C 
ATOM      6  C   UNL     1       5.713   3.722  17.333  0.00  0.00    +0.000 C 
ATOM      7  N   UNL     1       4.689   4.765  17.179  0.00  0.00    +0.000 NA
ATOM      8  C   UNL     1       5.109   5.541  15.997  0.00  0.00    +0.000 C 
ENDROOT
BRANCH   1   9
ATOM      9  C   UNL     1       7.126   5.137  14.566  0.00  0.00    +0.000 C 
ATOM     10  O   UNL     1       8.111   5.593  14.020  0.00  0.00    +0.000 OA
BRANCH   9  12
ATOM     11  C   UNL     1       6.663   3.789  12.696  0.00  0.00    +0.000 C 
ATOM     12  O   UNL     1       6.272   4.229  13.997  0.00  0.00    +0.000 OA
ENDBRANCH   9  12
ENDBRANCH   1   9
BRANCH   7  13
ATOM     13  C   UNL     1       3.359   4.142  16.986  0.00  0.00    +0.000 C 
BRANCH  13  14
ATOM     14  C   UNL     1       2.357   4.442  18.115  0.00  0.00    +0.000 C 
ATOM     15  O   UNL     1       1.820   5.549  18.198  0.00  0.00    +0.000 OA
ATOM     16  N   UNL     1       2.028   3.386  18.960  0.00  0.00    +0.000 N 
ATOM     17  C   UNL     1       0.933   3.547  19.913  0.00  0.00    +0.000 C 
ATOM     18  C   UNL     1       1.471   3.691  21.333  0.00  0.00    +0.000 C 
ATOM     19  C   UNL     1       2.402   2.527  21.675  0.00  0.00    +0.000 C 
ATOM     20  C   UNL     1       3.510   2.387  20.634  0.00  0.00    +0.000 C 
ATOM     21  C   UNL     1       2.932   2.271  19.225  0.00  0.00    +0.000 C 
ENDBRANCH  13  14
ENDBRANCH   7  13
TORSDOF 4
ENDMDL
MODEL 5
REMARK VINA RESULT:      -7.1      1.990      3.308
REMARK  Name = 
REMARK  5 active torsions:
REMARK  status: ('A' for Active; 'I' for Inactive)
REMARK    1  A    between atoms: C_1  and  O_2
REMARK    2  A    between atoms: O_2  and  C_3
REMARK    3  A    between atoms: C_3  and  C_5
REMARK    4  A    between atoms: N_11  and  C_12
REMARK    5  A    between atoms: C_12  and  C_13
REMARK                            x       y       z     vdW  Elec       q    Type
REMARK                         _______ _______ _______ _____ _____    ______ ____
ROOT
ATOM      1  C   UNL     1       6.706   5.830  16.399  0.00  0.00    +0.000 C 
ATOM      2  C   UNL     1       7.745   6.909  16.732  0.00  0.00    +0.000 C 
ATOM      3  C   UNL     1       7.797   6.957  18.246  0.00  0.00    +0.000 C 
ATOM      4  C   UNL     1       7.640   5.505  18.664  0.00  0.00    +0.000 C 
ATOM      5  C   UNL     1       6.809   4.821  17.567  0.00  0.00    +0.000 C 
ATOM      6  C   UNL     1       5.361   4.553  17.960  0.00  0.00    +0.000 C 
ATOM      7  N   UNL     1       4.666   5.821  17.697  0.00  0.00    +0.000 NA
ATOM      8  C   UNL     1       5.244   6.318  16.433  0.00  0.00    +0.000 C 
ENDROOT
BRANCH   1   9
ATOM      9  C   UNL     1       7.012   5.211  15.045  0.00  0.00    +0.000 C 
ATOM     10  O   UNL     1       7.929   5.530  14.314  0.00  0.00    +0.000 OA
BRANCH   9  12
ATOM     11  C   UNL     1       6.133   3.768  13.409  0.00  0.00    +0.000 C 
ATOM     12  O   UNL     1       6.091   4.238  14.758  0.00  0.00    +0.000 OA
ENDBRANCH   9  12
ENDBRANCH   1   9
BRANCH   7  13
ATOM     13  C   UNL     1       3.209   5.584  17.582  0.00  0.00    +0.000 C 
BRANCH  13  14
ATOM     14  C   UNL     1       2.792   4.121  17.816  0.00  0.00    +0.000 C 
ATOM     15  O   UNL     1       2.476   3.401  16.867  0.00  0.00    +0.000 OA
ATOM     16  N   UNL     1       2.884   3.644  19.120  0.00  0.00    +0.000 N 
ATOM     17  C   UNL     1       2.706   2.216  19.372  0.00  0.00    +0.000 C 
ATOM     18  C   UNL     1       1.360   1.948  20.037  0.00  0.00    +0.000 C 
ATOM     19  C   UNL     1       1.201   2.807  21.292  0.00  0.00    +0.000 C 
ATOM     20  C   UNL     1       1.423   4.285  20.977  0.00  0.00    +0.000 C 
ATOM     21  C   UNL     1       2.769   4.507  20.291  0.00  0.00    +0.000 C 
ENDBRANCH  13  14
ENDBRANCH   7  13
TORSDOF 4
ENDMDL
MODEL 6
REMARK VINA RESULT:      -7.0      2.400      4.151
REMARK  Name = 
REMARK  5 active torsions:
REMARK  status: ('A' for Active; 'I' for Inactive)
REMARK    1  A    between atoms: C_1  and  O_2
REMARK    2  A    between atoms: O_2  and  C_3
REMARK    3  A    between atoms: C_3  and  C_5
REMARK    4  A    between atoms: N_11  and  C_12
REMARK    5  A    between atoms: C_12  and  C_13
REMARK                            x       y       z     vdW  Elec       q    Type
REMARK                         _______ _______ _______ _____ _____    ______ ____
ROOT
ATOM      1  C   UNL     1       6.424   5.574  16.852  0.00  0.00    +0.000 C 
ATOM      2  C   UNL     1       7.521   6.646  16.906  0.00  0.00    +0.000 C 
ATOM      3  C   UNL     1       7.652   7.007  18.372  0.00  0.00    +0.000 C 
ATOM      4  C   UNL     1       7.461   5.685  19.093  0.00  0.00    +0.000 C 
ATOM      5  C   UNL     1       6.548   4.828  18.201  0.00  0.00    +0.000 C 
ATOM      6  C   UNL     1       5.113   4.720  18.702  0.00  0.00    +0.000 C 
ATOM      7  N   UNL     1       4.455   5.937  18.207  0.00  0.00    +0.000 NA
ATOM      8  C   UNL     1       4.986   6.130  16.844  0.00  0.00    +0.000 C 
ENDROOT
BRANCH   1   9
ATOM      9  C   UNL     1       6.636   4.671  15.648  0.00  0.00    +0.000 C 
ATOM     10  O   UNL     1       6.067   3.616  15.449  0.00  0.00    +0.000 OA
BRANCH   9  12
ATOM     11  C   UNL     1       7.370   4.933  13.429  0.00  0.00    +0.000 C 
ATOM     12  O   UNL     1       7.577   5.217  14.814  0.00  0.00    +0.000 OA
ENDBRANCH   9  12
ENDBRANCH   1   9
BRANCH   7  13
ATOM     13  C   UNL     1       2.986   5.753  18.206  0.00  0.00    +0.000 C 
BRANCH  13  14
ATOM     14  C   UNL     1       2.272   6.414  19.399  0.00  0.00    +0.000 C 
ATOM     15  O   UNL     1       1.827   5.727  20.321  0.00  0.00    +0.000 OA
ATOM     16  N   UNL     1       2.244   7.805  19.422  0.00  0.00    +0.000 N 
ATOM     17  C   UNL     1       1.771   8.491  20.622  0.00  0.00    +0.000 C 
ATOM     18  C   UNL     1       0.388   9.093  20.389  0.00  0.00    +0.000 C 
ATOM     19  C   UNL     1       0.393   9.984  19.147  0.00  0.00    +0.000 C 
ATOM     20  C   UNL     1       0.921   9.227  17.930  0.00  0.00    +0.000 C 
ATOM     21  C   UNL     1       2.294   8.620  18.211  0.00  0.00    +0.000 C 
ENDBRANCH  13  14
ENDBRANCH   7  13
TORSDOF 4
ENDMDL
MODEL 7
REMARK VINA RESULT:      -7.0      2.314      3.360
REMARK  Name = 
REMARK  5 active torsions:
REMARK  status: ('A' for Active; 'I' for Inactive)
REMARK    1  A    between atoms: C_1  and  O_2
REMARK    2  A    between atoms: O_2  and  C_3
REMARK    3  A    between atoms: C_3  and  C_5
REMARK    4  A    between atoms: N_11  and  C_12
REMARK    5  A    between atoms: C_12  and  C_13
REMARK                            x       y       z     vdW  Elec       q    Type
REMARK                         _______ _______ _______ _____ _____    ______ ____
ROOT
ATOM      1  C   UNL     1       5.905   5.249  15.659  0.00  0.00    +0.000 C 
ATOM      2  C   UNL     1       5.252   6.609  15.377  0.00  0.00    +0.000 C 
ATOM      3  C   UNL     1       5.220   7.319  16.715  0.00  0.00    +0.000 C 
ATOM      4  C   UNL     1       6.526   6.914  17.376  0.00  0.00    +0.000 C 
ATOM      5  C   UNL     1       6.883   5.525  16.825  0.00  0.00    +0.000 C 
ATOM      6  C   UNL     1       6.632   4.384  17.804  0.00  0.00    +0.000 C 
ATOM      7  N   UNL     1       5.202   4.077  17.654  0.00  0.00    +0.000 NA
ATOM      8  C   UNL     1       4.941   4.177  16.205  0.00  0.00    +0.000 C 
ENDROOT
BRANCH   1   9
ATOM      9  C   UNL     1       6.597   4.732  14.408  0.00  0.00    +0.000 C 
ATOM     10  O   UNL     1       6.227   3.789  13.736  0.00  0.00    +0.000 OA
BRANCH   9  12
ATOM     11  C   UNL     1       8.118   5.479  12.779  0.00  0.00    +0.000 C 
ATOM     12  O   UNL     1       7.714   5.482  14.148  0.00  0.00    +0.000 OA
ENDBRANCH   9  12
ENDBRANCH   1   9
BRANCH   7  13
ATOM     13  C   UNL     1       4.920   2.719  18.173  0.00  0.00    +0.000 C 
BRANCH  13  14
ATOM     14  C   UNL     1       4.321   2.703  19.591  0.00  0.00    +0.000 C 
ATOM     15  O   UNL     1       4.909   2.134  20.513  0.00  0.00    +0.000 OA
ATOM     16  N   UNL     1       3.152   3.435  19.787  0.00  0.00    +0.000 N 
ATOM     17  C   UNL     1       2.652   3.633  21.145  0.00  0.00    +0.000 C 
ATOM     18  C   UNL     1       1.413   2.778  21.393  0.00  0.00    +0.000 C 
ATOM     19  C   UNL     1       0.358   3.037  20.318  0.00  0.00    +0.000 C 
ATOM     20  C   UNL     1       0.941   2.843  18.919  0.00  0.00    +0.000 C 
ATOM     21  C   UNL     1       2.192   3.696  18.719  0.00  0.00    +0.000 C 
ENDBRANCH  13  14
ENDBRANCH   7  13
TORSDOF 4
ENDMDL
MODEL 8
REMARK VINA RESULT:      -6.9      1.439      1.577
REMARK  Name = 
REMARK  5 active torsions:
REMARK  status: ('A' for Active; 'I' for Inactive)
REMARK    1  A    between atoms: C_1  and  O_2
REMARK    2  A    between atoms: O_2  and  C_3
REMARK    3  A    between atoms: C_3  and  C_5
REMARK    4  A    between atoms: N_11  and  C_12
REMARK    5  A    between atoms: C_12  and  C_13
REMARK                            x       y       z     vdW  Elec       q    Type
REMARK                         _______ _______ _______ _____ _____    ______ ____
ROOT
ATOM      1  C   UNL     1       6.097   4.614  16.708  0.00  0.00    +0.000 C 
ATOM      2  C   UNL     1       6.173   3.510  15.645  0.00  0.00    +0.000 C 
ATOM      3  C   UNL     1       5.485   4.088  14.425  0.00  0.00    +0.000 C 
ATOM      4  C   UNL     1       5.894   5.550  14.430  0.00  0.00    +0.000 C 
ATOM      5  C   UNL     1       6.131   5.932  15.899  0.00  0.00    +0.000 C 
ATOM      6  C   UNL     1       5.018   6.775  16.510  0.00  0.00    +0.000 C 
ATOM      7  N   UNL     1       4.002   5.799  16.927  0.00  0.00    +0.000 NA
ATOM      8  C   UNL     1       4.766   4.667  17.484  0.00  0.00    +0.000 C 
ENDROOT
BRANCH   1   9
ATOM      9  C   UNL     1       7.257   4.481  17.682  0.00  0.00    +0.000 C 
ATOM     10  O   UNL     1       8.387   4.141  17.391  0.00  0.00    +0.000 OA
BRANCH   9  12
ATOM     11  C   UNL     1       7.620   5.801  19.594  0.00  0.00    +0.000 C 
ATOM     12  O   UNL     1       6.841   4.792  18.950  0.00  0.00    +0.000 OA
ENDBRANCH   9  12
ENDBRANCH   1   9
BRANCH   7  13
ATOM     13  C   UNL     1       3.102   6.406  17.935  0.00  0.00    +0.000 C 
BRANCH  13  14
ATOM     14  C   UNL     1       2.978   5.593  19.235  0.00  0.00    +0.000 C 
ATOM     15  O   UNL     1       3.747   5.797  20.177  0.00  0.00    +0.000 OA
ATOM     16  N   UNL     1       1.911   4.702  19.320  0.00  0.00    +0.000 N 
ATOM     17  C   UNL     1       1.617   4.060  20.598  0.00  0.00    +0.000 C 
ATOM     18  C   UNL     1       2.025   2.590  20.570  0.00  0.00    +0.000 C 
ATOM     19  C   UNL     1       1.387   1.879  19.376  0.00  0.00    +0.000 C 
ATOM     20  C   UNL     1       1.704   2.607  18.071  0.00  0.00    +0.000 C 
ATOM     21  C   UNL     1       1.304   4.079  18.149  0.00  0.00    +0.000 C 
ENDBRANCH  13  14
ENDBRANCH   7  13
TORSDOF 4
ENDMDL
MODEL 9
REMARK VINA RESULT:      -6.9      3.377      5.616
REMARK  Name = 
REMARK  5 active torsions:
REMARK  status: ('A' for Active; 'I' for Inactive)
REMARK    1  A    between atoms: C_1  and  O_2
REMARK    2  A    between atoms: O_2  and  C_3
REMARK    3  A    between atoms: C_3  and  C_5
REMARK    4  A    between atoms: N_11  and  C_12
REMARK    5  A    between atoms: C_12  and  C_13
REMARK                            x       y       z     vdW  Elec       q    Type
REMARK                         _______ _______ _______ _____ _____    ______ ____
ROOT
ATOM      1  C   UNL     1       3.184   3.883  19.488  0.00  0.00    +0.000 C 
ATOM      2  C   UNL     1       2.802   2.908  20.609  0.00  0.00    +0.000 C 
ATOM      3  C   UNL     1       1.290   2.970  20.691  0.00  0.00    +0.000 C 
ATOM      4  C   UNL     1       0.850   3.108  19.244  0.00  0.00    +0.000 C 
ATOM      5  C   UNL     1       1.988   3.831  18.508  0.00  0.00    +0.000 C 
ATOM      6  C   UNL     1       1.696   5.295  18.196  0.00  0.00    +0.000 C 
ATOM      7  N   UNL     1       2.039   6.011  19.433  0.00  0.00    +0.000 NA
ATOM      8  C   UNL     1       3.268   5.359  19.923  0.00  0.00    +0.000 C 
ENDROOT
BRANCH   1   9
ATOM      9  C   UNL     1       4.497   3.456  18.851  0.00  0.00    +0.000 C 
ATOM     10  O   UNL     1       5.577   3.436  19.407  0.00  0.00    +0.000 OA
BRANCH   9  12
ATOM     11  C   UNL     1       5.061   3.851  16.602  0.00  0.00    +0.000 C 
ATOM     12  O   UNL     1       4.289   3.103  17.543  0.00  0.00    +0.000 OA
ENDBRANCH   9  12
ENDBRANCH   1   9
BRANCH   7  13
ATOM     13  C   UNL     1       2.254   7.447  19.142  0.00  0.00    +0.000 C 
BRANCH  13  14
ATOM     14  C   UNL     1       1.546   8.398  20.122  0.00  0.00    +0.000 C 
ATOM     15  O   UNL     1       1.403   8.085  21.306  0.00  0.00    +0.000 OA
ATOM     16  N   UNL     1       1.171   9.645  19.628  0.00  0.00    +0.000 N 
ATOM     17  C   UNL     1       0.689  10.666  20.554  0.00  0.00    +0.000 C 
ATOM     18  C   UNL     1      -0.818  10.855  20.411  0.00  0.00    +0.000 C 
ATOM     19  C   UNL     1      -1.187  11.139  18.955  0.00  0.00    +0.000 C 
ATOM     20  C   UNL     1      -0.636  10.057  18.028  0.00  0.00    +0.000 C 
ATOM     21  C   UNL     1       0.869   9.881  18.220  0.00  0.00    +0.000 C 
ENDBRANCH  13  14
ENDBRANCH   7  13
TORSDOF 4
ENDMDL
