MODEL 1
REMARK VINA RESULT:      -7.4      0.000      0.000
REMARK  Name = 
REMARK  4 active torsions:
REMARK  status: ('A' for Active; 'I' for Inactive)
REMARK    1  A    between atoms: C_1  and  C_2
REMARK    2  A    between atoms: N_6  and  C_7
REMARK    3  A    between atoms: C_7  and  C_8
REMARK    4  A    between atoms: C_8  and  C_9
REMARK                            x       y       z     vdW  Elec       q    Type
REMARK                         _______ _______ _______ _____ _____    ______ ____
ROOT
ATOM      1  C   UNL     1       8.087   8.043  17.632  0.00  0.00    +0.000 C 
ATOM      2  C   UNL     1       7.251   6.844  17.857  0.00  0.00    +0.000 C 
ATOM      3  C   UNL     1       7.309   5.931  18.829  0.00  0.00    +0.000 C 
ATOM      4  C   UNL     1       6.182   5.008  18.647  0.00  0.00    +0.000 C 
ATOM      5  O   UNL     1       5.962   4.057  19.375  0.00  0.00    +0.000 OA
ATOM      6  N   UNL     1       5.480   5.441  17.574  0.00  0.00    +0.000 N 
ATOM      7  C   UNL     1       6.093   6.510  17.007  0.00  0.00    +0.000 C 
ATOM      8  O   UNL     1       5.781   7.116  15.999  0.00  0.00    +0.000 OA
ENDROOT
BRANCH   6   9
ATOM      9  C   UNL     1       4.226   4.868  17.116  0.00  0.00    +0.000 C 
BRANCH   9  10
ATOM     10  C   UNL     1       2.997   5.548  17.720  0.00  0.00    +0.000 C 
BRANCH  10  11
ATOM     11  C   UNL     1       2.265   4.631  18.671  0.00  0.00    +0.000 A 
ATOM     12  C   UNL     1       2.232   4.915  20.045  0.00  0.00    +0.000 A 
ATOM     13  C   UNL     1       1.570   4.063  20.931  0.00  0.00    +0.000 A 
ATOM     14  C   UNL     1       0.937   2.917  20.456  0.00  0.00    +0.000 A 
ATOM     15  C   UNL     1       0.968   2.620  19.095  0.00  0.00    +0.000 A 
ATOM     16  C   UNL     1       1.631   3.471  18.206  0.00  0.00    +0.000 A 
ENDBRANCH  10  11
ENDBRANCH   9  10
ENDBRANCH   6   9
TORSDOF 3
ENDMDL
MODEL 2
REMARK VINA RESULT:      -7.1      0.632      2.360
REMARK  Name = 
REMARK  4 active torsions:
REMARK  status: ('A' for Active; 'I' for Inactive)
REMARK    1  A    between atoms: C_1  and  C_2
REMARK    2  A    between atoms: N_6  and  C_7
REMARK    3  A    between atoms: C_7  and  C_8
REMARK    4  A    between atoms: C_8  and  C_9
REMARK                            x       y       z     vdW  Elec       q    Type
REMARK                         _______ _______ _______ _____ _____    ______ ____
ROOT
ATOM      1  C   UNL     1       8.285   5.698  19.366  0.00  0.00    +0.000 C 
ATOM      2  C   UNL     1       7.149   5.863  18.434  0.00  0.00    +0.000 C 
ATOM      3  C   UNL     1       7.035   6.639  17.353  0.00  0.00    +0.000 C 
ATOM      4  C   UNL     1       5.742   6.345  16.723  0.00  0.00    +0.000 C 
ATOM      5  O   UNL     1       5.340   6.896  15.714  0.00  0.00    +0.000 OA
ATOM      6  N   UNL     1       5.151   5.372  17.456  0.00  0.00    +0.000 N 
ATOM      7  C   UNL     1       5.911   5.068  18.538  0.00  0.00    +0.000 C 
ATOM      8  O   UNL     1       5.667   4.290  19.441  0.00  0.00    +0.000 OA
ENDROOT
BRANCH   6   9
ATOM      9  C   UNL     1       3.901   4.717  17.113  0.00  0.00    +0.000 C 
BRANCH   9  10
ATOM     10  C   UNL     1       2.685   5.350  17.790  0.00  0.00    +0.000 C 
BRANCH  10  11
ATOM     11  C   UNL     1       2.170   4.494  18.923  0.00  0.00    +0.000 A 
ATOM     12  C   UNL     1       1.376   3.369  18.656  0.00  0.00    +0.000 A 
ATOM     13  C   UNL     1       0.884   2.583  19.700  0.00  0.00    +0.000 A 
ATOM     14  C   UNL     1       1.177   2.914  21.021  0.00  0.00    +0.000 A 
ATOM     15  C   UNL     1       1.959   4.032  21.300  0.00  0.00    +0.000 A 
ATOM     16  C   UNL     1       2.451   4.822  20.256  0.00  0.00    +0.000 A 
ENDBRANCH  10  11
ENDBRANCH   9  10
ENDBRANCH   6   9
TORSDOF 3
ENDMDL
MODEL 3
REMARK VINA RESULT:      -7.0      0.663      2.038
REMARK  Name = 
REMARK  4 active torsions:
REMARK  status: ('A' for Active; 'I' for Inactive)
REMARK    1  A    between atoms: C_1  and  C_2
REMARK    2  A    between atoms: N_6  and  C_7
REMARK    3  A    between atoms: C_7  and  C_8
REMARK    4  A    between atoms: C_8  and  C_9
REMARK                            x       y       z     vdW  Elec       q    Type
REMARK                         _______ _______ _______ _____ _____    ______ ____
ROOT
ATOM      1  C   UNL     1       8.283   5.744  19.303  0.00  0.00    +0.000 C 
ATOM      2  C   UNL     1       7.133   5.900  18.386  0.00  0.00    +0.000 C 
ATOM      3  C   UNL     1       7.004   6.663  17.298  0.00  0.00    +0.000 C 
ATOM      4  C   UNL     1       5.701   6.365  16.691  0.00  0.00    +0.000 C 
ATOM      5  O   UNL     1       5.285   6.904  15.682  0.00  0.00    +0.000 OA
ATOM      6  N   UNL     1       5.120   5.402  17.445  0.00  0.00    +0.000 N 
ATOM      7  C   UNL     1       5.895   5.110  18.519  0.00  0.00    +0.000 C 
ATOM      8  O   UNL     1       5.663   4.344  19.436  0.00  0.00    +0.000 OA
ENDROOT
BRANCH   6   9
ATOM      9  C   UNL     1       3.863   4.746  17.130  0.00  0.00    +0.000 C 
BRANCH   9  10
ATOM     10  C   UNL     1       2.661   5.376  17.834  0.00  0.00    +0.000 C 
BRANCH  10  11
ATOM     11  C   UNL     1       2.159   4.508  18.964  0.00  0.00    +0.000 A 
ATOM     12  C   UNL     1       2.433   4.851  20.297  0.00  0.00    +0.000 A 
ATOM     13  C   UNL     1       1.986   4.044  21.344  0.00  0.00    +0.000 A 
ATOM     14  C   UNL     1       1.264   2.885  21.073  0.00  0.00    +0.000 A 
ATOM     15  C   UNL     1       0.991   2.529  19.754  0.00  0.00    +0.000 A 
ATOM     16  C   UNL     1       1.439   3.335  18.703  0.00  0.00    +0.000 A 
ENDBRANCH  10  11
ENDBRANCH   9  10
ENDBRANCH   6   9
TORSDOF 3
ENDMDL
MODEL 4
REMARK VINA RESULT:      -7.0      1.699      2.350
REMARK  Name = 
REMARK  4 active torsions:
REMARK  status: ('A' for Active; 'I' for Inactive)
REMARK    1  A    between atoms: C_1  and  C_2
REMARK    2  A    between atoms: N_6  and  C_7
REMARK    3  A    between atoms: C_7  and  C_8
REMARK    4  A    between atoms: C_8  and  C_9
REMARK                            x       y       z     vdW  Elec       q    Type
REMARK                         _______ _______ _______ _____ _____    ______ ____
ROOT
ATOM      1  C   UNL     1       7.917   5.724  19.467  0.00  0.00    +0.000 C 
ATOM      2  C   UNL     1       7.087   5.217  18.352  0.00  0.00    +0.000 C 
ATOM      3  C   UNL     1       7.457   4.660  17.196  0.00  0.00    +0.000 C 
ATOM      4  C   UNL     1       6.241   4.236  16.493  0.00  0.00    +0.000 C 
ATOM      5  O   UNL     1       6.243   3.695  15.402  0.00  0.00    +0.000 OA
ATOM      6  N   UNL     1       5.190   4.541  17.290  0.00  0.00    +0.000 N 
ATOM      7  C   UNL     1       5.614   5.188  18.404  0.00  0.00    +0.000 C 
ATOM      8  O   UNL     1       4.948   5.661  19.306  0.00  0.00    +0.000 OA
ENDROOT
BRANCH   6   9
ATOM      9  C   UNL     1       3.808   4.191  17.013  0.00  0.00    +0.000 C 
BRANCH   9  10
ATOM     10  C   UNL     1       3.411   2.822  17.568  0.00  0.00    +0.000 C 
BRANCH  10  11
ATOM     11  C   UNL     1       2.715   2.944  18.904  0.00  0.00    +0.000 A 
ATOM     12  C   UNL     1       1.458   3.562  18.993  0.00  0.00    +0.000 A 
ATOM     13  C   UNL     1       0.817   3.691  20.226  0.00  0.00    +0.000 A 
ATOM     14  C   UNL     1       1.424   3.208  21.383  0.00  0.00    +0.000 A 
ATOM     15  C   UNL     1       2.675   2.598  21.308  0.00  0.00    +0.000 A 
ATOM     16  C   UNL     1       3.319   2.469  20.075  0.00  0.00    +0.000 A 
ENDBRANCH  10  11
ENDBRANCH   9  10
ENDBRANCH   6   9
TORSDOF 3
ENDMDL
MODEL 5
REMARK VINA RESULT:      -6.8      1.098      1.474
REMARK  Name = 
REMARK  4 active torsions:
REMARK  status: ('A' for Active; 'I' for Inactive)
REMARK    1  A    between atoms: C_1  and  C_2
REMARK    2  A    between atoms: N_6  and  C_7
REMARK    3  A    between atoms: C_7  and  C_8
REMARK    4  A    between atoms: C_8  and  C_9
REMARK                            x       y       z     vdW  Elec       q    Type
REMARK                         _______ _______ _______ _____ _____    ______ ____
ROOT
ATOM      1  C   UNL     1       8.054   7.912  17.821  0.00  0.00    +0.000 C 
ATOM      2  C   UNL     1       7.405   6.592  17.976  0.00  0.00    +0.000 C 
ATOM      3  C   UNL     1       7.025   5.951  19.085  0.00  0.00    +0.000 C 
ATOM      4  C   UNL     1       6.332   4.723  18.679  0.00  0.00    +0.000 C 
ATOM      5  O   UNL     1       5.868   3.916  19.464  0.00  0.00    +0.000 OA
ATOM      6  N   UNL     1       6.308   4.706  17.325  0.00  0.00    +0.000 N 
ATOM      7  C   UNL     1       6.986   5.770  16.827  0.00  0.00    +0.000 C 
ATOM      8  O   UNL     1       7.220   6.042  15.664  0.00  0.00    +0.000 OA
ENDROOT
BRANCH   6   9
ATOM      9  C   UNL     1       5.621   3.712  16.519  0.00  0.00    +0.000 C 
BRANCH   9  10
ATOM     10  C   UNL     1       4.219   4.147  16.092  0.00  0.00    +0.000 C 
BRANCH  10  11
ATOM     11  C   UNL     1       3.197   3.869  17.169  0.00  0.00    +0.000 A 
ATOM     12  C   UNL     1       2.679   4.921  17.941  0.00  0.00    +0.000 A 
ATOM     13  C   UNL     1       1.746   4.669  18.948  0.00  0.00    +0.000 A 
ATOM     14  C   UNL     1       1.323   3.365  19.198  0.00  0.00    +0.000 A 
ATOM     15  C   UNL     1       1.835   2.312  18.443  0.00  0.00    +0.000 A 
ATOM     16  C   UNL     1       2.770   2.562  17.435  0.00  0.00    +0.000 A 
ENDBRANCH  10  11
ENDBRANCH   9  10
ENDBRANCH   6   9
TORSDOF 3
ENDMDL
MODEL 6
REMARK VINA RESULT:      -6.7      1.840      2.209
REMARK  Name = 
REMARK  4 active torsions:
REMARK  status: ('A' for Active; 'I' for Inactive)
REMARK    1  A    between atoms: C_1  and  C_2
REMARK    2  A    between atoms: N_6  and  C_7
REMARK    3  A    between atoms: C_7  and  C_8
REMARK    4  A    between atoms: C_8  and  C_9
REMARK                            x       y       z     vdW  Elec       q    Type
REMARK                         _______ _______ _______ _____ _____    ______ ____
ROOT
ATOM      1  C   UNL     1       7.512   7.168  17.617  0.00  0.00    +0.000 C 
ATOM      2  C   UNL     1       6.744   6.114  16.919  0.00  0.00    +0.000 C 
ATOM      3  C   UNL     1       7.103   5.324  15.904  0.00  0.00    +0.000 C 
ATOM      4  C   UNL     1       6.007   4.377  15.662  0.00  0.00    +0.000 C 
ATOM      5  O   UNL     1       6.028   3.525  14.793  0.00  0.00    +0.000 OA
ATOM      6  N   UNL     1       5.045   4.636  16.580  0.00  0.00    +0.000 N 
ATOM      7  C   UNL     1       5.390   5.707  17.337  0.00  0.00    +0.000 C 
ATOM      8  O   UNL     1       4.745   6.256  18.211  0.00  0.00    +0.000 OA
ENDROOT
BRANCH   6   9
ATOM      9  C   UNL     1       3.834   3.854  16.755  0.00  0.00    +0.000 C 
BRANCH   9  10
ATOM     10  C   UNL     1       3.980   2.743  17.795  0.00  0.00    +0.000 C 
BRANCH  10  11
ATOM     11  C   UNL     1       3.048   2.951  18.967  0.00  0.00    +0.000 A 
ATOM     12  C   UNL     1       3.465   2.631  20.268  0.00  0.00    +0.000 A 
ATOM     13  C   UNL     1       2.604   2.806  21.352  0.00  0.00    +0.000 A 
ATOM     14  C   UNL     1       1.317   3.299  21.150  0.00  0.00    +0.000 A 
ATOM     15  C   UNL     1       0.889   3.615  19.862  0.00  0.00    +0.000 A 
ATOM     16  C   UNL     1       1.749   3.439  18.774  0.00  0.00    +0.000 A 
ENDBRANCH  10  11
ENDBRANCH   9  10
ENDBRANCH   6   9
TORSDOF 3
ENDMDL
MODEL 7
REMARK VINA RESULT:      -6.6      1.959      5.837
REMARK  Name = 
REMARK  4 active torsions:
REMARK  status: ('A' for Active; 'I' for Inactive)
REMARK    1  A    between atoms: C_1  and  C_2
REMARK    2  A    between atoms: N_6  and  C_7
REMARK    3  A    between atoms: C_7  and  C_8
REMARK    4  A    between atoms: C_8  and  C_9
REMARK                            x       y       z     vdW  Elec       q    Type
REMARK                         _______ _______ _______ _____ _____    ______ ____
ROOT
ATOM      1  C   UNL     1       1.472   2.668  21.653  0.00  0.00    +0.000 C 
ATOM      2  C   UNL     1       1.875   3.041  20.280  0.00  0.00    +0.000 C 
ATOM      3  C   UNL     1       1.657   2.410  19.123  0.00  0.00    +0.000 C 
ATOM      4  C   UNL     1       2.172   3.260  18.043  0.00  0.00    +0.000 C 
ATOM      5  O   UNL     1       2.126   2.959  16.864  0.00  0.00    +0.000 OA
ATOM      6  N   UNL     1       2.654   4.388  18.617  0.00  0.00    +0.000 N 
ATOM      7  C   UNL     1       2.564   4.307  19.968  0.00  0.00    +0.000 C 
ATOM      8  O   UNL     1       2.952   5.103  20.802  0.00  0.00    +0.000 OA
ENDROOT
BRANCH   6   9
ATOM      9  C   UNL     1       3.159   5.539  17.889  0.00  0.00    +0.000 C 
BRANCH   9  10
ATOM     10  C   UNL     1       4.369   5.213  17.013  0.00  0.00    +0.000 C 
BRANCH  10  11
ATOM     11  C   UNL     1       5.646   5.771  17.596  0.00  0.00    +0.000 A 
ATOM     12  C   UNL     1       6.250   6.901  17.023  0.00  0.00    +0.000 A 
ATOM     13  C   UNL     1       7.439   7.412  17.548  0.00  0.00    +0.000 A 
ATOM     14  C   UNL     1       8.038   6.800  18.646  0.00  0.00    +0.000 A 
ATOM     15  C   UNL     1       7.450   5.674  19.220  0.00  0.00    +0.000 A 
ATOM     16  C   UNL     1       6.261   5.159  18.695  0.00  0.00    +0.000 A 
ENDBRANCH  10  11
ENDBRANCH   9  10
ENDBRANCH   6   9
TORSDOF 3
ENDMDL
MODEL 8
REMARK VINA RESULT:      -6.6      1.871      5.764
REMARK  Name = 
REMARK  4 active torsions:
REMARK  status: ('A' for Active; 'I' for Inactive)
REMARK    1  A    between atoms: C_1  and  C_2
REMARK    2  A    between atoms: N_6  and  C_7
REMARK    3  A    between atoms: C_7  and  C_8
REMARK    4  A    between atoms: C_8  and  C_9
REMARK                            x       y       z     vdW  Elec       q    Type
REMARK                         _______ _______ _______ _____ _____    ______ ____
ROOT
ATOM      1  C   UNL     1       1.510   2.823  21.503  0.00  0.00    +0.000 C 
ATOM      2  C   UNL     1       1.956   3.840  20.526  0.00  0.00    +0.000 C 
ATOM      3  C   UNL     1       2.092   5.160  20.669  0.00  0.00    +0.000 C 
ATOM      4  C   UNL     1       2.671   5.689  19.427  0.00  0.00    +0.000 C 
ATOM      5  O   UNL     1       2.914   6.867  19.242  0.00  0.00    +0.000 OA
ATOM      6  N   UNL     1       2.879   4.635  18.603  0.00  0.00    +0.000 N 
ATOM      7  C   UNL     1       2.420   3.492  19.171  0.00  0.00    +0.000 C 
ATOM      8  O   UNL     1       2.386   2.372  18.697  0.00  0.00    +0.000 OA
ENDROOT
BRANCH   6   9
ATOM      9  C   UNL     1       3.537   4.710  17.310  0.00  0.00    +0.000 C 
BRANCH   9  10
ATOM     10  C   UNL     1       4.959   4.149  17.325  0.00  0.00    +0.000 C 
BRANCH  10  11
ATOM     11  C   UNL     1       5.976   5.217  17.653  0.00  0.00    +0.000 A 
ATOM     12  C   UNL     1       5.995   6.421  16.933  0.00  0.00    +0.000 A 
ATOM     13  C   UNL     1       6.942   7.405  17.221  0.00  0.00    +0.000 A 
ATOM     14  C   UNL     1       7.882   7.197  18.228  0.00  0.00    +0.000 A 
ATOM     15  C   UNL     1       7.877   6.003  18.946  0.00  0.00    +0.000 A 
ATOM     16  C   UNL     1       6.931   5.015  18.658  0.00  0.00    +0.000 A 
ENDBRANCH  10  11
ENDBRANCH   9  10
ENDBRANCH   6   9
TORSDOF 3
ENDMDL
MODEL 9
REMARK VINA RESULT:      -6.5      1.208      2.101
REMARK  Name = 
REMARK  4 active torsions:
REMARK  status: ('A' for Active; 'I' for Inactive)
REMARK    1  A    between atoms: C_1  and  C_2
REMARK    2  A    between atoms: N_6  and  C_7
REMARK    3  A    between atoms: C_7  and  C_8
REMARK    4  A    between atoms: C_8  and  C_9
REMARK                            x       y       z     vdW  Elec       q    Type
REMARK                         _______ _______ _______ _____ _____    ______ ____
ROOT
ATOM      1  C   UNL     1       8.032   6.903  18.409  0.00  0.00    +0.000 C 
ATOM      2  C   UNL     1       7.093   6.110  17.586  0.00  0.00    +0.000 C 
ATOM      3  C   UNL     1       6.946   6.067  16.260  0.00  0.00    +0.000 C 
ATOM      4  C   UNL     1       5.948   5.035  15.952  0.00  0.00    +0.000 C 
ATOM      5  O   UNL     1       5.588   4.757  14.822  0.00  0.00    +0.000 OA
ATOM      6  N   UNL     1       5.564   4.486  17.128  0.00  0.00    +0.000 N 
ATOM      7  C   UNL     1       6.167   5.120  18.165  0.00  0.00    +0.000 C 
ATOM      8  O   UNL     1       6.013   4.936  19.358  0.00  0.00    +0.000 OA
ENDROOT
BRANCH   6   9
ATOM      9  C   UNL     1       4.665   3.353  17.262  0.00  0.00    +0.000 C 
BRANCH   9  10
ATOM     10  C   UNL     1       3.208   3.702  16.956  0.00  0.00    +0.000 C 
BRANCH  10  11
ATOM     11  C   UNL     1       2.383   3.798  18.218  0.00  0.00    +0.000 A 
ATOM     12  C   UNL     1       2.526   4.900  19.075  0.00  0.00    +0.000 A 
ATOM     13  C   UNL     1       1.777   4.987  20.250  0.00  0.00    +0.000 A 
ATOM     14  C   UNL     1       0.881   3.975  20.585  0.00  0.00    +0.000 A 
ATOM     15  C   UNL     1       0.735   2.872  19.745  0.00  0.00    +0.000 A 
ATOM     16  C   UNL     1       1.484   2.782  18.569  0.00  0.00    +0.000 A 
ENDBRANCH  10  11
ENDBRANCH   9  10
ENDBRANCH   6   9
TORSDOF 3
ENDMDL
