MODEL 1
REMARK VINA RESULT:      -7.4      0.000      0.000
REMARK  Name = 
REMARK  13 active torsions:
REMARK  status: ('A' for Active; 'I' for Inactive)
REMARK    1  A    between atoms: C_1  and  C_2
REMARK    2  A    between atoms: C_2  and  C_3
REMARK    3  A    between atoms: C_2  and  C_4
REMARK    4  A    between atoms: C_4  and  C_5
REMARK    5  A    between atoms: C_5  and  C_6
REMARK    6  A    between atoms: C_5  and  S_12
REMARK    7  A    between atoms: C_6  and  O_8
REMARK    8  A    between atoms: O_8  and  C_9
REMARK    9  A    between atoms: C_9  and  C_10
REMARK   10  A    between atoms: C_9  and  C_11
REMARK   11  A    between atoms: S_12  and  C_15
REMARK   12  A    between atoms: N_21  and  C_22
REMARK   13  A    between atoms: N_21  and  C_23
REMARK                            x       y       z     vdW  Elec       q    Type
REMARK                         _______ _______ _______ _____ _____    ______ ____
ROOT
ATOM      1  C   UNL     1       3.668   5.282  18.334  0.00  0.00    +0.000 A 
ATOM      2  N   UNL     1       2.461   4.620  18.185  0.00  0.00    +0.000 NA
ATOM      3  C   UNL     1       1.599   5.456  18.709  0.00  0.00    +0.000 A 
ATOM      4  N   UNL     1       2.221   6.617  19.073  0.00  0.00    +0.000 N 
ATOM      5  C   UNL     1       1.691   7.629  19.885  0.00  0.00    +0.000 C 
ATOM      6  O   UNL     1       1.451   7.322  21.044  0.00  0.00    +0.000 OA
ATOM      7  N   UNL     1       1.453   8.843  19.245  0.00  0.00    +0.000 N 
ATOM      8  C   UNL     1       1.542   9.024  17.793  0.00  0.00    +0.000 C 
ATOM      9  N   UNL     1       3.558   6.536  18.817  0.00  0.00    +0.000 NA
ENDROOT
BRANCH   7  10
ATOM     10  C   UNL     1       1.176  10.086  20.010  0.00  0.00    +0.000 C 
ATOM     11  C   UNL     1       1.657  11.418  19.402  0.00  0.00    +0.000 C 
ATOM     12  C   UNL     1       0.677  12.155  18.488  0.00  0.00    +0.000 C 
ATOM     13  C   UNL     1      -0.779  12.094  18.938  0.00  0.00    +0.000 C 
ATOM     14  C   UNL     1      -1.226  10.723  19.432  0.00  0.00    +0.000 C 
ATOM     15  C   UNL     1      -0.280  10.161  20.482  0.00  0.00    +0.000 C 
ENDBRANCH   7  10
BRANCH   1  16
ATOM     16  S   UNL     1       5.186   4.565  17.793  0.00  0.00    +0.000 S 
ATOM     17  O   UNL     1       4.802   3.414  16.984  0.00  0.00    +0.000 OA
ATOM     18  O   UNL     1       5.998   4.385  18.980  0.00  0.00    +0.000 OA
BRANCH  16  19
ATOM     19  C   UNL     1       5.906   5.788  16.727  0.00  0.00    +0.000 C 
BRANCH  19  20
ATOM     20  C   UNL     1       7.109   5.166  16.086  0.00  0.00    +0.000 C 
ATOM     21  O   UNL     1       7.878   4.403  16.661  0.00  0.00    +0.000 OA
BRANCH  20  22
ATOM     22  O   UNL     1       7.276   5.615  14.807  0.00  0.00    +0.000 OA
BRANCH  22  23
ATOM     23  C   UNL     1       7.340   4.609  13.773  0.00  0.00    +0.000 C 
ATOM     24  C   UNL     1       5.984   3.931  13.614  0.00  0.00    +0.000 C 
ATOM     25  C   UNL     1       7.741   5.293  12.469  0.00  0.00    +0.000 C 
ENDBRANCH  22  23
ENDBRANCH  20  22
ENDBRANCH  19  20
BRANCH  19  26
ATOM     26  C   UNL     1       6.250   7.072  17.502  0.00  0.00    +0.000 C 
BRANCH  26  28
ATOM     27  C   UNL     1       8.039   8.877  17.672  0.00  0.00    +0.000 C 
ATOM     28  C   UNL     1       7.746   7.380  17.684  0.00  0.00    +0.000 C 
ATOM     29  C   UNL     1       8.228   6.750  18.997  0.00  0.00    +0.000 C 
ENDBRANCH  26  28
ENDBRANCH  19  26
ENDBRANCH  16  19
ENDBRANCH   1  16
TORSDOF 8
ENDMDL
MODEL 2
REMARK VINA RESULT:      -7.2      2.396      4.125
REMARK  Name = 
REMARK  13 active torsions:
REMARK  status: ('A' for Active; 'I' for Inactive)
REMARK    1  A    between atoms: C_1  and  C_2
REMARK    2  A    between atoms: C_2  and  C_3
REMARK    3  A    between atoms: C_2  and  C_4
REMARK    4  A    between atoms: C_4  and  C_5
REMARK    5  A    between atoms: C_5  and  C_6
REMARK    6  A    between atoms: C_5  and  S_12
REMARK    7  A    between atoms: C_6  and  O_8
REMARK    8  A    between atoms: O_8  and  C_9
REMARK    9  A    between atoms: C_9  and  C_10
REMARK   10  A    between atoms: C_9  and  C_11
REMARK   11  A    between atoms: S_12  and  C_15
REMARK   12  A    between atoms: N_21  and  C_22
REMARK   13  A    between atoms: N_21  and  C_23
REMARK                            x       y       z     vdW  Elec       q    Type
REMARK                         _______ _______ _______ _____ _____    ______ ____
ROOT
ATOM      1  C   UNL     1       2.115   6.786  19.757  0.00  0.00    +0.000 A 
ATOM      2  N   UNL     1       1.357   6.136  20.716  0.00  0.00    +0.000 NA
ATOM      3  C   UNL     1       0.871   7.123  21.428  0.00  0.00    +0.000 A 
ATOM      4  N   UNL     1       1.226   8.325  20.882  0.00  0.00    +0.000 N 
ATOM      5  C   UNL     1       1.114   9.582  21.489  0.00  0.00    +0.000 C 
ATOM      6  O   UNL     1       1.798   9.764  22.487  0.00  0.00    +0.000 OA
ATOM      7  N   UNL     1       0.191  10.446  20.905  0.00  0.00    +0.000 N 
ATOM      8  C   UNL     1      -0.756  10.035  19.864  0.00  0.00    +0.000 C 
ATOM      9  N   UNL     1       2.013   8.130  19.785  0.00  0.00    +0.000 NA
ENDROOT
BRANCH   7  10
ATOM     10  C   UNL     1       0.161  11.894  21.235  0.00  0.00    +0.000 C 
ATOM     11  C   UNL     1      -0.111  12.881  20.083  0.00  0.00    +0.000 C 
ATOM     12  C   UNL     1      -1.571  13.249  19.818  0.00  0.00    +0.000 C 
ATOM     13  C   UNL     1      -2.423  13.409  21.073  0.00  0.00    +0.000 C 
ATOM     14  C   UNL     1      -2.184  12.342  22.135  0.00  0.00    +0.000 C 
ATOM     15  C   UNL     1      -0.707  12.189  22.463  0.00  0.00    +0.000 C 
ENDBRANCH   7  10
BRANCH   1  16
ATOM     16  S   UNL     1       3.014   5.891  18.531  0.00  0.00    +0.000 S 
ATOM     17  O   UNL     1       4.061   6.800  18.080  0.00  0.00    +0.000 OA
ATOM     18  O   UNL     1       2.032   5.386  17.594  0.00  0.00    +0.000 OA
BRANCH  16  19
ATOM     19  C   UNL     1       3.773   4.554  19.418  0.00  0.00    +0.000 C 
BRANCH  19  20
ATOM     20  C   UNL     1       5.242   4.604  19.126  0.00  0.00    +0.000 C 
ATOM     21  O   UNL     1       6.055   5.236  19.793  0.00  0.00    +0.000 OA
BRANCH  20  22
ATOM     22  O   UNL     1       5.544   3.918  17.985  0.00  0.00    +0.000 OA
BRANCH  22  23
ATOM     23  C   UNL     1       6.111   4.686  16.901  0.00  0.00    +0.000 C 
ATOM     24  C   UNL     1       7.626   4.521  16.875  0.00  0.00    +0.000 C 
ATOM     25  C   UNL     1       5.505   4.181  15.594  0.00  0.00    +0.000 C 
ENDBRANCH  22  23
ENDBRANCH  20  22
ENDBRANCH  19  20
BRANCH  19  26
ATOM     26  C   UNL     1       3.144   3.203  19.037  0.00  0.00    +0.000 C 
BRANCH  26  28
ATOM     27  C   UNL     1       2.511   3.031  21.498  0.00  0.00    +0.000 C 
ATOM     28  C   UNL     1       2.204   2.569  20.078  0.00  0.00    +0.000 C 
ATOM     29  C   UNL     1       0.754   2.904  19.707  0.00  0.00    +0.000 C 
ENDBRANCH  26  28
ENDBRANCH  19  26
ENDBRANCH  16  19
ENDBRANCH   1  16
TORSDOF 8
ENDMDL
MODEL 3
REMARK VINA RESULT:      -7.1      3.317      9.426
REMARK  Name = 
REMARK  13 active torsions:
REMARK  status: ('A' for Active; 'I' for Inactive)
REMARK    1  A    between atoms: C_1  and  C_2
REMARK    2  A    between atoms: C_2  and  C_3
REMARK    3  A    between atoms: C_2  and  C_4
REMARK    4  A    between atoms: C_4  and  C_5
REMARK    5  A    between atoms: C_5  and  C_6
REMARK    6  A    between atoms: C_5  and  S_12
REMARK    7  A    between atoms: C_6  and  O_8
REMARK    8  A    between atoms: O_8  and  C_9
REMARK    9  A    between atoms: C_9  and  C_10
REMARK   10  A    between atoms: C_9  and  C_11
REMARK   11  A    between atoms: S_12  and  C_15
REMARK   12  A    between atoms: N_21  and  C_22
REMARK   13  A    between atoms: N_21  and  C_23
REMARK                            x       y       z     vdW  Elec       q    Type
REMARK                         _______ _______ _______ _____ _____    ______ ____
ROOT
ATOM      1  C   UNL     1       1.417   8.824  19.657  0.00  0.00    +0.000 A 
ATOM      2  N   UNL     1       1.293   9.344  18.380  0.00  0.00    +0.000 NA
ATOM      3  C   UNL     1       2.060   8.559  17.665  0.00  0.00    +0.000 A 
ATOM      4  N   UNL     1       2.556   7.545  18.436  0.00  0.00    +0.000 N 
ATOM      5  C   UNL     1       3.597   6.671  18.097  0.00  0.00    +0.000 C 
ATOM      6  O   UNL     1       4.700   7.176  17.945  0.00  0.00    +0.000 OA
ATOM      7  N   UNL     1       3.224   5.340  17.922  0.00  0.00    +0.000 N 
ATOM      8  C   UNL     1       1.830   4.888  17.883  0.00  0.00    +0.000 C 
ATOM      9  N   UNL     1       2.133   7.684  19.725  0.00  0.00    +0.000 NA
ENDROOT
BRANCH   7  10
ATOM     10  C   UNL     1       4.232   4.251  17.852  0.00  0.00    +0.000 C 
ATOM     11  C   UNL     1       4.831   3.751  19.181  0.00  0.00    +0.000 C 
ATOM     12  C   UNL     1       4.111   2.591  19.870  0.00  0.00    +0.000 C 
ATOM     13  C   UNL     1       3.565   1.529  18.922  0.00  0.00    +0.000 C 
ATOM     14  C   UNL     1       2.892   2.088  17.674  0.00  0.00    +0.000 C 
ATOM     15  C   UNL     1       3.775   3.096  16.955  0.00  0.00    +0.000 C 
ENDBRANCH   7  10
BRANCH   1  16
ATOM     16  S   UNL     1       0.577   9.545  21.031  0.00  0.00    +0.000 S 
ATOM     17  O   UNL     1       1.626   9.926  21.968  0.00  0.00    +0.000 OA
ATOM     18  O   UNL     1      -0.446   8.597  21.425  0.00  0.00    +0.000 OA
BRANCH  16  19
ATOM     19  C   UNL     1      -0.162  11.021  20.380  0.00  0.00    +0.000 C 
BRANCH  19  20
ATOM     20  C   UNL     1      -0.504  11.898  21.547  0.00  0.00    +0.000 C 
ATOM     21  O   UNL     1       0.259  12.725  22.034  0.00  0.00    +0.000 OA
BRANCH  20  22
ATOM     22  O   UNL     1      -1.745  11.606  22.039  0.00  0.00    +0.000 OA
BRANCH  22  23
ATOM     23  C   UNL     1      -2.563  12.728  22.432  0.00  0.00    +0.000 C 
ATOM     24  C   UNL     1      -3.576  13.050  21.339  0.00  0.00    +0.000 C 
ATOM     25  C   UNL     1      -3.285  12.359  23.725  0.00  0.00    +0.000 C 
ENDBRANCH  22  23
ENDBRANCH  20  22
ENDBRANCH  19  20
BRANCH  19  26
ATOM     26  C   UNL     1      -1.388  10.696  19.510  0.00  0.00    +0.000 C 
BRANCH  26  28
ATOM     27  C   UNL     1      -2.887  11.508  17.617  0.00  0.00    +0.000 C 
ATOM     28  C   UNL     1      -1.459  11.396  18.141  0.00  0.00    +0.000 C 
ATOM     29  C   UNL     1      -0.821  12.785  18.259  0.00  0.00    +0.000 C 
ENDBRANCH  26  28
ENDBRANCH  19  26
ENDBRANCH  16  19
ENDBRANCH   1  16
TORSDOF 8
ENDMDL
MODEL 4
REMARK VINA RESULT:      -7.0      2.416      4.296
REMARK  Name = 
REMARK  13 active torsions:
REMARK  status: ('A' for Active; 'I' for Inactive)
REMARK    1  A    between atoms: C_1  and  C_2
REMARK    2  A    between atoms: C_2  and  C_3
REMARK    3  A    between atoms: C_2  and  C_4
REMARK    4  A    between atoms: C_4  and  C_5
REMARK    5  A    between atoms: C_5  and  C_6
REMARK    6  A    between atoms: C_5  and  S_12
REMARK    7  A    between atoms: C_6  and  O_8
REMARK    8  A    between atoms: O_8  and  C_9
REMARK    9  A    between atoms: C_9  and  C_10
REMARK   10  A    between atoms: C_9  and  C_11
REMARK   11  A    between atoms: S_12  and  C_15
REMARK   12  A    between atoms: N_21  and  C_22
REMARK   13  A    between atoms: N_21  and  C_23
REMARK                            x       y       z     vdW  Elec       q    Type
REMARK                         _______ _______ _______ _____ _____    ______ ____
ROOT
ATOM      1  C   UNL     1       2.093   7.541  19.495  0.00  0.00    +0.000 A 
ATOM      2  N   UNL     1       1.575   7.134  20.713  0.00  0.00    +0.000 NA
ATOM      3  C   UNL     1       0.998   8.219  21.167  0.00  0.00    +0.000 A 
ATOM      4  N   UNL     1       1.067   9.220  20.239  0.00  0.00    +0.000 N 
ATOM      5  C   UNL     1       0.795  10.577  20.453  0.00  0.00    +0.000 C 
ATOM      6  O   UNL     1       1.539  11.162  21.228  0.00  0.00    +0.000 OA
ATOM      7  N   UNL     1      -0.329  11.071  19.794  0.00  0.00    +0.000 N 
ATOM      8  C   UNL     1      -1.293  10.221  19.090  0.00  0.00    +0.000 C 
ATOM      9  N   UNL     1       1.751   8.795  19.138  0.00  0.00    +0.000 NA
ENDROOT
BRANCH   7  10
ATOM     10  C   UNL     1      -0.585  12.530  19.678  0.00  0.00    +0.000 C 
ATOM     11  C   UNL     1      -0.380  13.390  20.940  0.00  0.00    +0.000 C 
ATOM     12  C   UNL     1       1.012  13.986  21.152  0.00  0.00    +0.000 C 
ATOM     13  C   UNL     1       1.698  14.466  19.876  0.00  0.00    +0.000 C 
ATOM     14  C   UNL     1       1.547  13.522  18.689  0.00  0.00    +0.000 C 
ATOM     15  C   UNL     1       0.095  13.140  18.448  0.00  0.00    +0.000 C 
ENDBRANCH   7  10
BRANCH   1  16
ATOM     16  S   UNL     1       3.001   6.435  18.464  0.00  0.00    +0.000 S 
ATOM     17  O   UNL     1       4.001   7.260  17.799  0.00  0.00    +0.000 OA
ATOM     18  O   UNL     1       2.019   5.707  17.684  0.00  0.00    +0.000 OA
BRANCH  16  19
ATOM     19  C   UNL     1       3.829   5.345  19.594  0.00  0.00    +0.000 C 
BRANCH  19  20
ATOM     20  C   UNL     1       5.245   5.209  19.123  0.00  0.00    +0.000 C 
ATOM     21  O   UNL     1       6.198   5.788  19.633  0.00  0.00    +0.000 OA
BRANCH  20  22
ATOM     22  O   UNL     1       5.324   4.418  18.013  0.00  0.00    +0.000 OA
BRANCH  22  23
ATOM     23  C   UNL     1       6.057   4.954  16.890  0.00  0.00    +0.000 C 
ATOM     24  C   UNL     1       7.496   4.450  16.911  0.00  0.00    +0.000 C 
ATOM     25  C   UNL     1       5.361   4.501  15.609  0.00  0.00    +0.000 C 
ENDBRANCH  22  23
ENDBRANCH  20  22
ENDBRANCH  19  20
BRANCH  19  26
ATOM     26  C   UNL     1       3.109   3.989  19.691  0.00  0.00    +0.000 C 
BRANCH  26  28
ATOM     27  C   UNL     1       0.639   3.655  20.215  0.00  0.00    +0.000 C 
ATOM     28  C   UNL     1       2.037   3.861  20.788  0.00  0.00    +0.000 C 
ATOM     29  C   UNL     1       2.412   2.700  21.717  0.00  0.00    +0.000 C 
ENDBRANCH  26  28
ENDBRANCH  19  26
ENDBRANCH  16  19
ENDBRANCH   1  16
TORSDOF 8
ENDMDL
MODEL 5
REMARK VINA RESULT:      -7.0      3.361      9.326
REMARK  Name = 
REMARK  13 active torsions:
REMARK  status: ('A' for Active; 'I' for Inactive)
REMARK    1  A    between atoms: C_1  and  C_2
REMARK    2  A    between atoms: C_2  and  C_3
REMARK    3  A    between atoms: C_2  and  C_4
REMARK    4  A    between atoms: C_4  and  C_5
REMARK    5  A    between atoms: C_5  and  C_6
REMARK    6  A    between atoms: C_5  and  S_12
REMARK    7  A    between atoms: C_6  and  O_8
REMARK    8  A    between atoms: O_8  and  C_9
REMARK    9  A    between atoms: C_9  and  C_10
REMARK   10  A    between atoms: C_9  and  C_11
REMARK   11  A    between atoms: S_12  and  C_15
REMARK   12  A    between atoms: N_21  and  C_22
REMARK   13  A    between atoms: N_21  and  C_23
REMARK                            x       y       z     vdW  Elec       q    Type
REMARK                         _______ _______ _______ _____ _____    ______ ____
ROOT
ATOM      1  C   UNL     1       1.345   8.746  19.871  0.00  0.00    +0.000 A 
ATOM      2  N   UNL     1       1.153   9.325  18.628  0.00  0.00    +0.000 NA
ATOM      3  C   UNL     1       1.883   8.577  17.837  0.00  0.00    +0.000 A 
ATOM      4  N   UNL     1       2.421   7.531  18.533  0.00  0.00    +0.000 N 
ATOM      5  C   UNL     1       3.445   6.679  18.099  0.00  0.00    +0.000 C 
ATOM      6  O   UNL     1       4.537   7.196  17.914  0.00  0.00    +0.000 OA
ATOM      7  N   UNL     1       3.066   5.355  17.880  0.00  0.00    +0.000 N 
ATOM      8  C   UNL     1       1.674   4.900  17.892  0.00  0.00    +0.000 C 
ATOM      9  N   UNL     1       2.065   7.607  19.847  0.00  0.00    +0.000 NA
ENDROOT
BRANCH   7  10
ATOM     10  C   UNL     1       4.072   4.276  17.707  0.00  0.00    +0.000 C 
ATOM     11  C   UNL     1       4.861   3.832  18.954  0.00  0.00    +0.000 C 
ATOM     12  C   UNL     1       4.264   2.692  19.779  0.00  0.00    +0.000 C 
ATOM     13  C   UNL     1       3.606   1.588  18.956  0.00  0.00    +0.000 C 
ATOM     14  C   UNL     1       2.754   2.093  17.797  0.00  0.00    +0.000 C 
ATOM     15  C   UNL     1       3.511   3.083  16.925  0.00  0.00    +0.000 C 
ENDBRANCH   7  10
BRANCH   1  16
ATOM     16  S   UNL     1       0.576   9.396  21.319  0.00  0.00    +0.000 S 
ATOM     17  O   UNL     1       1.661   9.615  22.267  0.00  0.00    +0.000 OA
ATOM     18  O   UNL     1      -0.509   8.492  21.645  0.00  0.00    +0.000 OA
BRANCH  16  19
ATOM     19  C   UNL     1      -0.062  10.975  20.817  0.00  0.00    +0.000 C 
BRANCH  19  20
ATOM     20  C   UNL     1      -0.337  11.759  22.064  0.00  0.00    +0.000 C 
ATOM     21  O   UNL     1      -1.017  11.349  22.999  0.00  0.00    +0.000 OA
BRANCH  20  22
ATOM     22  O   UNL     1       0.204  13.011  21.992  0.00  0.00    +0.000 OA
BRANCH  22  23
ATOM     23  C   UNL     1      -0.567  14.082  22.577  0.00  0.00    +0.000 C 
ATOM     24  C   UNL     1       0.257  15.364  22.617  0.00  0.00    +0.000 C 
ATOM     25  C   UNL     1      -1.816  14.288  21.723  0.00  0.00    +0.000 C 
ENDBRANCH  22  23
ENDBRANCH  20  22
ENDBRANCH  19  20
BRANCH  19  26
ATOM     26  C   UNL     1      -1.311  10.818  19.933  0.00  0.00    +0.000 C 
BRANCH  26  28
ATOM     27  C   UNL     1      -0.389  12.689  18.471  0.00  0.00    +0.000 C 
ATOM     28  C   UNL     1      -1.640  11.997  19.000  0.00  0.00    +0.000 C 
ATOM     29  C   UNL     1      -2.502  11.486  17.839  0.00  0.00    +0.000 C 
ENDBRANCH  26  28
ENDBRANCH  19  26
ENDBRANCH  16  19
ENDBRANCH   1  16
TORSDOF 8
ENDMDL
MODEL 6
REMARK VINA RESULT:      -7.0      3.368      8.725
REMARK  Name = 
REMARK  13 active torsions:
REMARK  status: ('A' for Active; 'I' for Inactive)
REMARK    1  A    between atoms: C_1  and  C_2
REMARK    2  A    between atoms: C_2  and  C_3
REMARK    3  A    between atoms: C_2  and  C_4
REMARK    4  A    between atoms: C_4  and  C_5
REMARK    5  A    between atoms: C_5  and  C_6
REMARK    6  A    between atoms: C_5  and  S_12
REMARK    7  A    between atoms: C_6  and  O_8
REMARK    8  A    between atoms: O_8  and  C_9
REMARK    9  A    between atoms: C_9  and  C_10
REMARK   10  A    between atoms: C_9  and  C_11
REMARK   11  A    between atoms: S_12  and  C_15
REMARK   12  A    between atoms: N_21  and  C_22
REMARK   13  A    between atoms: N_21  and  C_23
REMARK                            x       y       z     vdW  Elec       q    Type
REMARK                         _______ _______ _______ _____ _____    ______ ____
ROOT
ATOM      1  C   UNL     1       1.363   8.974  19.602  0.00  0.00    +0.000 A 
ATOM      2  N   UNL     1       1.181   9.447  18.314  0.00  0.00    +0.000 NA
ATOM      3  C   UNL     1       1.923   8.642  17.595  0.00  0.00    +0.000 A 
ATOM      4  N   UNL     1       2.459   7.660  18.380  0.00  0.00    +0.000 N 
ATOM      5  C   UNL     1       3.492   6.781  18.028  0.00  0.00    +0.000 C 
ATOM      6  O   UNL     1       4.584   7.288  17.812  0.00  0.00    +0.000 OA
ATOM      7  N   UNL     1       3.123   5.442  17.915  0.00  0.00    +0.000 N 
ATOM      8  C   UNL     1       1.733   4.980  17.952  0.00  0.00    +0.000 C 
ATOM      9  N   UNL     1       2.090   7.842  19.680  0.00  0.00    +0.000 NA
ENDROOT
BRANCH   7  10
ATOM     10  C   UNL     1       4.136   4.359  17.841  0.00  0.00    +0.000 C 
ATOM     11  C   UNL     1       4.747   3.865  19.167  0.00  0.00    +0.000 C 
ATOM     12  C   UNL     1       4.038   2.704  19.865  0.00  0.00    +0.000 C 
ATOM     13  C   UNL     1       3.491   1.636  18.923  0.00  0.00    +0.000 C 
ATOM     14  C   UNL     1       2.805   2.188  17.679  0.00  0.00    +0.000 C 
ATOM     15  C   UNL     1       3.678   3.199  16.951  0.00  0.00    +0.000 C 
ENDBRANCH   7  10
BRANCH   1  16
ATOM     16  S   UNL     1       0.576   9.737  20.984  0.00  0.00    +0.000 S 
ATOM     17  O   UNL     1       1.656  10.093  21.896  0.00  0.00    +0.000 OA
ATOM     18  O   UNL     1      -0.470   8.829  21.410  0.00  0.00    +0.000 OA
BRANCH  16  19
ATOM     19  C   UNL     1      -0.127  11.231  20.332  0.00  0.00    +0.000 C 
BRANCH  19  20
ATOM     20  C   UNL     1       0.167  12.325  21.312  0.00  0.00    +0.000 C 
ATOM     21  O   UNL     1      -0.173  12.303  22.491  0.00  0.00    +0.000 OA
BRANCH  20  22
ATOM     22  O   UNL     1       0.795  13.376  20.708  0.00  0.00    +0.000 OA
BRANCH  22  23
ATOM     23  C   UNL     1       2.135  13.136  20.225  0.00  0.00    +0.000 C 
ATOM     24  C   UNL     1       2.253  13.565  18.767  0.00  0.00    +0.000 C 
ATOM     25  C   UNL     1       3.102  13.941  21.089  0.00  0.00    +0.000 C 
ENDBRANCH  22  23
ENDBRANCH  20  22
ENDBRANCH  19  20
BRANCH  19  26
ATOM     26  C   UNL     1      -1.633  11.070  20.064  0.00  0.00    +0.000 C 
BRANCH  26  28
ATOM     27  C   UNL     1      -1.175  12.369  17.922  0.00  0.00    +0.000 C 
ATOM     28  C   UNL     1      -2.115  11.408  18.642  0.00  0.00    +0.000 C 
ATOM     29  C   UNL     1      -2.265  10.107  17.845  0.00  0.00    +0.000 C 
ENDBRANCH  26  28
ENDBRANCH  19  26
ENDBRANCH  16  19
ENDBRANCH   1  16
TORSDOF 8
ENDMDL
MODEL 7
REMARK VINA RESULT:      -6.9      3.830      9.142
REMARK  Name = 
REMARK  13 active torsions:
REMARK  status: ('A' for Active; 'I' for Inactive)
REMARK    1  A    between atoms: C_1  and  C_2
REMARK    2  A    between atoms: C_2  and  C_3
REMARK    3  A    between atoms: C_2  and  C_4
REMARK    4  A    between atoms: C_4  and  C_5
REMARK    5  A    between atoms: C_5  and  C_6
REMARK    6  A    between atoms: C_5  and  S_12
REMARK    7  A    between atoms: C_6  and  O_8
REMARK    8  A    between atoms: O_8  and  C_9
REMARK    9  A    between atoms: C_9  and  C_10
REMARK   10  A    between atoms: C_9  and  C_11
REMARK   11  A    between atoms: S_12  and  C_15
REMARK   12  A    between atoms: N_21  and  C_22
REMARK   13  A    between atoms: N_21  and  C_23
REMARK                            x       y       z     vdW  Elec       q    Type
REMARK                         _______ _______ _______ _____ _____    ______ ____
ROOT
ATOM      1  C   UNL     1       1.519   9.112  18.926  0.00  0.00    +0.000 A 
ATOM      2  N   UNL     1       2.247   9.406  17.786  0.00  0.00    +0.000 NA
ATOM      3  C   UNL     1       2.912   8.299  17.565  0.00  0.00    +0.000 A 
ATOM      4  N   UNL     1       2.543   7.334  18.461  0.00  0.00    +0.000 N 
ATOM      5  C   UNL     1       3.203   6.123  18.702  0.00  0.00    +0.000 C 
ATOM      6  O   UNL     1       4.332   6.205  19.165  0.00  0.00    +0.000 OA
ATOM      7  N   UNL     1       2.503   4.977  18.329  0.00  0.00    +0.000 N 
ATOM      8  C   UNL     1       1.261   5.006  17.552  0.00  0.00    +0.000 C 
ATOM      9  N   UNL     1       1.623   7.832  19.336  0.00  0.00    +0.000 NA
ENDROOT
BRANCH   7  10
ATOM     10  C   UNL     1       2.925   3.626  18.778  0.00  0.00    +0.000 C 
ATOM     11  C   UNL     1       3.613   3.516  20.152  0.00  0.00    +0.000 C 
ATOM     12  C   UNL     1       2.708   3.274  21.361  0.00  0.00    +0.000 C 
ATOM     13  C   UNL     1       1.542   2.327  21.102  0.00  0.00    +0.000 C 
ATOM     14  C   UNL     1       0.834   2.552  19.770  0.00  0.00    +0.000 C 
ATOM     15  C   UNL     1       1.812   2.586  18.606  0.00  0.00    +0.000 C 
ENDBRANCH   7  10
BRANCH   1  16
ATOM     16  S   UNL     1       0.446  10.300  19.666  0.00  0.00    +0.000 S 
ATOM     17  O   UNL     1       1.323  11.338  20.191  0.00  0.00    +0.000 OA
ATOM     18  O   UNL     1      -0.427   9.562  20.556  0.00  0.00    +0.000 OA
BRANCH  16  19
ATOM     19  C   UNL     1      -0.479  10.976  18.310  0.00  0.00    +0.000 C 
BRANCH  19  20
ATOM     20  C   UNL     1      -0.914  12.353  18.711  0.00  0.00    +0.000 C 
ATOM     21  O   UNL     1      -0.500  13.384  18.193  0.00  0.00    +0.000 OA
BRANCH  20  22
ATOM     22  O   UNL     1      -1.773  12.311  19.772  0.00  0.00    +0.000 OA
BRANCH  22  23
ATOM     23  C   UNL     1      -1.586  13.314  20.793  0.00  0.00    +0.000 C 
ATOM     24  C   UNL     1      -2.793  14.245  20.845  0.00  0.00    +0.000 C 
ATOM     25  C   UNL     1      -1.415  12.602  22.132  0.00  0.00    +0.000 C 
ENDBRANCH  22  23
ENDBRANCH  20  22
ENDBRANCH  19  20
BRANCH  19  26
ATOM     26  C   UNL     1      -1.664  10.070  17.934  0.00  0.00    +0.000 C 
BRANCH  26  28
ATOM     27  C   UNL     1      -2.718   9.894  15.622  0.00  0.00    +0.000 C 
ATOM     28  C   UNL     1      -2.685  10.656  16.943  0.00  0.00    +0.000 C 
ATOM     29  C   UNL     1      -4.071  10.654  17.598  0.00  0.00    +0.000 C 
ENDBRANCH  26  28
ENDBRANCH  19  26
ENDBRANCH  16  19
ENDBRANCH   1  16
TORSDOF 8
ENDMDL
MODEL 8
REMARK VINA RESULT:      -6.8      2.866      9.293
REMARK  Name = 
REMARK  13 active torsions:
REMARK  status: ('A' for Active; 'I' for Inactive)
REMARK    1  A    between atoms: C_1  and  C_2
REMARK    2  A    between atoms: C_2  and  C_3
REMARK    3  A    between atoms: C_2  and  C_4
REMARK    4  A    between atoms: C_4  and  C_5
REMARK    5  A    between atoms: C_5  and  C_6
REMARK    6  A    between atoms: C_5  and  S_12
REMARK    7  A    between atoms: C_6  and  O_8
REMARK    8  A    between atoms: O_8  and  C_9
REMARK    9  A    between atoms: C_9  and  C_10
REMARK   10  A    between atoms: C_9  and  C_11
REMARK   11  A    between atoms: S_12  and  C_15
REMARK   12  A    between atoms: N_21  and  C_22
REMARK   13  A    between atoms: N_21  and  C_23
REMARK                            x       y       z     vdW  Elec       q    Type
REMARK                         _______ _______ _______ _____ _____    ______ ____
ROOT
ATOM      1  C   UNL     1       1.494   8.705  19.647  0.00  0.00    +0.000 A 
ATOM      2  N   UNL     1       1.321   9.220  18.374  0.00  0.00    +0.000 NA
ATOM      3  C   UNL     1       2.054   8.428  17.631  0.00  0.00    +0.000 A 
ATOM      4  N   UNL     1       2.575   7.414  18.386  0.00  0.00    +0.000 N 
ATOM      5  C   UNL     1       3.596   6.533  18.009  0.00  0.00    +0.000 C 
ATOM      6  O   UNL     1       4.695   7.031  17.810  0.00  0.00    +0.000 OA
ATOM      7  N   UNL     1       3.209   5.203  17.854  0.00  0.00    +0.000 N 
ATOM      8  C   UNL     1       1.813   4.760  17.873  0.00  0.00    +0.000 C 
ATOM      9  N   UNL     1       2.205   7.561  19.690  0.00  0.00    +0.000 NA
ENDROOT
BRANCH   7  10
ATOM     10  C   UNL     1       4.208   4.109  17.748  0.00  0.00    +0.000 C 
ATOM     11  C   UNL     1       5.069   4.052  16.471  0.00  0.00    +0.000 C 
ATOM     12  C   UNL     1       6.394   4.814  16.497  0.00  0.00    +0.000 C 
ATOM     13  C   UNL     1       7.138   4.750  17.827  0.00  0.00    +0.000 C 
ATOM     14  C   UNL     1       6.246   4.916  19.053  0.00  0.00    +0.000 C 
ATOM     15  C   UNL     1       5.053   3.973  19.019  0.00  0.00    +0.000 C 
ENDBRANCH   7  10
BRANCH   1  16
ATOM     16  S   UNL     1       0.714   9.435  21.051  0.00  0.00    +0.000 S 
ATOM     17  O   UNL     1       1.800   9.785  21.957  0.00  0.00    +0.000 OA
ATOM     18  O   UNL     1      -0.319   8.510  21.470  0.00  0.00    +0.000 OA
BRANCH  16  19
ATOM     19  C   UNL     1      -0.008  10.934  20.433  0.00  0.00    +0.000 C 
BRANCH  19  20
ATOM     20  C   UNL     1       0.155  11.977  21.496  0.00  0.00    +0.000 C 
ATOM     21  O   UNL     1       1.016  12.850  21.479  0.00  0.00    +0.000 OA
BRANCH  20  22
ATOM     22  O   UNL     1      -0.732  11.786  22.518  0.00  0.00    +0.000 OA
BRANCH  22  23
ATOM     23  C   UNL     1      -1.759  12.788  22.677  0.00  0.00    +0.000 C 
ATOM     24  C   UNL     1      -2.999  12.174  23.318  0.00  0.00    +0.000 C 
ATOM     25  C   UNL     1      -1.205  13.899  23.565  0.00  0.00    +0.000 C 
ENDBRANCH  22  23
ENDBRANCH  20  22
ENDBRANCH  19  20
BRANCH  19  26
ATOM     26  C   UNL     1      -1.480  10.723  20.036  0.00  0.00    +0.000 C 
BRANCH  26  28
ATOM     27  C   UNL     1      -1.905  10.157  17.590  0.00  0.00    +0.000 C 
ATOM     28  C   UNL     1      -1.897  11.251  18.652  0.00  0.00    +0.000 C 
ATOM     29  C   UNL     1      -3.282  11.900  18.764  0.00  0.00    +0.000 C 
ENDBRANCH  26  28
ENDBRANCH  19  26
ENDBRANCH  16  19
ENDBRANCH   1  16
TORSDOF 8
ENDMDL
MODEL 9
REMARK VINA RESULT:      -6.8      2.454      4.327
REMARK  Name = 
REMARK  13 active torsions:
REMARK  status: ('A' for Active; 'I' for Inactive)
REMARK    1  A    between atoms: C_1  and  C_2
REMARK    2  A    between atoms: C_2  and  C_3
REMARK    3  A    between atoms: C_2  and  C_4
REMARK    4  A    between atoms: C_4  and  C_5
REMARK    5  A    between atoms: C_5  and  C_6
REMARK    6  A    between atoms: C_5  and  S_12
REMARK    7  A    between atoms: C_6  and  O_8
REMARK    8  A    between atoms: O_8  and  C_9
REMARK    9  A    between atoms: C_9  and  C_10
REMARK   10  A    between atoms: C_9  and  C_11
REMARK   11  A    between atoms: S_12  and  C_15
REMARK   12  A    between atoms: N_21  and  C_22
REMARK   13  A    between atoms: N_21  and  C_23
REMARK                            x       y       z     vdW  Elec       q    Type
REMARK                         _______ _______ _______ _____ _____    ______ ____
ROOT
ATOM      1  C   UNL     1       2.184   7.433  19.576  0.00  0.00    +0.000 A 
ATOM      2  N   UNL     1       1.879   7.103  20.885  0.00  0.00    +0.000 NA
ATOM      3  C   UNL     1       1.255   8.169  21.322  0.00  0.00    +0.000 A 
ATOM      4  N   UNL     1       1.092   9.074  20.311  0.00  0.00    +0.000 N 
ATOM      5  C   UNL     1       0.708  10.414  20.444  0.00  0.00    +0.000 C 
ATOM      6  O   UNL     1       1.481  11.141  21.052  0.00  0.00    +0.000 OA
ATOM      7  N   UNL     1      -0.541  10.732  19.912  0.00  0.00    +0.000 N 
ATOM      8  C   UNL     1      -1.493   9.729  19.429  0.00  0.00    +0.000 C 
ATOM      9  N   UNL     1       1.665   8.607  19.165  0.00  0.00    +0.000 NA
ENDROOT
BRANCH   7  10
ATOM     10  C   UNL     1      -0.964  12.141  19.709  0.00  0.00    +0.000 C 
ATOM     11  C   UNL     1      -2.155  12.397  18.765  0.00  0.00    +0.000 C 
ATOM     12  C   UNL     1      -3.547  12.415  19.398  0.00  0.00    +0.000 C 
ATOM     13  C   UNL     1      -3.611  13.071  20.773  0.00  0.00    +0.000 C 
ATOM     14  C   UNL     1      -2.460  12.699  21.700  0.00  0.00    +0.000 C 
ATOM     15  C   UNL     1      -1.107  12.898  21.034  0.00  0.00    +0.000 C 
ENDBRANCH   7  10
BRANCH   1  16
ATOM     16  S   UNL     1       3.059   6.319  18.524  0.00  0.00    +0.000 S 
ATOM     17  O   UNL     1       4.078   7.128  17.868  0.00  0.00    +0.000 OA
ATOM     18  O   UNL     1       2.056   5.629  17.738  0.00  0.00    +0.000 OA
BRANCH  16  19
ATOM     19  C   UNL     1       3.863   5.192  19.635  0.00  0.00    +0.000 C 
BRANCH  19  20
ATOM     20  C   UNL     1       5.282   5.053  19.176  0.00  0.00    +0.000 C 
ATOM     21  O   UNL     1       6.231   5.641  19.685  0.00  0.00    +0.000 OA
BRANCH  20  22
ATOM     22  O   UNL     1       5.371   4.247  18.077  0.00  0.00    +0.000 OA
BRANCH  22  23
ATOM     23  C   UNL     1       5.914   4.846  16.880  0.00  0.00    +0.000 C 
ATOM     24  C   UNL     1       7.421   4.621  16.816  0.00  0.00    +0.000 C 
ATOM     25  C   UNL     1       5.236   4.199  15.676  0.00  0.00    +0.000 C 
ENDBRANCH  22  23
ENDBRANCH  20  22
ENDBRANCH  19  20
BRANCH  19  26
ATOM     26  C   UNL     1       3.127   3.841  19.690  0.00  0.00    +0.000 C 
BRANCH  26  28
ATOM     27  C   UNL     1       0.698   3.094  19.850  0.00  0.00    +0.000 C 
ATOM     28  C   UNL     1       1.857   3.790  20.556  0.00  0.00    +0.000 C 
ATOM     29  C   UNL     1       2.184   3.081  21.876  0.00  0.00    +0.000 C 
ENDBRANCH  26  28
ENDBRANCH  19  26
ENDBRANCH  16  19
ENDBRANCH   1  16
TORSDOF 8
ENDMDL
