MODEL 1
REMARK VINA RESULT:      -6.9      0.000      0.000
REMARK  Name = 
REMARK  6 active torsions:
REMARK  status: ('A' for Active; 'I' for Inactive)
REMARK    1  A    between atoms: C_1  and  O_2
REMARK    2  A    between atoms: O_2  and  C_3
REMARK    3  A    between atoms: C_8  and  N_9
REMARK    4  A    between atoms: C_13  and  C_15
REMARK    5  A    between atoms: C_16  and  C_17
REMARK    6  A    between atoms: C_22  and  C_23
REMARK                            x       y       z     vdW  Elec       q    Type
REMARK                         _______ _______ _______ _____ _____    ______ ____
ROOT
ATOM      1  N   UNL     1       1.304   9.237  18.918  0.00  0.00    +0.000 N 
ATOM      2  C   UNL     1       1.872   8.640  20.147  0.00  0.00    +0.000 C 
ATOM      3  C   UNL     1       2.009   7.097  19.979  0.00  0.00    +0.000 C 
ATOM      4  N   UNL     1       2.654   6.708  18.700  0.00  0.00    +0.000 N 
ATOM      5  C   UNL     1       3.803   5.928  18.721  0.00  0.00    +0.000 C 
ATOM      6  O   UNL     1       4.245   5.534  19.806  0.00  0.00    +0.000 OA
ATOM      7  C   UNL     1       1.974   7.324  17.557  0.00  0.00    +0.000 C 
ATOM      8  C   UNL     1       2.046   8.864  17.706  0.00  0.00    +0.000 C 
ENDROOT
BRANCH   5   9
ATOM      9  C   UNL     1       4.539   5.492  17.450  0.00  0.00    +0.000 A 
ATOM     10  C   UNL     1       5.739   6.126  16.886  0.00  0.00    +0.000 A 
ATOM     11  C   UNL     1       6.482   7.238  17.552  0.00  0.00    +0.000 C 
ATOM     12  C   UNL     1       6.299   5.648  15.763  0.00  0.00    +0.000 A 
ATOM     13  C   UNL     1       5.833   4.424  15.115  0.00  0.00    +0.000 A 
ATOM     14  O   UNL     1       6.378   4.003  14.101  0.00  0.00    +0.000 OA
ATOM     15  O   UNL     1       4.820   3.779  15.739  0.00  0.00    +0.000 OA
ATOM     16  C   UNL     1       4.175   4.302  16.898  0.00  0.00    +0.000 A 
ATOM     17  C   UNL     1       3.101   3.358  17.364  0.00  0.00    +0.000 C 
ENDBRANCH   5   9
BRANCH   1  23
ATOM     18  C   UNL     1       0.901  11.668  18.764  0.00  0.00    +0.000 A 
ATOM     19  C   UNL     1      -0.009  12.735  18.710  0.00  0.00    +0.000 A 
ATOM     20  C   UNL     1      -1.380  12.503  18.762  0.00  0.00    +0.000 A 
ATOM     21  C   UNL     1      -1.852  11.205  18.893  0.00  0.00    +0.000 A 
ATOM     22  C   UNL     1      -0.952  10.137  18.972  0.00  0.00    +0.000 A 
ATOM     23  C   UNL     1       0.441  10.325  18.905  0.00  0.00    +0.000 A 
BRANCH  18  25
ATOM     24  C   UNL     1       2.742  13.139  18.298  0.00  0.00    +0.000 C 
ATOM     25  O   UNL     1       2.260  11.856  18.659  0.00  0.00    +0.000 OA
ENDBRANCH  18  25
ENDBRANCH   1  23
TORSDOF 3
ENDMDL
MODEL 2
REMARK VINA RESULT:      -6.8      1.079      1.755
REMARK  Name = 
REMARK  6 active torsions:
REMARK  status: ('A' for Active; 'I' for Inactive)
REMARK    1  A    between atoms: C_1  and  O_2
REMARK    2  A    between atoms: O_2  and  C_3
REMARK    3  A    between atoms: C_8  and  N_9
REMARK    4  A    between atoms: C_13  and  C_15
REMARK    5  A    between atoms: C_16  and  C_17
REMARK    6  A    between atoms: C_22  and  C_23
REMARK                            x       y       z     vdW  Elec       q    Type
REMARK                         _______ _______ _______ _____ _____    ______ ____
ROOT
ATOM      1  N   UNL     1       1.411   9.504  19.067  0.00  0.00    +0.000 N 
ATOM      2  C   UNL     1       1.824   8.768  20.282  0.00  0.00    +0.000 C 
ATOM      3  C   UNL     1       1.805   7.234  20.012  0.00  0.00    +0.000 C 
ATOM      4  N   UNL     1       2.493   6.859  18.751  0.00  0.00    +0.000 N 
ATOM      5  C   UNL     1       3.546   5.955  18.787  0.00  0.00    +0.000 C 
ATOM      6  O   UNL     1       3.867   5.444  19.866  0.00  0.00    +0.000 OA
ATOM      7  C   UNL     1       1.965   7.621  17.615  0.00  0.00    +0.000 C 
ATOM      8  C   UNL     1       2.191   9.129  17.879  0.00  0.00    +0.000 C 
ENDROOT
BRANCH   5   9
ATOM      9  C   UNL     1       4.318   5.523  17.536  0.00  0.00    +0.000 A 
ATOM     10  C   UNL     1       5.521   6.173  16.995  0.00  0.00    +0.000 A 
ATOM     11  C   UNL     1       6.230   7.302  17.670  0.00  0.00    +0.000 C 
ATOM     12  C   UNL     1       6.113   5.696  15.889  0.00  0.00    +0.000 A 
ATOM     13  C   UNL     1       5.683   4.461  15.238  0.00  0.00    +0.000 A 
ATOM     14  O   UNL     1       6.257   4.042  14.241  0.00  0.00    +0.000 OA
ATOM     15  O   UNL     1       4.666   3.804  15.844  0.00  0.00    +0.000 OA
ATOM     16  C   UNL     1       3.987   4.323  16.985  0.00  0.00    +0.000 A 
ATOM     17  C   UNL     1       2.918   3.365  17.432  0.00  0.00    +0.000 C 
ENDBRANCH   5   9
BRANCH   1  23
ATOM     18  C   UNL     1      -0.564  10.818  18.380  0.00  0.00    +0.000 A 
ATOM     19  C   UNL     1      -1.301  12.009  18.455  0.00  0.00    +0.000 A 
ATOM     20  C   UNL     1      -0.857  13.071  19.238  0.00  0.00    +0.000 A 
ATOM     21  C   UNL     1       0.340  12.959  19.930  0.00  0.00    +0.000 A 
ATOM     22  C   UNL     1       1.093  11.784  19.842  0.00  0.00    +0.000 A 
ATOM     23  C   UNL     1       0.672  10.681  19.078  0.00  0.00    +0.000 A 
BRANCH  18  25
ATOM     24  C   UNL     1      -2.154   9.868  16.850  0.00  0.00    +0.000 C 
ATOM     25  O   UNL     1      -1.001   9.728  17.662  0.00  0.00    +0.000 OA
ENDBRANCH  18  25
ENDBRANCH   1  23
TORSDOF 3
ENDMDL
MODEL 3
REMARK VINA RESULT:      -6.6      0.726      1.776
REMARK  Name = 
REMARK  6 active torsions:
REMARK  status: ('A' for Active; 'I' for Inactive)
REMARK    1  A    between atoms: C_1  and  O_2
REMARK    2  A    between atoms: O_2  and  C_3
REMARK    3  A    between atoms: C_8  and  N_9
REMARK    4  A    between atoms: C_13  and  C_15
REMARK    5  A    between atoms: C_16  and  C_17
REMARK    6  A    between atoms: C_22  and  C_23
REMARK                            x       y       z     vdW  Elec       q    Type
REMARK                         _______ _______ _______ _____ _____    ______ ____
ROOT
ATOM      1  N   UNL     1       1.359   9.170  18.898  0.00  0.00    +0.000 N 
ATOM      2  C   UNL     1       1.865   8.545  20.140  0.00  0.00    +0.000 C 
ATOM      3  C   UNL     1       2.059   7.014  19.929  0.00  0.00    +0.000 C 
ATOM      4  N   UNL     1       2.796   6.689  18.681  0.00  0.00    +0.000 N 
ATOM      5  C   UNL     1       3.963   5.942  18.750  0.00  0.00    +0.000 C 
ATOM      6  O   UNL     1       4.348   5.522  19.847  0.00  0.00    +0.000 OA
ATOM      7  C   UNL     1       2.172   7.328  17.518  0.00  0.00    +0.000 C 
ATOM      8  C   UNL     1       2.187   8.862  17.724  0.00  0.00    +0.000 C 
ENDROOT
BRANCH   5   9
ATOM      9  C   UNL     1       4.791   5.573  17.514  0.00  0.00    +0.000 A 
ATOM     10  C   UNL     1       4.561   4.418  16.634  0.00  0.00    +0.000 A 
ATOM     11  C   UNL     1       3.397   3.491  16.767  0.00  0.00    +0.000 C 
ATOM     12  C   UNL     1       5.356   4.200  15.574  0.00  0.00    +0.000 A 
ATOM     13  C   UNL     1       6.397   5.141  15.168  0.00  0.00    +0.000 A 
ATOM     14  O   UNL     1       7.093   4.923  14.184  0.00  0.00    +0.000 OA
ATOM     15  O   UNL     1       6.489   6.269  15.911  0.00  0.00    +0.000 OA
ATOM     16  C   UNL     1       5.695   6.490  17.074  0.00  0.00    +0.000 A 
ATOM     17  C   UNL     1       6.016   7.831  17.674  0.00  0.00    +0.000 C 
ENDBRANCH   5   9
BRANCH   1  23
ATOM     18  C   UNL     1       0.891  11.591  18.758  0.00  0.00    +0.000 A 
ATOM     19  C   UNL     1      -0.046  12.633  18.684  0.00  0.00    +0.000 A 
ATOM     20  C   UNL     1      -1.411  12.361  18.683  0.00  0.00    +0.000 A 
ATOM     21  C   UNL     1      -1.849  11.048  18.782  0.00  0.00    +0.000 A 
ATOM     22  C   UNL     1      -0.923  10.006  18.880  0.00  0.00    +0.000 A 
ATOM     23  C   UNL     1       0.465  10.234  18.867  0.00  0.00    +0.000 A 
BRANCH  18  25
ATOM     24  C   UNL     1       2.706  13.094  18.292  0.00  0.00    +0.000 C 
ATOM     25  O   UNL     1       2.247  11.818  18.705  0.00  0.00    +0.000 OA
ENDBRANCH  18  25
ENDBRANCH   1  23
TORSDOF 3
ENDMDL
MODEL 4
REMARK VINA RESULT:      -6.5      1.360      1.767
REMARK  Name = 
REMARK  6 active torsions:
REMARK  status: ('A' for Active; 'I' for Inactive)
REMARK    1  A    between atoms: C_1  and  O_2
REMARK    2  A    between atoms: O_2  and  C_3
REMARK    3  A    between atoms: C_8  and  N_9
REMARK    4  A    between atoms: C_13  and  C_15
REMARK    5  A    between atoms: C_16  and  C_17
REMARK    6  A    between atoms: C_22  and  C_23
REMARK                            x       y       z     vdW  Elec       q    Type
REMARK                         _______ _______ _______ _____ _____    ______ ____
ROOT
ATOM      1  N   UNL     1       1.354   8.745  19.371  0.00  0.00    +0.000 N 
ATOM      2  C   UNL     1       1.928   8.016  20.524  0.00  0.00    +0.000 C 
ATOM      3  C   UNL     1       2.138   6.516  20.159  0.00  0.00    +0.000 C 
ATOM      4  N   UNL     1       2.822   6.327  18.855  0.00  0.00    +0.000 N 
ATOM      5  C   UNL     1       4.004   5.602  18.800  0.00  0.00    +0.000 C 
ATOM      6  O   UNL     1       4.446   5.088  19.834  0.00  0.00    +0.000 OA
ATOM      7  C   UNL     1       2.134   7.059  17.787  0.00  0.00    +0.000 C 
ATOM      8  C   UNL     1       2.132   8.567  18.138  0.00  0.00    +0.000 C 
ENDROOT
BRANCH   5   9
ATOM      9  C   UNL     1       4.780   5.369  17.500  0.00  0.00    +0.000 A 
ATOM     10  C   UNL     1       6.026   6.043  17.105  0.00  0.00    +0.000 A 
ATOM     11  C   UNL     1       6.775   6.988  17.987  0.00  0.00    +0.000 C 
ATOM     12  C   UNL     1       6.618   5.749  15.936  0.00  0.00    +0.000 A 
ATOM     13  C   UNL     1       6.141   4.681  15.061  0.00  0.00    +0.000 A 
ATOM     14  O   UNL     1       6.715   4.424  14.010  0.00  0.00    +0.000 OA
ATOM     15  O   UNL     1       5.079   3.977  15.521  0.00  0.00    +0.000 OA
ATOM     16  C   UNL     1       4.402   4.312  16.730  0.00  0.00    +0.000 A 
ATOM     17  C   UNL     1       3.277   3.345  16.978  0.00  0.00    +0.000 C 
ENDBRANCH   5   9
BRANCH   1  23
ATOM     18  C   UNL     1       0.132  10.407  20.727  0.00  0.00    +0.000 A 
ATOM     19  C   UNL     1      -0.762  11.487  20.788  0.00  0.00    +0.000 A 
ATOM     20  C   UNL     1      -1.340  11.996  19.629  0.00  0.00    +0.000 A 
ATOM     21  C   UNL     1      -1.049  11.414  18.404  0.00  0.00    +0.000 A 
ATOM     22  C   UNL     1      -0.178  10.322  18.337  0.00  0.00    +0.000 A 
ATOM     23  C   UNL     1       0.442   9.787  19.481  0.00  0.00    +0.000 A 
BRANCH  18  25
ATOM     24  C   UNL     1      -0.009   9.658  23.006  0.00  0.00    +0.000 C 
ATOM     25  O   UNL     1       0.764   9.914  21.846  0.00  0.00    +0.000 OA
ENDBRANCH  18  25
ENDBRANCH   1  23
TORSDOF 3
ENDMDL
MODEL 5
REMARK VINA RESULT:      -6.4      2.249      3.516
REMARK  Name = 
REMARK  6 active torsions:
REMARK  status: ('A' for Active; 'I' for Inactive)
REMARK    1  A    between atoms: C_1  and  O_2
REMARK    2  A    between atoms: O_2  and  C_3
REMARK    3  A    between atoms: C_8  and  N_9
REMARK    4  A    between atoms: C_13  and  C_15
REMARK    5  A    between atoms: C_16  and  C_17
REMARK    6  A    between atoms: C_22  and  C_23
REMARK                            x       y       z     vdW  Elec       q    Type
REMARK                         _______ _______ _______ _____ _____    ______ ____
ROOT
ATOM      1  N   UNL     1       0.810   9.280  19.149  0.00  0.00    +0.000 N 
ATOM      2  C   UNL     1       1.395   9.353  17.792  0.00  0.00    +0.000 C 
ATOM      3  C   UNL     1       2.876   8.870  17.820  0.00  0.00    +0.000 C 
ATOM      4  N   UNL     1       3.052   7.585  18.544  0.00  0.00    +0.000 N 
ATOM      5  C   UNL     1       3.627   6.504  17.890  0.00  0.00    +0.000 C 
ATOM      6  O   UNL     1       4.023   6.642  16.727  0.00  0.00    +0.000 OA
ATOM      7  C   UNL     1       2.473   7.654  19.889  0.00  0.00    +0.000 C 
ATOM      8  C   UNL     1       0.960   7.954  19.765  0.00  0.00    +0.000 C 
ENDROOT
BRANCH   5   9
ATOM      9  C   UNL     1       3.836   5.140  18.558  0.00  0.00    +0.000 A 
ATOM     10  C   UNL     1       2.851   4.051  18.621  0.00  0.00    +0.000 A 
ATOM     11  C   UNL     1       1.525   4.087  17.934  0.00  0.00    +0.000 C 
ATOM     12  C   UNL     1       3.154   2.894  19.233  0.00  0.00    +0.000 A 
ATOM     13  C   UNL     1       4.488   2.608  19.754  0.00  0.00    +0.000 A 
ATOM     14  O   UNL     1       4.738   1.535  20.290  0.00  0.00    +0.000 OA
ATOM     15  O   UNL     1       5.416   3.573  19.550  0.00  0.00    +0.000 OA
ATOM     16  C   UNL     1       5.100   4.829  18.955  0.00  0.00    +0.000 A 
ATOM     17  C   UNL     1       6.335   5.680  18.854  0.00  0.00    +0.000 C 
ENDBRANCH   5   9
BRANCH   1  23
ATOM     18  C   UNL     1      -0.052  10.689  20.985  0.00  0.00    +0.000 A 
ATOM     19  C   UNL     1      -0.981  11.638  21.438  0.00  0.00    +0.000 A 
ATOM     20  C   UNL     1      -1.964  12.132  20.586  0.00  0.00    +0.000 A 
ATOM     21  C   UNL     1      -2.043  11.663  19.283  0.00  0.00    +0.000 A 
ATOM     22  C   UNL     1      -1.136  10.699  18.830  0.00  0.00    +0.000 A 
ATOM     23  C   UNL     1      -0.116  10.186  19.651  0.00  0.00    +0.000 A 
BRANCH  18  25
ATOM     24  C   UNL     1       0.636   9.469  22.937  0.00  0.00    +0.000 C 
ATOM     25  O   UNL     1       0.967  10.220  21.781  0.00  0.00    +0.000 OA
ENDBRANCH  18  25
ENDBRANCH   1  23
TORSDOF 3
ENDMDL
MODEL 6
REMARK VINA RESULT:      -6.4      1.570      2.512
REMARK  Name = 
REMARK  6 active torsions:
REMARK  status: ('A' for Active; 'I' for Inactive)
REMARK    1  A    between atoms: C_1  and  O_2
REMARK    2  A    between atoms: O_2  and  C_3
REMARK    3  A    between atoms: C_8  and  N_9
REMARK    4  A    between atoms: C_13  and  C_15
REMARK    5  A    between atoms: C_16  and  C_17
REMARK    6  A    between atoms: C_22  and  C_23
REMARK                            x       y       z     vdW  Elec       q    Type
REMARK                         _______ _______ _______ _____ _____    ______ ____
ROOT
ATOM      1  N   UNL     1       1.416   8.650  19.339  0.00  0.00    +0.000 N 
ATOM      2  C   UNL     1       2.043   7.992  20.507  0.00  0.00    +0.000 C 
ATOM      3  C   UNL     1       2.318   6.491  20.193  0.00  0.00    +0.000 C 
ATOM      4  N   UNL     1       2.989   6.286  18.884  0.00  0.00    +0.000 N 
ATOM      5  C   UNL     1       4.203   5.616  18.835  0.00  0.00    +0.000 C 
ATOM      6  O   UNL     1       4.686   5.161  19.879  0.00  0.00    +0.000 OA
ATOM      7  C   UNL     1       2.250   6.945  17.803  0.00  0.00    +0.000 C 
ATOM      8  C   UNL     1       2.182   8.463  18.099  0.00  0.00    +0.000 C 
ENDROOT
BRANCH   5   9
ATOM      9  C   UNL     1       4.969   5.371  17.530  0.00  0.00    +0.000 A 
ATOM     10  C   UNL     1       4.711   4.292  16.567  0.00  0.00    +0.000 A 
ATOM     11  C   UNL     1       3.572   3.331  16.679  0.00  0.00    +0.000 C 
ATOM     12  C   UNL     1       5.450   4.183  15.451  0.00  0.00    +0.000 A 
ATOM     13  C   UNL     1       6.452   5.178  15.074  0.00  0.00    +0.000 A 
ATOM     14  O   UNL     1       7.097   5.060  14.039  0.00  0.00    +0.000 OA
ATOM     15  O   UNL     1       6.565   6.240  15.906  0.00  0.00    +0.000 OA
ATOM     16  C   UNL     1       5.831   6.343  17.124  0.00  0.00    +0.000 A 
ATOM     17  C   UNL     1       6.161   7.634  17.820  0.00  0.00    +0.000 C 
ENDBRANCH   5   9
BRANCH   1  23
ATOM     18  C   UNL     1       0.079  10.244  20.669  0.00  0.00    +0.000 A 
ATOM     19  C   UNL     1      -0.861  11.285  20.709  0.00  0.00    +0.000 A 
ATOM     20  C   UNL     1      -1.420  11.782  19.535  0.00  0.00    +0.000 A 
ATOM     21  C   UNL     1      -1.063  11.226  18.315  0.00  0.00    +0.000 A 
ATOM     22  C   UNL     1      -0.145  10.173  18.268  0.00  0.00    +0.000 A 
ATOM     23  C   UNL     1       0.458   9.652  19.427  0.00  0.00    +0.000 A 
BRANCH  18  25
ATOM     24  C   UNL     1      -0.065   9.671  22.997  0.00  0.00    +0.000 C 
ATOM     25  O   UNL     1       0.693   9.765  21.803  0.00  0.00    +0.000 OA
ENDBRANCH  18  25
ENDBRANCH   1  23
TORSDOF 3
ENDMDL
MODEL 7
REMARK VINA RESULT:      -6.2      1.349      2.465
REMARK  Name = 
REMARK  6 active torsions:
REMARK  status: ('A' for Active; 'I' for Inactive)
REMARK    1  A    between atoms: C_1  and  O_2
REMARK    2  A    between atoms: O_2  and  C_3
REMARK    3  A    between atoms: C_8  and  N_9
REMARK    4  A    between atoms: C_13  and  C_15
REMARK    5  A    between atoms: C_16  and  C_17
REMARK    6  A    between atoms: C_22  and  C_23
REMARK                            x       y       z     vdW  Elec       q    Type
REMARK                         _______ _______ _______ _____ _____    ______ ____
ROOT
ATOM      1  N   UNL     1       1.411   9.275  19.305  0.00  0.00    +0.000 N 
ATOM      2  C   UNL     1       1.836   8.480  20.478  0.00  0.00    +0.000 C 
ATOM      3  C   UNL     1       1.902   6.969  20.106  0.00  0.00    +0.000 C 
ATOM      4  N   UNL     1       2.634   6.715  18.839  0.00  0.00    +0.000 N 
ATOM      5  C   UNL     1       3.732   5.866  18.840  0.00  0.00    +0.000 C 
ATOM      6  O   UNL     1       4.056   5.299  19.890  0.00  0.00    +0.000 OA
ATOM      7  C   UNL     1       2.091   7.526  17.745  0.00  0.00    +0.000 C 
ATOM      8  C   UNL     1       2.233   9.022  18.114  0.00  0.00    +0.000 C 
ENDROOT
BRANCH   5   9
ATOM      9  C   UNL     1       4.550   5.558  17.582  0.00  0.00    +0.000 A 
ATOM     10  C   UNL     1       4.329   4.433  16.661  0.00  0.00    +0.000 A 
ATOM     11  C   UNL     1       3.184   3.480  16.773  0.00  0.00    +0.000 C 
ATOM     12  C   UNL     1       5.114   4.271  15.584  0.00  0.00    +0.000 A 
ATOM     13  C   UNL     1       6.133   5.246  15.201  0.00  0.00    +0.000 A 
ATOM     14  O   UNL     1       6.820   5.078  14.201  0.00  0.00    +0.000 OA
ATOM     15  O   UNL     1       6.214   6.347  15.985  0.00  0.00    +0.000 OA
ATOM     16  C   UNL     1       5.430   6.509  17.165  0.00  0.00    +0.000 A 
ATOM     17  C   UNL     1       5.735   7.832  17.811  0.00  0.00    +0.000 C 
ENDBRANCH   5   9
BRANCH   1  23
ATOM     18  C   UNL     1      -0.514  10.612  18.527  0.00  0.00    +0.000 A 
ATOM     19  C   UNL     1      -1.321  11.751  18.663  0.00  0.00    +0.000 A 
ATOM     20  C   UNL     1      -1.058  12.693  19.654  0.00  0.00    +0.000 A 
ATOM     21  C   UNL     1       0.029  12.516  20.498  0.00  0.00    +0.000 A 
ATOM     22  C   UNL     1       0.853  11.395  20.354  0.00  0.00    +0.000 A 
ATOM     23  C   UNL     1       0.612  10.410  19.378  0.00  0.00    +0.000 A 
BRANCH  18  25
ATOM     24  C   UNL     1      -1.959   9.735  16.820  0.00  0.00    +0.000 C 
ATOM     25  O   UNL     1      -0.778   9.633  17.596  0.00  0.00    +0.000 OA
ENDBRANCH  18  25
ENDBRANCH   1  23
TORSDOF 3
ENDMDL
MODEL 8
REMARK VINA RESULT:      -6.2      1.926      2.389
REMARK  Name = 
REMARK  6 active torsions:
REMARK  status: ('A' for Active; 'I' for Inactive)
REMARK    1  A    between atoms: C_1  and  O_2
REMARK    2  A    between atoms: O_2  and  C_3
REMARK    3  A    between atoms: C_8  and  N_9
REMARK    4  A    between atoms: C_13  and  C_15
REMARK    5  A    between atoms: C_16  and  C_17
REMARK    6  A    between atoms: C_22  and  C_23
REMARK                            x       y       z     vdW  Elec       q    Type
REMARK                         _______ _______ _______ _____ _____    ______ ____
ROOT
ATOM      1  N   UNL     1       1.575   7.738  20.504  0.00  0.00    +0.000 N 
ATOM      2  C   UNL     1       1.716   6.456  21.228  0.00  0.00    +0.000 C 
ATOM      3  C   UNL     1       1.814   5.276  20.216  0.00  0.00    +0.000 C 
ATOM      4  N   UNL     1       2.792   5.527  19.127  0.00  0.00    +0.000 N 
ATOM      5  C   UNL     1       3.838   4.636  18.927  0.00  0.00    +0.000 C 
ATOM      6  O   UNL     1       3.913   3.624  19.633  0.00  0.00    +0.000 OA
ATOM      7  C   UNL     1       2.519   6.802  18.457  0.00  0.00    +0.000 C 
ATOM      8  C   UNL     1       2.625   7.944  19.497  0.00  0.00    +0.000 C 
ENDROOT
BRANCH   5   9
ATOM      9  C   UNL     1       4.896   4.825  17.835  0.00  0.00    +0.000 A 
ATOM     10  C   UNL     1       6.263   5.330  18.035  0.00  0.00    +0.000 A 
ATOM     11  C   UNL     1       6.850   5.631  19.376  0.00  0.00    +0.000 C 
ATOM     12  C   UNL     1       7.104   5.447  16.995  0.00  0.00    +0.000 A 
ATOM     13  C   UNL     1       6.765   4.977  15.654  0.00  0.00    +0.000 A 
ATOM     14  O   UNL     1       7.563   5.080  14.730  0.00  0.00    +0.000 OA
ATOM     15  O   UNL     1       5.555   4.381  15.531  0.00  0.00    +0.000 OA
ATOM     16  C   UNL     1       4.625   4.300  16.609  0.00  0.00    +0.000 A 
ATOM     17  C   UNL     1       3.384   3.576  16.168  0.00  0.00    +0.000 C 
ENDBRANCH   5   9
BRANCH   1  23
ATOM     18  C   UNL     1       0.204   9.744  20.064  0.00  0.00    +0.000 A 
ATOM     19  C   UNL     1      -0.594  10.787  20.557  0.00  0.00    +0.000 A 
ATOM     20  C   UNL     1      -0.833  10.914  21.922  0.00  0.00    +0.000 A 
ATOM     21  C   UNL     1      -0.254  10.015  22.807  0.00  0.00    +0.000 A 
ATOM     22  C   UNL     1       0.562   8.986  22.326  0.00  0.00    +0.000 A 
ATOM     23  C   UNL     1       0.814   8.811  20.953  0.00  0.00    +0.000 A 
BRANCH  18  25
ATOM     24  C   UNL     1      -0.596   9.956  17.808  0.00  0.00    +0.000 C 
ATOM     25  O   UNL     1       0.415   9.555  18.717  0.00  0.00    +0.000 OA
ENDBRANCH  18  25
ENDBRANCH   1  23
TORSDOF 3
ENDMDL
MODEL 9
REMARK VINA RESULT:      -6.2      4.119      8.064
REMARK  Name = 
REMARK  6 active torsions:
REMARK  status: ('A' for Active; 'I' for Inactive)
REMARK    1  A    between atoms: C_1  and  O_2
REMARK    2  A    between atoms: O_2  and  C_3
REMARK    3  A    between atoms: C_8  and  N_9
REMARK    4  A    between atoms: C_13  and  C_15
REMARK    5  A    between atoms: C_16  and  C_17
REMARK    6  A    between atoms: C_22  and  C_23
REMARK                            x       y       z     vdW  Elec       q    Type
REMARK                         _______ _______ _______ _____ _____    ______ ____
ROOT
ATOM      1  N   UNL     1       6.051   4.294  15.213  0.00  0.00    +0.000 N 
ATOM      2  C   UNL     1       7.130   4.683  16.147  0.00  0.00    +0.000 C 
ATOM      3  C   UNL     1       6.574   5.642  17.242  0.00  0.00    +0.000 C 
ATOM      4  N   UNL     1       5.316   5.149  17.858  0.00  0.00    +0.000 N 
ATOM      5  C   UNL     1       5.255   4.960  19.232  0.00  0.00    +0.000 C 
ATOM      6  O   UNL     1       6.237   5.247  19.926  0.00  0.00    +0.000 OA
ATOM      7  C   UNL     1       4.311   4.842  16.836  0.00  0.00    +0.000 C 
ATOM      8  C   UNL     1       4.873   3.746  15.898  0.00  0.00    +0.000 C 
ENDROOT
BRANCH   5   9
ATOM      9  C   UNL     1       4.003   4.444  19.949  0.00  0.00    +0.000 A 
ATOM     10  C   UNL     1       2.782   5.217  20.220  0.00  0.00    +0.000 A 
ATOM     11  C   UNL     1       2.553   6.609  19.727  0.00  0.00    +0.000 C 
ATOM     12  C   UNL     1       1.744   4.651  20.855  0.00  0.00    +0.000 A 
ATOM     13  C   UNL     1       1.715   3.231  21.200  0.00  0.00    +0.000 A 
ATOM     14  O   UNL     1       0.744   2.740  21.762  0.00  0.00    +0.000 OA
ATOM     15  O   UNL     1       2.791   2.510  20.805  0.00  0.00    +0.000 OA
ATOM     16  C   UNL     1       3.927   3.105  20.182  0.00  0.00    +0.000 A 
ATOM     17  C   UNL     1       4.948   2.052  19.854  0.00  0.00    +0.000 C 
ENDBRANCH   5   9
BRANCH   1  23
ATOM     18  C   UNL     1       7.256   4.737  13.104  0.00  0.00    +0.000 A 
ATOM     19  C   UNL     1       7.435   4.459  11.740  0.00  0.00    +0.000 A 
ATOM     20  C   UNL     1       6.640   3.515  11.097  0.00  0.00    +0.000 A 
ATOM     21  C   UNL     1       5.642   2.861  11.806  0.00  0.00    +0.000 A 
ATOM     22  C   UNL     1       5.440   3.149  13.159  0.00  0.00    +0.000 A 
ATOM     23  C   UNL     1       6.233   4.082  13.852  0.00  0.00    +0.000 A 
BRANCH  18  25
ATOM     24  C   UNL     1       9.245   6.082  13.158  0.00  0.00    +0.000 C 
ATOM     25  O   UNL     1       8.060   5.622  13.785  0.00  0.00    +0.000 OA
ENDBRANCH  18  25
ENDBRANCH   1  23
TORSDOF 3
ENDMDL
