MODEL 1
REMARK VINA RESULT:      -8.2      0.000      0.000
REMARK  Name = 
REMARK  4 active torsions:
REMARK  status: ('A' for Active; 'I' for Inactive)
REMARK    1  A    between atoms: C_1  and  C_2
REMARK    2  A    between atoms: C_5  and  N_6
REMARK    3  A    between atoms: C_15  and  C_16
REMARK    4  A    between atoms: C_15  and  C_17
REMARK                            x       y       z     vdW  Elec       q    Type
REMARK                         _______ _______ _______ _____ _____    ______ ____
ROOT
ATOM      1  N   UNL     1       5.846   5.948  15.591  0.00  0.00    +0.000 N 
ATOM      2  C   UNL     1       5.005   5.654  16.667  0.00  0.00    +0.000 A 
ATOM      3  N   UNL     1       4.300   6.669  17.194  0.00  0.00    +0.000 NA
ATOM      4  C   UNL     1       3.452   6.364  18.201  0.00  0.00    +0.000 A 
ATOM      5  C   UNL     1       3.288   5.089  18.695  0.00  0.00    +0.000 A 
ATOM      6  C   UNL     1       4.080   4.115  18.130  0.00  0.00    +0.000 A 
ATOM      7  N   UNL     1       4.926   4.389  17.117  0.00  0.00    +0.000 NA
ATOM      8  C   UNL     1       4.014   2.678  18.559  0.00  0.00    +0.000 C 
ATOM      9  C   UNL     1       3.298   2.502  19.895  0.00  0.00    +0.000 C 
ATOM     10  C   UNL     1       1.975   3.289  19.961  0.00  0.00    +0.000 C 
ATOM     11  C   UNL     1       0.972   2.834  18.887  0.00  0.00    +0.000 C 
ATOM     12  C   UNL     1       1.342   3.087  21.346  0.00  0.00    +0.000 C 
ATOM     13  C   UNL     1       2.293   4.772  19.734  0.00  0.00    +0.000 C 
ATOM     14  O   UNL     1       1.724   5.687  20.320  0.00  0.00    +0.000 OA
ATOM     15  H   UNL     1       5.658   6.900  15.305  0.00  0.00    +0.000 HD
ENDROOT
BRANCH   1  20
ATOM     16  C   UNL     1       7.066   2.553  11.133  0.00  0.00    +0.000 C 
ATOM     17  C   UNL     1       6.724   3.444  12.291  0.00  0.00    +0.000 A 
ATOM     18  C   UNL     1       5.493   3.333  12.941  0.00  0.00    +0.000 A 
ATOM     19  C   UNL     1       5.196   4.153  14.034  0.00  0.00    +0.000 A 
ATOM     20  C   UNL     1       6.123   5.091  14.506  0.00  0.00    +0.000 A 
ATOM     21  C   UNL     1       7.334   5.229  13.823  0.00  0.00    +0.000 A 
ATOM     22  C   UNL     1       7.642   4.402  12.737  0.00  0.00    +0.000 A 
ENDBRANCH   1  20
TORSDOF 1
ENDMDL
MODEL 2
REMARK VINA RESULT:      -8.1      0.100      1.054
REMARK  Name = 
REMARK  4 active torsions:
REMARK  status: ('A' for Active; 'I' for Inactive)
REMARK    1  A    between atoms: C_1  and  C_2
REMARK    2  A    between atoms: C_5  and  N_6
REMARK    3  A    between atoms: C_15  and  C_16
REMARK    4  A    between atoms: C_15  and  C_17
REMARK                            x       y       z     vdW  Elec       q    Type
REMARK                         _______ _______ _______ _____ _____    ______ ____
ROOT
ATOM      1  N   UNL     1       5.841   6.052  15.642  0.00  0.00    +0.000 N 
ATOM      2  C   UNL     1       4.997   5.713  16.704  0.00  0.00    +0.000 A 
ATOM      3  N   UNL     1       4.272   6.701  17.254  0.00  0.00    +0.000 NA
ATOM      4  C   UNL     1       3.423   6.352  18.246  0.00  0.00    +0.000 A 
ATOM      5  C   UNL     1       3.277   5.061  18.702  0.00  0.00    +0.000 A 
ATOM      6  C   UNL     1       4.090   4.118  18.115  0.00  0.00    +0.000 A 
ATOM      7  N   UNL     1       4.938   4.434  17.116  0.00  0.00    +0.000 NA
ATOM      8  C   UNL     1       4.046   2.667  18.502  0.00  0.00    +0.000 C 
ATOM      9  C   UNL     1       3.323   2.441  19.827  0.00  0.00    +0.000 C 
ATOM     10  C   UNL     1       1.987   3.204  19.906  0.00  0.00    +0.000 C 
ATOM     11  C   UNL     1       0.999   2.763  18.813  0.00  0.00    +0.000 C 
ATOM     12  C   UNL     1       1.348   2.951  21.280  0.00  0.00    +0.000 C 
ATOM     13  C   UNL     1       2.281   4.697  19.724  0.00  0.00    +0.000 C 
ATOM     14  O   UNL     1       1.692   5.585  20.332  0.00  0.00    +0.000 OA
ATOM     15  H   UNL     1       5.638   7.009  15.382  0.00  0.00    +0.000 HD
ENDROOT
BRANCH   1  20
ATOM     16  C   UNL     1       6.961   2.622  11.185  0.00  0.00    +0.000 C 
ATOM     17  C   UNL     1       6.691   3.517  12.359  0.00  0.00    +0.000 A 
ATOM     18  C   UNL     1       7.636   4.455  12.777  0.00  0.00    +0.000 A 
ATOM     19  C   UNL     1       7.364   5.299  13.858  0.00  0.00    +0.000 A 
ATOM     20  C   UNL     1       6.139   5.231  14.535  0.00  0.00    +0.000 A 
ATOM     21  C   UNL     1       5.216   4.259  14.141  0.00  0.00    +0.000 A 
ATOM     22  C   UNL     1       5.479   3.420  13.053  0.00  0.00    +0.000 A 
ENDBRANCH   1  20
TORSDOF 1
ENDMDL
MODEL 3
REMARK VINA RESULT:      -7.5      3.632      7.458
REMARK  Name = 
REMARK  4 active torsions:
REMARK  status: ('A' for Active; 'I' for Inactive)
REMARK    1  A    between atoms: C_1  and  C_2
REMARK    2  A    between atoms: C_5  and  N_6
REMARK    3  A    between atoms: C_15  and  C_16
REMARK    4  A    between atoms: C_15  and  C_17
REMARK                            x       y       z     vdW  Elec       q    Type
REMARK                         _______ _______ _______ _____ _____    ______ ____
ROOT
ATOM      1  N   UNL     1       1.956   8.761  18.514  0.00  0.00    +0.000 N 
ATOM      2  C   UNL     1       2.459   7.479  18.278  0.00  0.00    +0.000 A 
ATOM      3  N   UNL     1       3.621   7.386  17.611  0.00  0.00    +0.000 NA
ATOM      4  C   UNL     1       4.123   6.143  17.433  0.00  0.00    +0.000 A 
ATOM      5  C   UNL     1       3.507   5.002  17.895  0.00  0.00    +0.000 A 
ATOM      6  C   UNL     1       2.298   5.182  18.528  0.00  0.00    +0.000 A 
ATOM      7  N   UNL     1       1.779   6.410  18.730  0.00  0.00    +0.000 NA
ATOM      8  C   UNL     1       1.506   4.036  19.089  0.00  0.00    +0.000 C 
ATOM      9  C   UNL     1       1.976   2.687  18.551  0.00  0.00    +0.000 C 
ATOM     10  C   UNL     1       3.508   2.537  18.595  0.00  0.00    +0.000 C 
ATOM     11  C   UNL     1       4.062   2.629  20.027  0.00  0.00    +0.000 C 
ATOM     12  C   UNL     1       3.894   1.173  18.004  0.00  0.00    +0.000 C 
ATOM     13  C   UNL     1       4.120   3.669  17.762  0.00  0.00    +0.000 C 
ATOM     14  O   UNL     1       5.114   3.533  17.056  0.00  0.00    +0.000 OA
ATOM     15  H   UNL     1       2.669   9.425  18.240  0.00  0.00    +0.000 HD
ENDROOT
BRANCH   1  20
ATOM     16  C   UNL     1      -0.996  10.522  23.104  0.00  0.00    +0.000 C 
ATOM     17  C   UNL     1      -0.203  10.060  21.917  0.00  0.00    +0.000 A 
ATOM     18  C   UNL     1       0.756   9.054  22.043  0.00  0.00    +0.000 A 
ATOM     19  C   UNL     1       1.472   8.615  20.926  0.00  0.00    +0.000 A 
ATOM     20  C   UNL     1       1.237   9.164  19.658  0.00  0.00    +0.000 A 
ATOM     21  C   UNL     1       0.308  10.203  19.546  0.00  0.00    +0.000 A 
ATOM     22  C   UNL     1      -0.419  10.636  20.659  0.00  0.00    +0.000 A 
ENDBRANCH   1  20
TORSDOF 1
ENDMDL
MODEL 4
REMARK VINA RESULT:      -7.5      3.584      7.399
REMARK  Name = 
REMARK  4 active torsions:
REMARK  status: ('A' for Active; 'I' for Inactive)
REMARK    1  A    between atoms: C_1  and  C_2
REMARK    2  A    between atoms: C_5  and  N_6
REMARK    3  A    between atoms: C_15  and  C_16
REMARK    4  A    between atoms: C_15  and  C_17
REMARK                            x       y       z     vdW  Elec       q    Type
REMARK                         _______ _______ _______ _____ _____    ______ ____
ROOT
ATOM      1  N   UNL     1       2.007   8.792  18.427  0.00  0.00    +0.000 N 
ATOM      2  C   UNL     1       2.500   7.503  18.204  0.00  0.00    +0.000 A 
ATOM      3  N   UNL     1       3.669   7.395  17.552  0.00  0.00    +0.000 NA
ATOM      4  C   UNL     1       4.160   6.146  17.387  0.00  0.00    +0.000 A 
ATOM      5  C   UNL     1       3.525   5.014  17.846  0.00  0.00    +0.000 A 
ATOM      6  C   UNL     1       2.311   5.210  18.464  0.00  0.00    +0.000 A 
ATOM      7  N   UNL     1       1.802   6.444  18.653  0.00  0.00    +0.000 NA
ATOM      8  C   UNL     1       1.500   4.075  19.021  0.00  0.00    +0.000 C 
ATOM      9  C   UNL     1       1.961   2.719  18.495  0.00  0.00    +0.000 C 
ATOM     10  C   UNL     1       3.492   2.553  18.559  0.00  0.00    +0.000 C 
ATOM     11  C   UNL     1       4.028   2.647  19.998  0.00  0.00    +0.000 C 
ATOM     12  C   UNL     1       3.871   1.182  17.980  0.00  0.00    +0.000 C 
ATOM     13  C   UNL     1       4.126   3.674  17.728  0.00  0.00    +0.000 C 
ATOM     14  O   UNL     1       5.127   3.524  17.036  0.00  0.00    +0.000 OA
ATOM     15  H   UNL     1       2.730   9.448  18.158  0.00  0.00    +0.000 HD
ENDROOT
BRANCH   1  20
ATOM     16  C   UNL     1      -0.927  10.368  23.095  0.00  0.00    +0.000 C 
ATOM     17  C   UNL     1      -0.180   9.956  21.861  0.00  0.00    +0.000 A 
ATOM     18  C   UNL     1      -0.454  10.548  20.626  0.00  0.00    +0.000 A 
ATOM     19  C   UNL     1       0.265  10.174  19.488  0.00  0.00    +0.000 A 
ATOM     20  C   UNL     1       1.278   9.209  19.559  0.00  0.00    +0.000 A 
ATOM     21  C   UNL     1       1.517   8.587  20.788  0.00  0.00    +0.000 A 
ATOM     22  C   UNL     1       0.808   8.968  21.933  0.00  0.00    +0.000 A 
ENDBRANCH   1  20
TORSDOF 1
ENDMDL
MODEL 5
REMARK VINA RESULT:      -7.5      1.034      1.174
REMARK  Name = 
REMARK  4 active torsions:
REMARK  status: ('A' for Active; 'I' for Inactive)
REMARK    1  A    between atoms: C_1  and  C_2
REMARK    2  A    between atoms: C_5  and  N_6
REMARK    3  A    between atoms: C_15  and  C_16
REMARK    4  A    between atoms: C_15  and  C_17
REMARK                            x       y       z     vdW  Elec       q    Type
REMARK                         _______ _______ _______ _____ _____    ______ ____
ROOT
ATOM      1  N   UNL     1       6.307   5.694  14.584  0.00  0.00    +0.000 N 
ATOM      2  C   UNL     1       5.550   5.708  15.759  0.00  0.00    +0.000 A 
ATOM      3  N   UNL     1       5.055   6.891  16.159  0.00  0.00    +0.000 NA
ATOM      4  C   UNL     1       4.283   6.883  17.269  0.00  0.00    +0.000 A 
ATOM      5  C   UNL     1       3.995   5.743  17.985  0.00  0.00    +0.000 A 
ATOM      6  C   UNL     1       4.579   4.582  17.533  0.00  0.00    +0.000 A 
ATOM      7  N   UNL     1       5.343   4.557  16.424  0.00  0.00    +0.000 NA
ATOM      8  C   UNL     1       4.358   3.257  18.206  0.00  0.00    +0.000 C 
ATOM      9  C   UNL     1       3.768   3.408  19.606  0.00  0.00    +0.000 C 
ATOM     10  C   UNL     1       2.583   4.392  19.642  0.00  0.00    +0.000 C 
ATOM     11  C   UNL     1       1.419   3.935  18.747  0.00  0.00    +0.000 C 
ATOM     12  C   UNL     1       2.077   4.511  21.088  0.00  0.00    +0.000 C 
ATOM     13  C   UNL     1       3.080   5.752  19.140  0.00  0.00    +0.000 C 
ATOM     14  O   UNL     1       2.710   6.825  19.605  0.00  0.00    +0.000 OA
ATOM     15  H   UNL     1       6.224   6.608  14.155  0.00  0.00    +0.000 HD
ENDROOT
BRANCH   1  20
ATOM     16  C   UNL     1       6.567   1.489  10.694  0.00  0.00    +0.000 C 
ATOM     17  C   UNL     1       6.477   2.595  11.704  0.00  0.00    +0.000 A 
ATOM     18  C   UNL     1       5.294   2.826  12.409  0.00  0.00    +0.000 A 
ATOM     19  C   UNL     1       5.229   3.845  13.364  0.00  0.00    +0.000 A 
ATOM     20  C   UNL     1       6.345   4.645  13.643  0.00  0.00    +0.000 A 
ATOM     21  C   UNL     1       7.511   4.439  12.901  0.00  0.00    +0.000 A 
ATOM     22  C   UNL     1       7.585   3.413  11.953  0.00  0.00    +0.000 A 
ENDBRANCH   1  20
TORSDOF 1
ENDMDL
MODEL 6
REMARK VINA RESULT:      -6.9      4.916      7.655
REMARK  Name = 
REMARK  4 active torsions:
REMARK  status: ('A' for Active; 'I' for Inactive)
REMARK    1  A    between atoms: C_1  and  C_2
REMARK    2  A    between atoms: C_5  and  N_6
REMARK    3  A    between atoms: C_15  and  C_16
REMARK    4  A    between atoms: C_15  and  C_17
REMARK                            x       y       z     vdW  Elec       q    Type
REMARK                         _______ _______ _______ _____ _____    ______ ____
ROOT
ATOM      1  N   UNL     1       2.932   7.318  18.493  0.00  0.00    +0.000 N 
ATOM      2  C   UNL     1       2.266   8.537  18.645  0.00  0.00    +0.000 A 
ATOM      3  N   UNL     1       2.538   9.503  17.753  0.00  0.00    +0.000 NA
ATOM      4  C   UNL     1       1.851  10.660  17.880  0.00  0.00    +0.000 A 
ATOM      5  C   UNL     1       0.910  10.881  18.860  0.00  0.00    +0.000 A 
ATOM      6  C   UNL     1       0.724   9.856  19.761  0.00  0.00    +0.000 A 
ATOM      7  N   UNL     1       1.387   8.688  19.652  0.00  0.00    +0.000 NA
ATOM      8  C   UNL     1      -0.268   9.945  20.884  0.00  0.00    +0.000 C 
ATOM      9  C   UNL     1      -0.731  11.377  21.139  0.00  0.00    +0.000 C 
ATOM     10  C   UNL     1      -1.112  12.112  19.840  0.00  0.00    +0.000 C 
ATOM     11  C   UNL     1      -2.273  11.425  19.100  0.00  0.00    +0.000 C 
ATOM     12  C   UNL     1      -1.529  13.550  20.183  0.00  0.00    +0.000 C 
ATOM     13  C   UNL     1       0.115  12.119  18.921  0.00  0.00    +0.000 C 
ATOM     14  O   UNL     1       0.420  13.065  18.203  0.00  0.00    +0.000 OA
ATOM     15  H   UNL     1       3.424   7.345  17.610  0.00  0.00    +0.000 HD
ENDROOT
BRANCH   1  20
ATOM     16  C   UNL     1       0.702   2.143  19.561  0.00  0.00    +0.000 C 
ATOM     17  C   UNL     1       1.271   3.507  19.299  0.00  0.00    +0.000 A 
ATOM     18  C   UNL     1       1.585   4.367  20.353  0.00  0.00    +0.000 A 
ATOM     19  C   UNL     1       2.137   5.626  20.098  0.00  0.00    +0.000 A 
ATOM     20  C   UNL     1       2.397   6.047  18.787  0.00  0.00    +0.000 A 
ATOM     21  C   UNL     1       2.038   5.200  17.735  0.00  0.00    +0.000 A 
ATOM     22  C   UNL     1       1.497   3.935  17.986  0.00  0.00    +0.000 A 
ENDBRANCH   1  20
TORSDOF 1
ENDMDL
MODEL 7
REMARK VINA RESULT:      -6.9      3.170      4.916
REMARK  Name = 
REMARK  4 active torsions:
REMARK  status: ('A' for Active; 'I' for Inactive)
REMARK    1  A    between atoms: C_1  and  C_2
REMARK    2  A    between atoms: C_5  and  N_6
REMARK    3  A    between atoms: C_15  and  C_16
REMARK    4  A    between atoms: C_15  and  C_17
REMARK                            x       y       z     vdW  Elec       q    Type
REMARK                         _______ _______ _______ _____ _____    ______ ____
ROOT
ATOM      1  N   UNL     1       6.583   6.591  16.543  0.00  0.00    +0.000 N 
ATOM      2  C   UNL     1       5.561   5.739  16.971  0.00  0.00    +0.000 A 
ATOM      3  N   UNL     1       5.460   4.545  16.364  0.00  0.00    +0.000 NA
ATOM      4  C   UNL     1       4.500   3.710  16.821  0.00  0.00    +0.000 A 
ATOM      5  C   UNL     1       3.646   4.027  17.853  0.00  0.00    +0.000 A 
ATOM      6  C   UNL     1       3.788   5.287  18.389  0.00  0.00    +0.000 A 
ATOM      7  N   UNL     1       4.743   6.137  17.962  0.00  0.00    +0.000 NA
ATOM      8  C   UNL     1       2.933   5.779  19.522  0.00  0.00    +0.000 C 
ATOM      9  C   UNL     1       1.692   4.916  19.730  0.00  0.00    +0.000 C 
ATOM     10  C   UNL     1       2.015   3.410  19.730  0.00  0.00    +0.000 C 
ATOM     11  C   UNL     1       2.985   3.022  20.859  0.00  0.00    +0.000 C 
ATOM     12  C   UNL     1       0.710   2.619  19.907  0.00  0.00    +0.000 C 
ATOM     13  C   UNL     1       2.667   3.064  18.387  0.00  0.00    +0.000 C 
ATOM     14  O   UNL     1       2.464   2.017  17.782  0.00  0.00    +0.000 OA
ATOM     15  H   UNL     1       7.175   6.067  15.910  0.00  0.00    +0.000 HD
ENDROOT
BRANCH   1  20
ATOM     16  C   UNL     1       9.519  10.317  19.764  0.00  0.00    +0.000 C 
ATOM     17  C   UNL     1       8.770   9.327  18.923  0.00  0.00    +0.000 A 
ATOM     18  C   UNL     1       8.814   7.962  19.212  0.00  0.00    +0.000 A 
ATOM     19  C   UNL     1       8.093   7.051  18.435  0.00  0.00    +0.000 A 
ATOM     20  C   UNL     1       7.305   7.484  17.360  0.00  0.00    +0.000 A 
ATOM     21  C   UNL     1       7.301   8.847  17.047  0.00  0.00    +0.000 A 
ATOM     22  C   UNL     1       8.011   9.763  17.830  0.00  0.00    +0.000 A 
ENDBRANCH   1  20
TORSDOF 1
ENDMDL
MODEL 8
REMARK VINA RESULT:      -6.9      4.923      7.656
REMARK  Name = 
REMARK  4 active torsions:
REMARK  status: ('A' for Active; 'I' for Inactive)
REMARK    1  A    between atoms: C_1  and  C_2
REMARK    2  A    between atoms: C_5  and  N_6
REMARK    3  A    between atoms: C_15  and  C_16
REMARK    4  A    between atoms: C_15  and  C_17
REMARK                            x       y       z     vdW  Elec       q    Type
REMARK                         _______ _______ _______ _____ _____    ______ ____
ROOT
ATOM      1  N   UNL     1       2.921   7.333  18.458  0.00  0.00    +0.000 N 
ATOM      2  C   UNL     1       2.259   8.553  18.619  0.00  0.00    +0.000 A 
ATOM      3  N   UNL     1       2.542   9.527  17.739  0.00  0.00    +0.000 NA
ATOM      4  C   UNL     1       1.858  10.686  17.874  0.00  0.00    +0.000 A 
ATOM      5  C   UNL     1       0.912  10.899  18.851  0.00  0.00    +0.000 A 
ATOM      6  C   UNL     1       0.715   9.866  19.738  0.00  0.00    +0.000 A 
ATOM      7  N   UNL     1       1.374   8.696  19.622  0.00  0.00    +0.000 NA
ATOM      8  C   UNL     1      -0.285   9.946  20.856  0.00  0.00    +0.000 C 
ATOM      9  C   UNL     1      -0.744  11.377  21.123  0.00  0.00    +0.000 C 
ATOM     10  C   UNL     1      -1.113  12.128  19.830  0.00  0.00    +0.000 C 
ATOM     11  C   UNL     1      -2.271  11.453  19.075  0.00  0.00    +0.000 C 
ATOM     12  C   UNL     1      -1.526  13.564  20.186  0.00  0.00    +0.000 C 
ATOM     13  C   UNL     1       0.121  12.140  18.919  0.00  0.00    +0.000 C 
ATOM     14  O   UNL     1       0.435  13.093  18.214  0.00  0.00    +0.000 OA
ATOM     15  H   UNL     1       3.420   7.368  17.578  0.00  0.00    +0.000 HD
ENDROOT
BRANCH   1  20
ATOM     16  C   UNL     1       0.775   2.164  19.707  0.00  0.00    +0.000 C 
ATOM     17  C   UNL     1       1.350   3.506  19.362  0.00  0.00    +0.000 A 
ATOM     18  C   UNL     1       1.521   3.892  18.032  0.00  0.00    +0.000 A 
ATOM     19  C   UNL     1       2.035   5.154  17.723  0.00  0.00    +0.000 A 
ATOM     20  C   UNL     1       2.379   6.061  18.734  0.00  0.00    +0.000 A 
ATOM     21  C   UNL     1       2.249   5.651  20.065  0.00  0.00    +0.000 A 
ATOM     22  C   UNL     1       1.723   4.394  20.378  0.00  0.00    +0.000 A 
ENDBRANCH   1  20
TORSDOF 1
ENDMDL
MODEL 9
REMARK VINA RESULT:      -6.9      4.885      7.209
REMARK  Name = 
REMARK  4 active torsions:
REMARK  status: ('A' for Active; 'I' for Inactive)
REMARK    1  A    between atoms: C_1  and  C_2
REMARK    2  A    between atoms: C_5  and  N_6
REMARK    3  A    between atoms: C_15  and  C_16
REMARK    4  A    between atoms: C_15  and  C_17
REMARK                            x       y       z     vdW  Elec       q    Type
REMARK                         _______ _______ _______ _____ _____    ______ ____
ROOT
ATOM      1  N   UNL     1       1.924   6.416  20.639  0.00  0.00    +0.000 N 
ATOM      2  C   UNL     1       1.481   7.741  20.675  0.00  0.00    +0.000 A 
ATOM      3  N   UNL     1       1.522   8.372  21.860  0.00  0.00    +0.000 NA
ATOM      4  C   UNL     1       1.139   9.669  21.873  0.00  0.00    +0.000 A 
ATOM      5  C   UNL     1       0.720  10.347  20.751  0.00  0.00    +0.000 A 
ATOM      6  C   UNL     1       0.665   9.615  19.587  0.00  0.00    +0.000 A 
ATOM      7  N   UNL     1       1.051   8.324  19.542  0.00  0.00    +0.000 NA
ATOM      8  C   UNL     1       0.231  10.215  18.280  0.00  0.00    +0.000 C 
ATOM      9  C   UNL     1      -0.486  11.549  18.463  0.00  0.00    +0.000 C 
ATOM     10  C   UNL     1       0.262  12.492  19.426  0.00  0.00    +0.000 C 
ATOM     11  C   UNL     1       1.671  12.843  18.920  0.00  0.00    +0.000 C 
ATOM     12  C   UNL     1      -0.544  13.790  19.581  0.00  0.00    +0.000 C 
ATOM     13  C   UNL     1       0.392  11.783  20.779  0.00  0.00    +0.000 C 
ATOM     14  O   UNL     1       0.300  12.357  21.858  0.00  0.00    +0.000 OA
ATOM     15  H   UNL     1       2.342   6.208  21.537  0.00  0.00    +0.000 HD
ENDROOT
BRANCH   1  20
ATOM     16  C   UNL     1       4.752   4.022  16.263  0.00  0.00    +0.000 C 
ATOM     17  C   UNL     1       3.993   4.652  17.393  0.00  0.00    +0.000 A 
ATOM     18  C   UNL     1       2.632   4.397  17.572  0.00  0.00    +0.000 A 
ATOM     19  C   UNL     1       1.941   4.972  18.643  0.00  0.00    +0.000 A 
ATOM     20  C   UNL     1       2.595   5.803  19.561  0.00  0.00    +0.000 A 
ATOM     21  C   UNL     1       3.947   6.091  19.350  0.00  0.00    +0.000 A 
ATOM     22  C   UNL     1       4.645   5.509  18.288  0.00  0.00    +0.000 A 
ENDBRANCH   1  20
TORSDOF 1
ENDMDL
