MODEL 1
REMARK VINA RESULT:      -6.9      0.000      0.000
REMARK  Name = 
REMARK  13 active torsions:
REMARK  status: ('A' for Active; 'I' for Inactive)
REMARK    1  A    between atoms: C_1  and  C_2
REMARK    2  A    between atoms: C_2  and  N_3
REMARK    3  A    between atoms: N_3  and  C_4
REMARK    4  A    between atoms: N_3  and  C_16
REMARK    5  A    between atoms: C_4  and  C_5
REMARK    6  A    between atoms: N_7  and  C_8
REMARK    7  A    between atoms: C_9  and  C_10
REMARK    8  A    between atoms: N_12  and  C_13
REMARK    9  A    between atoms: C_14  and  C_15
REMARK   10  A    between atoms: C_16  and  C_17
REMARK   11  A    between atoms: C_17  and  O_18
REMARK   12  A    between atoms: C_17  and  C_19
REMARK   13  A    between atoms: C_22  and  C_23
REMARK                            x       y       z     vdW  Elec       q    Type
REMARK                         _______ _______ _______ _____ _____    ______ ____
ROOT
ATOM      1  N   UNL     1       3.090   3.773  19.386  0.00  0.00    +0.000 NA
ENDROOT
BRANCH   1   3
ATOM      2  C   UNL     1       1.117   2.897  20.721  0.00  0.00    +0.000 C 
ATOM      3  C   UNL     1       2.525   2.659  20.178  0.00  0.00    +0.000 C 
ENDBRANCH   1   3
BRANCH   1   4
ATOM      4  C   UNL     1       3.202   5.045  20.146  0.00  0.00    +0.000 C 
BRANCH   4   5
ATOM      5  C   UNL     1       2.387   6.186  19.523  0.00  0.00    +0.000 C 
ATOM      6  O   UNL     1       1.872   6.095  18.407  0.00  0.00    +0.000 OA
ATOM      7  N   UNL     1       2.301   7.313  20.317  0.00  0.00    +0.000 N 
ATOM      8  H   UNL     1       3.090   7.517  20.917  0.00  0.00    +0.000 HD
BRANCH   7   9
ATOM      9  C   UNL     1       1.541   8.397  19.901  0.00  0.00    +0.000 A 
ATOM     10  C   UNL     1       1.664   9.227  18.752  0.00  0.00    +0.000 A 
ATOM     11  C   UNL     1       2.573   9.104  17.585  0.00  0.00    +0.000 C 
ATOM     12  N   UNL     1       0.751  10.204  18.763  0.00  0.00    +0.000 NA
ATOM     13  N   UNL     1       0.087  10.024  19.916  0.00  0.00    +0.000 N 
ATOM     14  C   UNL     1      -0.882  11.016  20.317  0.00  0.00    +0.000 C 
ATOM     15  C   UNL     1       0.466   8.897  20.601  0.00  0.00    +0.000 A 
ATOM     16  C   UNL     1      -0.128   8.466  21.892  0.00  0.00    +0.000 C 
ENDBRANCH   7   9
ENDBRANCH   4   5
ENDBRANCH   1   4
BRANCH   1  17
ATOM     17  C   UNL     1       4.400   3.356  18.806  0.00  0.00    +0.000 C 
BRANCH  17  18
ATOM     18  C   UNL     1       4.801   4.063  17.474  0.00  0.00    +0.000 C 
BRANCH  18  19
ATOM     19  C   UNL     1       5.750   5.246  17.597  0.00  0.00    +0.000 A 
ATOM     20  C   UNL     1       5.431   6.458  16.960  0.00  0.00    +0.000 A 
ATOM     21  C   UNL     1       6.256   7.580  17.073  0.00  0.00    +0.000 A 
ATOM     22  C   UNL     1       7.415   7.529  17.847  0.00  0.00    +0.000 A 
ATOM     23  C   UNL     1       8.320   8.719  17.955  0.00  0.00    +0.000 C 
ATOM     24  C   UNL     1       7.720   6.345  18.524  0.00  0.00    +0.000 A 
ATOM     25  C   UNL     1       6.895   5.219  18.406  0.00  0.00    +0.000 A 
ENDBRANCH  18  19
BRANCH  18  26
ATOM     26  O   UNL     1       5.381   3.088  16.593  0.00  0.00    +0.000 OA
ATOM     27  H   UNL     1       5.530   3.545  15.746  0.00  0.00    +0.000 HD
ENDBRANCH  18  26
ENDBRANCH  17  18
ENDBRANCH   1  17
TORSDOF 8
ENDMDL
MODEL 2
REMARK VINA RESULT:      -6.9      2.818      6.713
REMARK  Name = 
REMARK  13 active torsions:
REMARK  status: ('A' for Active; 'I' for Inactive)
REMARK    1  A    between atoms: C_1  and  C_2
REMARK    2  A    between atoms: C_2  and  N_3
REMARK    3  A    between atoms: N_3  and  C_4
REMARK    4  A    between atoms: N_3  and  C_16
REMARK    5  A    between atoms: C_4  and  C_5
REMARK    6  A    between atoms: N_7  and  C_8
REMARK    7  A    between atoms: C_9  and  C_10
REMARK    8  A    between atoms: N_12  and  C_13
REMARK    9  A    between atoms: C_14  and  C_15
REMARK   10  A    between atoms: C_16  and  C_17
REMARK   11  A    between atoms: C_17  and  O_18
REMARK   12  A    between atoms: C_17  and  C_19
REMARK   13  A    between atoms: C_22  and  C_23
REMARK                            x       y       z     vdW  Elec       q    Type
REMARK                         _______ _______ _______ _____ _____    ______ ____
ROOT
ATOM      1  N   UNL     1       2.487   3.636  18.713  0.00  0.00    +0.000 NA
ENDROOT
BRANCH   1   3
ATOM      2  C   UNL     1       0.945   3.390  20.713  0.00  0.00    +0.000 C 
ATOM      3  C   UNL     1       1.432   2.838  19.374  0.00  0.00    +0.000 C 
ENDBRANCH   1   3
BRANCH   1   4
ATOM      4  C   UNL     1       3.029   3.000  17.483  0.00  0.00    +0.000 C 
BRANCH   4   5
ATOM      5  C   UNL     1       4.425   3.517  17.111  0.00  0.00    +0.000 C 
ATOM      6  O   UNL     1       5.411   3.326  17.826  0.00  0.00    +0.000 OA
ATOM      7  N   UNL     1       4.466   4.217  15.920  0.00  0.00    +0.000 N 
ATOM      8  H   UNL     1       3.641   4.745  15.667  0.00  0.00    +0.000 HD
BRANCH   7   9
ATOM      9  C   UNL     1       5.678   4.686  15.434  0.00  0.00    +0.000 A 
ATOM     10  C   UNL     1       6.628   5.570  16.014  0.00  0.00    +0.000 A 
ATOM     11  C   UNL     1       6.666   6.162  17.374  0.00  0.00    +0.000 C 
ATOM     12  N   UNL     1       7.642   5.807  15.175  0.00  0.00    +0.000 NA
ATOM     13  N   UNL     1       7.322   5.120  14.067  0.00  0.00    +0.000 N 
ATOM     14  C   UNL     1       8.143   5.285  12.891  0.00  0.00    +0.000 C 
ATOM     15  C   UNL     1       6.189   4.357  14.198  0.00  0.00    +0.000 A 
ATOM     16  C   UNL     1       5.636   3.493  13.125  0.00  0.00    +0.000 C 
ENDBRANCH   7   9
ENDBRANCH   4   5
ENDBRANCH   1   4
BRANCH   1  17
ATOM     17  C   UNL     1       1.977   5.012  18.446  0.00  0.00    +0.000 C 
BRANCH  17  18
ATOM     18  C   UNL     1       2.865   6.176  18.984  0.00  0.00    +0.000 C 
BRANCH  18  19
ATOM     19  C   UNL     1       2.196   7.537  19.103  0.00  0.00    +0.000 A 
ATOM     20  C   UNL     1       2.017   8.323  17.951  0.00  0.00    +0.000 A 
ATOM     21  C   UNL     1       1.378   9.564  18.007  0.00  0.00    +0.000 A 
ATOM     22  C   UNL     1       0.878  10.046  19.216  0.00  0.00    +0.000 A 
ATOM     23  C   UNL     1       0.213  11.387  19.293  0.00  0.00    +0.000 C 
ATOM     24  C   UNL     1       1.007   9.255  20.361  0.00  0.00    +0.000 A 
ATOM     25  C   UNL     1       1.653   8.013  20.305  0.00  0.00    +0.000 A 
ENDBRANCH  18  19
BRANCH  18  26
ATOM     26  O   UNL     1       3.389   5.799  20.267  0.00  0.00    +0.000 OA
ATOM     27  H   UNL     1       3.987   6.518  20.536  0.00  0.00    +0.000 HD
ENDBRANCH  18  26
ENDBRANCH  17  18
ENDBRANCH   1  17
TORSDOF 8
ENDMDL
MODEL 3
REMARK VINA RESULT:      -6.7      3.635      6.493
REMARK  Name = 
REMARK  13 active torsions:
REMARK  status: ('A' for Active; 'I' for Inactive)
REMARK    1  A    between atoms: C_1  and  C_2
REMARK    2  A    between atoms: C_2  and  N_3
REMARK    3  A    between atoms: N_3  and  C_4
REMARK    4  A    between atoms: N_3  and  C_16
REMARK    5  A    between atoms: C_4  and  C_5
REMARK    6  A    between atoms: N_7  and  C_8
REMARK    7  A    between atoms: C_9  and  C_10
REMARK    8  A    between atoms: N_12  and  C_13
REMARK    9  A    between atoms: C_14  and  C_15
REMARK   10  A    between atoms: C_16  and  C_17
REMARK   11  A    between atoms: C_17  and  O_18
REMARK   12  A    between atoms: C_17  and  C_19
REMARK   13  A    between atoms: C_22  and  C_23
REMARK                            x       y       z     vdW  Elec       q    Type
REMARK                         _______ _______ _______ _____ _____    ______ ____
ROOT
ATOM      1  N   UNL     1       7.485   5.851  16.857  0.00  0.00    +0.000 NA
ENDROOT
BRANCH   1   3
ATOM      2  C   UNL     1       8.000   8.062  17.991  0.00  0.00    +0.000 C 
ATOM      3  C   UNL     1       6.954   7.122  17.393  0.00  0.00    +0.000 C 
ENDBRANCH   1   3
BRANCH   1   4
ATOM      4  C   UNL     1       7.749   4.829  17.904  0.00  0.00    +0.000 C 
BRANCH   4   5
ATOM      5  C   UNL     1       6.582   4.667  18.887  0.00  0.00    +0.000 C 
ATOM      6  O   UNL     1       6.528   5.284  19.953  0.00  0.00    +0.000 OA
ATOM      7  N   UNL     1       5.619   3.767  18.473  0.00  0.00    +0.000 N 
ATOM      8  H   UNL     1       5.930   2.981  17.916  0.00  0.00    +0.000 HD
BRANCH   7   9
ATOM      9  C   UNL     1       4.479   3.572  19.238  0.00  0.00    +0.000 A 
ATOM     10  C   UNL     1       4.165   2.563  20.191  0.00  0.00    +0.000 A 
ATOM     11  C   UNL     1       5.017   1.482  20.744  0.00  0.00    +0.000 C 
ATOM     12  N   UNL     1       2.921   2.714  20.661  0.00  0.00    +0.000 NA
ATOM     13  N   UNL     1       2.441   3.773  19.990  0.00  0.00    +0.000 N 
ATOM     14  C   UNL     1       1.048   4.117  20.151  0.00  0.00    +0.000 C 
ATOM     15  C   UNL     1       3.367   4.381  19.181  0.00  0.00    +0.000 A 
ATOM     16  C   UNL     1       3.089   5.580  18.351  0.00  0.00    +0.000 C 
ENDBRANCH   7   9
ENDBRANCH   4   5
ENDBRANCH   1   4
BRANCH   1  17
ATOM     17  C   UNL     1       6.569   5.335  15.798  0.00  0.00    +0.000 C 
BRANCH  17  18
ATOM     18  C   UNL     1       7.265   4.662  14.575  0.00  0.00    +0.000 C 
BRANCH  18  19
ATOM     19  C   UNL     1       6.346   4.102  13.500  0.00  0.00    +0.000 A 
ATOM     20  C   UNL     1       4.953   4.154  13.683  0.00  0.00    +0.000 A 
ATOM     21  C   UNL     1       4.071   3.682  12.709  0.00  0.00    +0.000 A 
ATOM     22  C   UNL     1       4.557   3.161  11.509  0.00  0.00    +0.000 A 
ATOM     23  C   UNL     1       3.621   2.628  10.467  0.00  0.00    +0.000 C 
ATOM     24  C   UNL     1       5.938   3.145  11.293  0.00  0.00    +0.000 A 
ATOM     25  C   UNL     1       6.822   3.614  12.274  0.00  0.00    +0.000 A 
ENDBRANCH  18  19
BRANCH  18  26
ATOM     26  O   UNL     1       8.161   5.611  13.976  0.00  0.00    +0.000 OA
ATOM     27  H   UNL     1       8.302   5.309  13.062  0.00  0.00    +0.000 HD
ENDBRANCH  18  26
ENDBRANCH  17  18
ENDBRANCH   1  17
TORSDOF 8
ENDMDL
MODEL 4
REMARK VINA RESULT:      -6.7      2.806      6.801
REMARK  Name = 
REMARK  13 active torsions:
REMARK  status: ('A' for Active; 'I' for Inactive)
REMARK    1  A    between atoms: C_1  and  C_2
REMARK    2  A    between atoms: C_2  and  N_3
REMARK    3  A    between atoms: N_3  and  C_4
REMARK    4  A    between atoms: N_3  and  C_16
REMARK    5  A    between atoms: C_4  and  C_5
REMARK    6  A    between atoms: N_7  and  C_8
REMARK    7  A    between atoms: C_9  and  C_10
REMARK    8  A    between atoms: N_12  and  C_13
REMARK    9  A    between atoms: C_14  and  C_15
REMARK   10  A    between atoms: C_16  and  C_17
REMARK   11  A    between atoms: C_17  and  O_18
REMARK   12  A    between atoms: C_17  and  C_19
REMARK   13  A    between atoms: C_22  and  C_23
REMARK                            x       y       z     vdW  Elec       q    Type
REMARK                         _______ _______ _______ _____ _____    ______ ____
ROOT
ATOM      1  N   UNL     1       2.869   3.997  19.224  0.00  0.00    +0.000 NA
ENDROOT
BRANCH   1   3
ATOM      2  C   UNL     1       0.673   2.728  19.143  0.00  0.00    +0.000 C 
ATOM      3  C   UNL     1       1.513   3.826  19.791  0.00  0.00    +0.000 C 
ENDBRANCH   1   3
BRANCH   1   4
ATOM      4  C   UNL     1       2.961   3.637  17.785  0.00  0.00    +0.000 C 
BRANCH   4   5
ATOM      5  C   UNL     1       4.375   3.814  17.215  0.00  0.00    +0.000 C 
ATOM      6  O   UNL     1       5.355   3.240  17.693  0.00  0.00    +0.000 OA
ATOM      7  N   UNL     1       4.442   4.677  16.138  0.00  0.00    +0.000 N 
ATOM      8  H   UNL     1       3.784   5.446  16.120  0.00  0.00    +0.000 HD
BRANCH   7   9
ATOM      9  C   UNL     1       5.650   4.879  15.487  0.00  0.00    +0.000 A 
ATOM     10  C   UNL     1       6.817   5.579  15.900  0.00  0.00    +0.000 A 
ATOM     11  C   UNL     1       7.138   6.202  17.208  0.00  0.00    +0.000 C 
ATOM     12  N   UNL     1       7.745   5.581  14.935  0.00  0.00    +0.000 NA
ATOM     13  N   UNL     1       7.162   4.930  13.916  0.00  0.00    +0.000 N 
ATOM     14  C   UNL     1       7.847   4.886  12.645  0.00  0.00    +0.000 C 
ATOM     15  C   UNL     1       5.931   4.411  14.223  0.00  0.00    +0.000 A 
ATOM     16  C   UNL     1       5.093   3.635  13.275  0.00  0.00    +0.000 C 
ENDBRANCH   7   9
ENDBRANCH   4   5
ENDBRANCH   1   4
BRANCH   1  17
ATOM     17  C   UNL     1       3.343   5.388  19.479  0.00  0.00    +0.000 C 
BRANCH  17  18
ATOM     18  C   UNL     1       2.636   6.503  18.646  0.00  0.00    +0.000 C 
BRANCH  18  19
ATOM     19  C   UNL     1       1.974   7.620  19.439  0.00  0.00    +0.000 A 
ATOM     20  C   UNL     1       1.645   8.826  18.795  0.00  0.00    +0.000 A 
ATOM     21  C   UNL     1       1.006   9.865  19.476  0.00  0.00    +0.000 A 
ATOM     22  C   UNL     1       0.658   9.720  20.819  0.00  0.00    +0.000 A 
ATOM     23  C   UNL     1      -0.005  10.838  21.565  0.00  0.00    +0.000 C 
ATOM     24  C   UNL     1       0.937   8.510  21.460  0.00  0.00    +0.000 A 
ATOM     25  C   UNL     1       1.582   7.470  20.778  0.00  0.00    +0.000 A 
ENDBRANCH  18  19
BRANCH  18  26
ATOM     26  O   UNL     1       3.592   7.076  17.740  0.00  0.00    +0.000 OA
ATOM     27  H   UNL     1       4.313   6.427  17.662  0.00  0.00    +0.000 HD
ENDBRANCH  18  26
ENDBRANCH  17  18
ENDBRANCH   1  17
TORSDOF 8
ENDMDL
MODEL 5
REMARK VINA RESULT:      -6.5      1.535      2.476
REMARK  Name = 
REMARK  13 active torsions:
REMARK  status: ('A' for Active; 'I' for Inactive)
REMARK    1  A    between atoms: C_1  and  C_2
REMARK    2  A    between atoms: C_2  and  N_3
REMARK    3  A    between atoms: N_3  and  C_4
REMARK    4  A    between atoms: N_3  and  C_16
REMARK    5  A    between atoms: C_4  and  C_5
REMARK    6  A    between atoms: N_7  and  C_8
REMARK    7  A    between atoms: C_9  and  C_10
REMARK    8  A    between atoms: N_12  and  C_13
REMARK    9  A    between atoms: C_14  and  C_15
REMARK   10  A    between atoms: C_16  and  C_17
REMARK   11  A    between atoms: C_17  and  O_18
REMARK   12  A    between atoms: C_17  and  C_19
REMARK   13  A    between atoms: C_22  and  C_23
REMARK                            x       y       z     vdW  Elec       q    Type
REMARK                         _______ _______ _______ _____ _____    ______ ____
ROOT
ATOM      1  N   UNL     1       2.153   4.621  19.306  0.00  0.00    +0.000 NA
ENDROOT
BRANCH   1   3
ATOM      2  C   UNL     1       0.819   2.500  18.907  0.00  0.00    +0.000 C 
ATOM      3  C   UNL     1       1.321   3.837  18.367  0.00  0.00    +0.000 C 
ENDBRANCH   1   3
BRANCH   1   4
ATOM      4  C   UNL     1       1.373   5.275  20.388  0.00  0.00    +0.000 C 
BRANCH   4   5
ATOM      5  C   UNL     1       1.656   6.778  20.503  0.00  0.00    +0.000 C 
ATOM      6  O   UNL     1       2.790   7.247  20.384  0.00  0.00    +0.000 OA
ATOM      7  N   UNL     1       0.533   7.543  20.760  0.00  0.00    +0.000 N 
ATOM      8  H   UNL     1      -0.198   7.117  21.315  0.00  0.00    +0.000 HD
BRANCH   7   9
ATOM      9  C   UNL     1       0.637   8.925  20.826  0.00  0.00    +0.000 A 
ATOM     10  C   UNL     1       0.471   9.815  21.923  0.00  0.00    +0.000 A 
ATOM     11  C   UNL     1       0.257   9.518  23.361  0.00  0.00    +0.000 C 
ATOM     12  N   UNL     1       0.604  11.088  21.536  0.00  0.00    +0.000 NA
ATOM     13  N   UNL     1       0.810  11.011  20.211  0.00  0.00    +0.000 N 
ATOM     14  C   UNL     1       0.843  12.235  19.446  0.00  0.00    +0.000 C 
ATOM     15  C   UNL     1       0.924   9.726  19.744  0.00  0.00    +0.000 A 
ATOM     16  C   UNL     1       1.172   9.375  18.323  0.00  0.00    +0.000 C 
ENDBRANCH   7   9
ENDBRANCH   4   5
ENDBRANCH   1   4
BRANCH   1  17
ATOM     17  C   UNL     1       3.238   3.753  19.851  0.00  0.00    +0.000 C 
BRANCH  17  18
ATOM     18  C   UNL     1       4.438   3.490  18.888  0.00  0.00    +0.000 C 
BRANCH  18  19
ATOM     19  C   UNL     1       5.282   4.699  18.516  0.00  0.00    +0.000 A 
ATOM     20  C   UNL     1       6.489   4.937  19.197  0.00  0.00    +0.000 A 
ATOM     21  C   UNL     1       7.312   6.016  18.867  0.00  0.00    +0.000 A 
ATOM     22  C   UNL     1       6.962   6.878  17.827  0.00  0.00    +0.000 A 
ATOM     23  C   UNL     1       7.826   8.054  17.481  0.00  0.00    +0.000 C 
ATOM     24  C   UNL     1       5.789   6.627  17.110  0.00  0.00    +0.000 A 
ATOM     25  C   UNL     1       4.961   5.548  17.447  0.00  0.00    +0.000 A 
ENDBRANCH  18  19
BRANCH  18  26
ATOM     26  O   UNL     1       5.285   2.489  19.473  0.00  0.00    +0.000 OA
ATOM     27  H   UNL     1       5.709   2.910  20.241  0.00  0.00    +0.000 HD
ENDBRANCH  18  26
ENDBRANCH  17  18
ENDBRANCH   1  17
TORSDOF 8
ENDMDL
MODEL 6
REMARK VINA RESULT:      -6.5      3.119      6.981
REMARK  Name = 
REMARK  13 active torsions:
REMARK  status: ('A' for Active; 'I' for Inactive)
REMARK    1  A    between atoms: C_1  and  C_2
REMARK    2  A    between atoms: C_2  and  N_3
REMARK    3  A    between atoms: N_3  and  C_4
REMARK    4  A    between atoms: N_3  and  C_16
REMARK    5  A    between atoms: C_4  and  C_5
REMARK    6  A    between atoms: N_7  and  C_8
REMARK    7  A    between atoms: C_9  and  C_10
REMARK    8  A    between atoms: N_12  and  C_13
REMARK    9  A    between atoms: C_14  and  C_15
REMARK   10  A    between atoms: C_16  and  C_17
REMARK   11  A    between atoms: C_17  and  O_18
REMARK   12  A    between atoms: C_17  and  C_19
REMARK   13  A    between atoms: C_22  and  C_23
REMARK                            x       y       z     vdW  Elec       q    Type
REMARK                         _______ _______ _______ _____ _____    ______ ____
ROOT
ATOM      1  N   UNL     1       3.329   3.632  18.929  0.00  0.00    +0.000 NA
ENDROOT
BRANCH   1   3
ATOM      2  C   UNL     1       4.494   1.913  20.387  0.00  0.00    +0.000 C 
ATOM      3  C   UNL     1       3.182   2.510  19.881  0.00  0.00    +0.000 C 
ENDBRANCH   1   3
BRANCH   1   4
ATOM      4  C   UNL     1       3.419   3.199  17.510  0.00  0.00    +0.000 C 
BRANCH   4   5
ATOM      5  C   UNL     1       4.328   4.103  16.668  0.00  0.00    +0.000 C 
ATOM      6  O   UNL     1       4.195   5.329  16.638  0.00  0.00    +0.000 OA
ATOM      7  N   UNL     1       5.288   3.419  15.946  0.00  0.00    +0.000 N 
ATOM      8  H   UNL     1       5.048   2.491  15.621  0.00  0.00    +0.000 HD
BRANCH   7   9
ATOM      9  C   UNL     1       6.216   4.120  15.190  0.00  0.00    +0.000 A 
ATOM     10  C   UNL     1       7.170   5.103  15.573  0.00  0.00    +0.000 A 
ATOM     11  C   UNL     1       7.543   5.586  16.926  0.00  0.00    +0.000 C 
ATOM     12  N   UNL     1       7.834   5.571  14.511  0.00  0.00    +0.000 NA
ATOM     13  N   UNL     1       7.285   4.928  13.468  0.00  0.00    +0.000 N 
ATOM     14  C   UNL     1       7.675   5.318  12.134  0.00  0.00    +0.000 C 
ATOM     15  C   UNL     1       6.363   3.978  13.828  0.00  0.00    +0.000 A 
ATOM     16  C   UNL     1       5.630   3.120  12.864  0.00  0.00    +0.000 C 
ENDBRANCH   7   9
ENDBRANCH   4   5
ENDBRANCH   1   4
BRANCH   1  17
ATOM     17  C   UNL     1       2.223   4.611  19.141  0.00  0.00    +0.000 C 
BRANCH  17  18
ATOM     18  C   UNL     1       2.553   5.805  20.090  0.00  0.00    +0.000 C 
BRANCH  18  19
ATOM     19  C   UNL     1       2.028   7.168  19.666  0.00  0.00    +0.000 A 
ATOM     20  C   UNL     1       1.534   8.054  20.640  0.00  0.00    +0.000 A 
ATOM     21  C   UNL     1       1.073   9.328  20.300  0.00  0.00    +0.000 A 
ATOM     22  C   UNL     1       1.114   9.764  18.976  0.00  0.00    +0.000 A 
ATOM     23  C   UNL     1       0.599  11.119  18.597  0.00  0.00    +0.000 C 
ATOM     24  C   UNL     1       1.646   8.912  18.004  0.00  0.00    +0.000 A 
ATOM     25  C   UNL     1       2.103   7.632  18.344  0.00  0.00    +0.000 A 
ENDBRANCH  18  19
BRANCH  18  26
ATOM     26  O   UNL     1       2.057   5.500  21.402  0.00  0.00    +0.000 OA
ATOM     27  H   UNL     1       2.642   4.808  21.758  0.00  0.00    +0.000 HD
ENDBRANCH  18  26
ENDBRANCH  17  18
ENDBRANCH   1  17
TORSDOF 8
ENDMDL
MODEL 7
REMARK VINA RESULT:      -6.4      2.566      8.629
REMARK  Name = 
REMARK  13 active torsions:
REMARK  status: ('A' for Active; 'I' for Inactive)
REMARK    1  A    between atoms: C_1  and  C_2
REMARK    2  A    between atoms: C_2  and  N_3
REMARK    3  A    between atoms: N_3  and  C_4
REMARK    4  A    between atoms: N_3  and  C_16
REMARK    5  A    between atoms: C_4  and  C_5
REMARK    6  A    between atoms: N_7  and  C_8
REMARK    7  A    between atoms: C_9  and  C_10
REMARK    8  A    between atoms: N_12  and  C_13
REMARK    9  A    between atoms: C_14  and  C_15
REMARK   10  A    between atoms: C_16  and  C_17
REMARK   11  A    between atoms: C_17  and  O_18
REMARK   12  A    between atoms: C_17  and  C_19
REMARK   13  A    between atoms: C_22  and  C_23
REMARK                            x       y       z     vdW  Elec       q    Type
REMARK                         _______ _______ _______ _____ _____    ______ ____
ROOT
ATOM      1  N   UNL     1       0.544   8.857  20.196  0.00  0.00    +0.000 NA
ENDROOT
BRANCH   1   3
ATOM      2  C   UNL     1      -0.282  10.270  18.258  0.00  0.00    +0.000 C 
ATOM      3  C   UNL     1       0.700  10.103  19.415  0.00  0.00    +0.000 C 
ENDBRANCH   1   3
BRANCH   1   4
ATOM      4  C   UNL     1       1.833   8.274  20.649  0.00  0.00    +0.000 C 
BRANCH   4   5
ATOM      5  C   UNL     1       2.293   7.095  19.782  0.00  0.00    +0.000 C 
ATOM      6  O   UNL     1       2.288   7.141  18.550  0.00  0.00    +0.000 OA
ATOM      7  N   UNL     1       2.694   5.988  20.506  0.00  0.00    +0.000 N 
ATOM      8  H   UNL     1       2.232   5.822  21.390  0.00  0.00    +0.000 HD
BRANCH   7   9
ATOM      9  C   UNL     1       3.192   4.873  19.847  0.00  0.00    +0.000 A 
ATOM     10  C   UNL     1       4.463   4.641  19.251  0.00  0.00    +0.000 A 
ATOM     11  C   UNL     1       5.685   5.482  19.264  0.00  0.00    +0.000 C 
ATOM     12  N   UNL     1       4.508   3.440  18.664  0.00  0.00    +0.000 NA
ATOM     13  N   UNL     1       3.277   2.935  18.848  0.00  0.00    +0.000 N 
ATOM     14  C   UNL     1       2.936   1.694  18.196  0.00  0.00    +0.000 C 
ATOM     15  C   UNL     1       2.469   3.722  19.629  0.00  0.00    +0.000 A 
ATOM     16  C   UNL     1       1.072   3.378  19.995  0.00  0.00    +0.000 C 
ENDBRANCH   7   9
ENDBRANCH   4   5
ENDBRANCH   1   4
BRANCH   1  17
ATOM     17  C   UNL     1      -0.387   9.099  21.338  0.00  0.00    +0.000 C 
BRANCH  17  18
ATOM     18  C   UNL     1      -0.135  10.410  22.145  0.00  0.00    +0.000 C 
BRANCH  18  19
ATOM     19  C   UNL     1      -1.280  11.411  22.181  0.00  0.00    +0.000 A 
ATOM     20  C   UNL     1      -2.042  11.550  23.354  0.00  0.00    +0.000 A 
ATOM     21  C   UNL     1      -3.082  12.479  23.443  0.00  0.00    +0.000 A 
ATOM     22  C   UNL     1      -3.375  13.314  22.366  0.00  0.00    +0.000 A 
ATOM     23  C   UNL     1      -4.505  14.297  22.441  0.00  0.00    +0.000 C 
ATOM     24  C   UNL     1      -2.596  13.220  21.209  0.00  0.00    +0.000 A 
ATOM     25  C   UNL     1      -1.557  12.284  21.119  0.00  0.00    +0.000 A 
ENDBRANCH  18  19
BRANCH  18  26
ATOM     26  O   UNL     1       0.223  10.060  23.491  0.00  0.00    +0.000 OA
ATOM     27  H   UNL     1      -0.090   9.149  23.625  0.00  0.00    +0.000 HD
ENDBRANCH  18  26
ENDBRANCH  17  18
ENDBRANCH   1  17
TORSDOF 8
ENDMDL
MODEL 8
REMARK VINA RESULT:      -6.4      2.703      5.858
REMARK  Name = 
REMARK  13 active torsions:
REMARK  status: ('A' for Active; 'I' for Inactive)
REMARK    1  A    between atoms: C_1  and  C_2
REMARK    2  A    between atoms: C_2  and  N_3
REMARK    3  A    between atoms: N_3  and  C_4
REMARK    4  A    between atoms: N_3  and  C_16
REMARK    5  A    between atoms: C_4  and  C_5
REMARK    6  A    between atoms: N_7  and  C_8
REMARK    7  A    between atoms: C_9  and  C_10
REMARK    8  A    between atoms: N_12  and  C_13
REMARK    9  A    between atoms: C_14  and  C_15
REMARK   10  A    between atoms: C_16  and  C_17
REMARK   11  A    between atoms: C_17  and  O_18
REMARK   12  A    between atoms: C_17  and  C_19
REMARK   13  A    between atoms: C_22  and  C_23
REMARK                            x       y       z     vdW  Elec       q    Type
REMARK                         _______ _______ _______ _____ _____    ______ ____
ROOT
ATOM      1  N   UNL     1       2.515   2.911  19.497  0.00  0.00    +0.000 NA
ENDROOT
BRANCH   1   3
ATOM      2  C   UNL     1       1.260   2.267  21.607  0.00  0.00    +0.000 C 
ATOM      3  C   UNL     1       1.581   1.965  20.144  0.00  0.00    +0.000 C 
ENDBRANCH   1   3
BRANCH   1   4
ATOM      4  C   UNL     1       3.015   2.444  18.178  0.00  0.00    +0.000 C 
BRANCH   4   5
ATOM      5  C   UNL     1       3.778   3.531  17.410  0.00  0.00    +0.000 C 
ATOM      6  O   UNL     1       3.230   4.258  16.578  0.00  0.00    +0.000 OA
ATOM      7  N   UNL     1       5.121   3.606  17.727  0.00  0.00    +0.000 N 
ATOM      8  H   UNL     1       5.583   2.744  17.986  0.00  0.00    +0.000 HD
BRANCH   7   9
ATOM      9  C   UNL     1       5.915   4.587  17.151  0.00  0.00    +0.000 A 
ATOM     10  C   UNL     1       6.494   4.666  15.854  0.00  0.00    +0.000 A 
ATOM     11  C   UNL     1       6.320   3.774  14.681  0.00  0.00    +0.000 C 
ATOM     12  N   UNL     1       7.244   5.766  15.727  0.00  0.00    +0.000 NA
ATOM     13  N   UNL     1       7.175   6.355  16.932  0.00  0.00    +0.000 N 
ATOM     14  C   UNL     1       8.008   7.506  17.186  0.00  0.00    +0.000 C 
ATOM     15  C   UNL     1       6.318   5.731  17.803  0.00  0.00    +0.000 A 
ATOM     16  C   UNL     1       6.053   6.195  19.188  0.00  0.00    +0.000 C 
ENDBRANCH   7   9
ENDBRANCH   4   5
ENDBRANCH   1   4
BRANCH   1  17
ATOM     17  C   UNL     1       1.874   4.256  19.402  0.00  0.00    +0.000 C 
BRANCH  17  18
ATOM     18  C   UNL     1       2.651   5.421  20.090  0.00  0.00    +0.000 C 
BRANCH  18  19
ATOM     19  C   UNL     1       2.226   6.832  19.710  0.00  0.00    +0.000 A 
ATOM     20  C   UNL     1       2.396   7.274  18.387  0.00  0.00    +0.000 A 
ATOM     21  C   UNL     1       1.990   8.549  17.986  0.00  0.00    +0.000 A 
ATOM     22  C   UNL     1       1.378   9.413  18.894  0.00  0.00    +0.000 A 
ATOM     23  C   UNL     1       0.961  10.792  18.481  0.00  0.00    +0.000 C 
ATOM     24  C   UNL     1       1.160   8.970  20.202  0.00  0.00    +0.000 A 
ATOM     25  C   UNL     1       1.573   7.693  20.604  0.00  0.00    +0.000 A 
ENDBRANCH  18  19
BRANCH  18  26
ATOM     26  O   UNL     1       2.546   5.268  21.514  0.00  0.00    +0.000 OA
ATOM     27  H   UNL     1       2.125   4.403  21.661  0.00  0.00    +0.000 HD
ENDBRANCH  18  26
ENDBRANCH  17  18
ENDBRANCH   1  17
TORSDOF 8
ENDMDL
MODEL 9
REMARK VINA RESULT:      -6.4      2.467      4.289
REMARK  Name = 
REMARK  13 active torsions:
REMARK  status: ('A' for Active; 'I' for Inactive)
REMARK    1  A    between atoms: C_1  and  C_2
REMARK    2  A    between atoms: C_2  and  N_3
REMARK    3  A    between atoms: N_3  and  C_4
REMARK    4  A    between atoms: N_3  and  C_16
REMARK    5  A    between atoms: C_4  and  C_5
REMARK    6  A    between atoms: N_7  and  C_8
REMARK    7  A    between atoms: C_9  and  C_10
REMARK    8  A    between atoms: N_12  and  C_13
REMARK    9  A    between atoms: C_14  and  C_15
REMARK   10  A    between atoms: C_16  and  C_17
REMARK   11  A    between atoms: C_17  and  O_18
REMARK   12  A    between atoms: C_17  and  C_19
REMARK   13  A    between atoms: C_22  and  C_23
REMARK                            x       y       z     vdW  Elec       q    Type
REMARK                         _______ _______ _______ _____ _____    ______ ____
ROOT
ATOM      1  N   UNL     1       2.029   7.942  19.843  0.00  0.00    +0.000 NA
ENDROOT
BRANCH   1   3
ATOM      2  C   UNL     1       2.031   9.615  17.936  0.00  0.00    +0.000 C 
ATOM      3  C   UNL     1       1.502   8.301  18.509  0.00  0.00    +0.000 C 
ENDBRANCH   1   3
BRANCH   1   4
ATOM      4  C   UNL     1       1.028   8.078  20.933  0.00  0.00    +0.000 C 
BRANCH   4   5
ATOM      5  C   UNL     1       1.005   9.482  21.550  0.00  0.00    +0.000 C 
ATOM      6  O   UNL     1       1.708   9.790  22.515  0.00  0.00    +0.000 OA
ATOM      7  N   UNL     1       0.123  10.352  20.936  0.00  0.00    +0.000 N 
ATOM      8  H   UNL     1      -0.719   9.953  20.543  0.00  0.00    +0.000 HD
BRANCH   7   9
ATOM      9  C   UNL     1       0.048  11.672  21.355  0.00  0.00    +0.000 A 
ATOM     10  C   UNL     1       0.805  12.811  20.966  0.00  0.00    +0.000 A 
ATOM     11  C   UNL     1       1.826  12.953  19.898  0.00  0.00    +0.000 C 
ATOM     12  N   UNL     1       0.445  13.893  21.665  0.00  0.00    +0.000 NA
ATOM     13  N   UNL     1      -0.495  13.441  22.511  0.00  0.00    +0.000 N 
ATOM     14  C   UNL     1      -0.994  14.335  23.529  0.00  0.00    +0.000 C 
ATOM     15  C   UNL     1      -0.834  12.127  22.310  0.00  0.00    +0.000 A 
ATOM     16  C   UNL     1      -1.857  11.399  23.101  0.00  0.00    +0.000 C 
ENDBRANCH   7   9
ENDBRANCH   4   5
ENDBRANCH   1   4
BRANCH   1  17
ATOM     17  C   UNL     1       2.612   6.569  19.795  0.00  0.00    +0.000 C 
BRANCH  17  18
ATOM     18  C   UNL     1       2.367   5.780  18.471  0.00  0.00    +0.000 C 
BRANCH  18  19
ATOM     19  C   UNL     1       3.588   5.531  17.598  0.00  0.00    +0.000 A 
ATOM     20  C   UNL     1       3.869   4.226  17.157  0.00  0.00    +0.000 A 
ATOM     21  C   UNL     1       4.961   3.955  16.328  0.00  0.00    +0.000 A 
ATOM     22  C   UNL     1       5.792   4.989  15.896  0.00  0.00    +0.000 A 
ATOM     23  C   UNL     1       6.980   4.707  15.027  0.00  0.00    +0.000 C 
ATOM     24  C   UNL     1       5.497   6.298  16.288  0.00  0.00    +0.000 A 
ATOM     25  C   UNL     1       4.406   6.567  17.124  0.00  0.00    +0.000 A 
ENDBRANCH  18  19
BRANCH  18  26
ATOM     26  O   UNL     1       1.756   4.521  18.792  0.00  0.00    +0.000 OA
ATOM     27  H   UNL     1       2.487   3.903  18.966  0.00  0.00    +0.000 HD
ENDBRANCH  18  26
ENDBRANCH  17  18
ENDBRANCH   1  17
TORSDOF 8
ENDMDL
