MODEL 1
REMARK VINA RESULT:      -8.1      0.000      0.000
REMARK  Name = 
REMARK  6 active torsions:
REMARK  status: ('A' for Active; 'I' for Inactive)
REMARK    1  A    between atoms: C_2  and  O_3
REMARK    2  A    between atoms: C_2  and  C_4
REMARK    3  A    between atoms: C_4  and  N_5
REMARK    4  A    between atoms: N_16  and  C_17
REMARK    5  A    between atoms: C_17  and  C_18
REMARK    6  A    between atoms: C_19  and  C_20
REMARK                            x       y       z     vdW  Elec       q    Type
REMARK                         _______ _______ _______ _____ _____    ______ ____
ROOT
ATOM      1  C   UNL     1       5.127   4.668  17.316  0.00  0.00    +0.000 C 
ATOM      2  C   UNL     1       4.718   6.157  17.175  0.00  0.00    +0.000 C 
ATOM      3  C   UNL     1       5.859   7.064  16.741  0.00  0.00    +0.000 C 
ATOM      4  N   UNL     1       6.960   6.976  17.703  0.00  0.00    +0.000 NA
ATOM      5  C   UNL     1       7.485   5.607  17.765  0.00  0.00    +0.000 C 
ATOM      6  C   UNL     1       6.401   4.613  18.200  0.00  0.00    +0.000 C 
ENDROOT
BRANCH   1   7
ATOM      7  N   UNL     1       4.045   3.870  17.940  0.00  0.00    +0.000 N 
ATOM      8  C   UNL     1       3.710   2.575  17.617  0.00  0.00    +0.000 A 
ATOM      9  N   UNL     1       2.675   2.141  18.291  0.00  0.00    +0.000 NA
ATOM     10  C   UNL     1       2.302   3.185  19.087  0.00  0.00    +0.000 A 
ATOM     11  C   UNL     1       1.223   3.265  19.980  0.00  0.00    +0.000 A 
ATOM     12  C   UNL     1       1.038   4.440  20.708  0.00  0.00    +0.000 A 
ATOM     13  C   UNL     1       1.925   5.507  20.569  0.00  0.00    +0.000 A 
ATOM     14  C   UNL     1       3.011   5.445  19.683  0.00  0.00    +0.000 A 
ATOM     15  C   UNL     1       3.163   4.272  18.928  0.00  0.00    +0.000 A 
ENDBRANCH   1   7
BRANCH   1  17
ATOM     16  O   UNL     1       4.912   4.516  14.880  0.00  0.00    +0.000 OA
ATOM     17  C   UNL     1       5.426   4.105  15.913  0.00  0.00    +0.000 C 
BRANCH  17  18
ATOM     18  O   UNL     1       6.311   3.079  15.872  0.00  0.00    +0.000 OA
ATOM     19  H   UNL     1       6.742   2.911  15.011  0.00  0.00    +0.000 HD
ENDBRANCH  17  18
ENDBRANCH   1  17
BRANCH   4  20
ATOM     20  C   UNL     1       8.043   7.914  17.357  0.00  0.00    +0.000 C 
BRANCH  20  21
ATOM     21  C   UNL     1       8.227   8.969  18.410  0.00  0.00    +0.000 C 
ATOM     22  C   UNL     1       9.012  10.048  18.258  0.00  0.00    +0.000 C 
BRANCH  22  23
ATOM     23  C   UNL     1       9.145  11.014  19.292  0.00  0.00    +0.000 A 
ATOM     24  C   UNL     1       9.382  10.805  20.647  0.00  0.00    +0.000 A 
ATOM     25  C   UNL     1       9.411  12.067  21.287  0.00  0.00    +0.000 A 
ATOM     26  C   UNL     1       9.203  12.991  20.297  0.00  0.00    +0.000 A 
ATOM     27  O   UNL     1       9.048  12.376  19.101  0.00  0.00    +0.000 OA
ENDBRANCH  22  23
ENDBRANCH  20  21
ENDBRANCH   4  20
TORSDOF 6
ENDMDL
MODEL 2
REMARK VINA RESULT:      -8.1      1.288      1.485
REMARK  Name = 
REMARK  6 active torsions:
REMARK  status: ('A' for Active; 'I' for Inactive)
REMARK    1  A    between atoms: C_2  and  O_3
REMARK    2  A    between atoms: C_2  and  C_4
REMARK    3  A    between atoms: C_4  and  N_5
REMARK    4  A    between atoms: N_16  and  C_17
REMARK    5  A    between atoms: C_17  and  C_18
REMARK    6  A    between atoms: C_19  and  C_20
REMARK                            x       y       z     vdW  Elec       q    Type
REMARK                         _______ _______ _______ _____ _____    ______ ____
ROOT
ATOM      1  C   UNL     1       5.360   4.831  17.812  0.00  0.00    +0.000 C 
ATOM      2  C   UNL     1       4.767   6.264  17.812  0.00  0.00    +0.000 C 
ATOM      3  C   UNL     1       5.672   7.299  17.163  0.00  0.00    +0.000 C 
ATOM      4  N   UNL     1       6.963   7.334  17.854  0.00  0.00    +0.000 NA
ATOM      5  C   UNL     1       7.639   6.034  17.754  0.00  0.00    +0.000 C 
ATOM      6  C   UNL     1       6.798   4.920  18.388  0.00  0.00    +0.000 C 
ENDROOT
BRANCH   1   7
ATOM      7  N   UNL     1       4.542   3.910  18.636  0.00  0.00    +0.000 N 
ATOM      8  C   UNL     1       5.011   3.094  19.639  0.00  0.00    +0.000 A 
ATOM      9  N   UNL     1       4.071   2.345  20.158  0.00  0.00    +0.000 NA
ATOM     10  C   UNL     1       2.935   2.668  19.473  0.00  0.00    +0.000 A 
ATOM     11  C   UNL     1       1.648   2.128  19.606  0.00  0.00    +0.000 A 
ATOM     12  C   UNL     1       0.623   2.625  18.800  0.00  0.00    +0.000 A 
ATOM     13  C   UNL     1       0.870   3.658  17.897  0.00  0.00    +0.000 A 
ATOM     14  C   UNL     1       2.151   4.212  17.751  0.00  0.00    +0.000 A 
ATOM     15  C   UNL     1       3.180   3.677  18.540  0.00  0.00    +0.000 A 
ENDBRANCH   1   7
BRANCH   1  17
ATOM     16  O   UNL     1       5.113   4.989  15.379  0.00  0.00    +0.000 OA
ATOM     17  C   UNL     1       5.397   4.313  16.361  0.00  0.00    +0.000 C 
BRANCH  17  18
ATOM     18  O   UNL     1       5.762   3.016  16.213  0.00  0.00    +0.000 OA
ATOM     19  H   UNL     1       6.388   2.821  15.488  0.00  0.00    +0.000 HD
ENDBRANCH  17  18
ENDBRANCH   1  17
BRANCH   4  20
ATOM     20  C   UNL     1       7.829   8.392  17.305  0.00  0.00    +0.000 C 
BRANCH  20  21
ATOM     21  C   UNL     1       8.498   9.187  18.389  0.00  0.00    +0.000 C 
ATOM     22  C   UNL     1       9.113  10.363  18.185  0.00  0.00    +0.000 C 
BRANCH  22  23
ATOM     23  C   UNL     1       9.728  11.070  19.254  0.00  0.00    +0.000 A 
ATOM     24  C   UNL     1      11.032  11.546  19.340  0.00  0.00    +0.000 A 
ATOM     25  C   UNL     1      11.191  12.162  20.605  0.00  0.00    +0.000 A 
ATOM     26  C   UNL     1       9.976  12.047  21.229  0.00  0.00    +0.000 A 
ATOM     27  O   UNL     1       9.093  11.402  20.432  0.00  0.00    +0.000 OA
ENDBRANCH  22  23
ENDBRANCH  20  21
ENDBRANCH   4  20
TORSDOF 6
ENDMDL
MODEL 3
REMARK VINA RESULT:      -8.1      1.194      1.511
REMARK  Name = 
REMARK  6 active torsions:
REMARK  status: ('A' for Active; 'I' for Inactive)
REMARK    1  A    between atoms: C_2  and  O_3
REMARK    2  A    between atoms: C_2  and  C_4
REMARK    3  A    between atoms: C_4  and  N_5
REMARK    4  A    between atoms: N_16  and  C_17
REMARK    5  A    between atoms: C_17  and  C_18
REMARK    6  A    between atoms: C_19  and  C_20
REMARK                            x       y       z     vdW  Elec       q    Type
REMARK                         _______ _______ _______ _____ _____    ______ ____
ROOT
ATOM      1  C   UNL     1       5.146   4.942  17.278  0.00  0.00    +0.000 C 
ATOM      2  C   UNL     1       4.974   6.482  17.332  0.00  0.00    +0.000 C 
ATOM      3  C   UNL     1       6.286   7.246  17.241  0.00  0.00    +0.000 C 
ATOM      4  N   UNL     1       7.174   6.842  18.333  0.00  0.00    +0.000 NA
ATOM      5  C   UNL     1       7.491   5.412  18.239  0.00  0.00    +0.000 C 
ATOM      6  C   UNL     1       6.223   4.554  18.326  0.00  0.00    +0.000 C 
ENDROOT
BRANCH   1   7
ATOM      7  N   UNL     1       3.872   4.247  17.581  0.00  0.00    +0.000 N 
ATOM      8  C   UNL     1       3.216   3.369  16.750  0.00  0.00    +0.000 A 
ATOM      9  N   UNL     1       2.083   2.951  17.255  0.00  0.00    +0.000 NA
ATOM     10  C   UNL     1       1.976   3.577  18.463  0.00  0.00    +0.000 A 
ATOM     11  C   UNL     1       0.930   3.512  19.395  0.00  0.00    +0.000 A 
ATOM     12  C   UNL     1       1.041   4.235  20.583  0.00  0.00    +0.000 A 
ATOM     13  C   UNL     1       2.183   4.989  20.849  0.00  0.00    +0.000 A 
ATOM     14  C   UNL     1       3.240   5.065  19.930  0.00  0.00    +0.000 A 
ATOM     15  C   UNL     1       3.099   4.365  18.723  0.00  0.00    +0.000 A 
ENDBRANCH   1   7
BRANCH   1  17
ATOM     16  O   UNL     1       6.304   3.570  15.610  0.00  0.00    +0.000 OA
ATOM     17  C   UNL     1       5.612   4.548  15.863  0.00  0.00    +0.000 C 
BRANCH  17  18
ATOM     18  O   UNL     1       5.215   5.378  14.866  0.00  0.00    +0.000 OA
ATOM     19  H   UNL     1       4.251   5.489  14.751  0.00  0.00    +0.000 HD
ENDBRANCH  17  18
ENDBRANCH   1  17
BRANCH   4  20
ATOM     20  C   UNL     1       8.418   7.632  18.324  0.00  0.00    +0.000 C 
BRANCH  20  21
ATOM     21  C   UNL     1       8.154   9.089  18.070  0.00  0.00    +0.000 C 
ATOM     22  C   UNL     1       9.018  10.070  18.374  0.00  0.00    +0.000 C 
BRANCH  22  23
ATOM     23  C   UNL     1       8.711  11.432  18.108  0.00  0.00    +0.000 A 
ATOM     24  C   UNL     1       9.317  12.574  18.623  0.00  0.00    +0.000 A 
ATOM     25  C   UNL     1       8.653  13.703  18.087  0.00  0.00    +0.000 A 
ATOM     26  C   UNL     1       7.681  13.204  17.259  0.00  0.00    +0.000 A 
ATOM     27  O   UNL     1       7.708  11.851  17.259  0.00  0.00    +0.000 OA
ENDBRANCH  22  23
ENDBRANCH  20  21
ENDBRANCH   4  20
TORSDOF 6
ENDMDL
MODEL 4
REMARK VINA RESULT:      -7.9      1.112      1.193
REMARK  Name = 
REMARK  6 active torsions:
REMARK  status: ('A' for Active; 'I' for Inactive)
REMARK    1  A    between atoms: C_2  and  O_3
REMARK    2  A    between atoms: C_2  and  C_4
REMARK    3  A    between atoms: C_4  and  N_5
REMARK    4  A    between atoms: N_16  and  C_17
REMARK    5  A    between atoms: C_17  and  C_18
REMARK    6  A    between atoms: C_19  and  C_20
REMARK                            x       y       z     vdW  Elec       q    Type
REMARK                         _______ _______ _______ _____ _____    ______ ____
ROOT
ATOM      1  C   UNL     1       5.939   5.085  18.070  0.00  0.00    +0.000 C 
ATOM      2  C   UNL     1       5.298   6.323  17.392  0.00  0.00    +0.000 C 
ATOM      3  C   UNL     1       6.314   7.313  16.843  0.00  0.00    +0.000 C 
ATOM      4  N   UNL     1       7.188   7.778  17.922  0.00  0.00    +0.000 NA
ATOM      5  C   UNL     1       7.935   6.656  18.503  0.00  0.00    +0.000 C 
ATOM      6  C   UNL     1       6.990   5.601  19.089  0.00  0.00    +0.000 C 
ENDROOT
BRANCH   1   7
ATOM      7  N   UNL     1       4.919   4.266  18.768  0.00  0.00    +0.000 N 
ATOM      8  C   UNL     1       4.939   2.896  18.900  0.00  0.00    +0.000 A 
ATOM      9  N   UNL     1       3.879   2.436  19.515  0.00  0.00    +0.000 NA
ATOM     10  C   UNL     1       3.123   3.536  19.799  0.00  0.00    +0.000 A 
ATOM     11  C   UNL     1       1.865   3.600  20.418  0.00  0.00    +0.000 A 
ATOM     12  C   UNL     1       1.278   4.849  20.620  0.00  0.00    +0.000 A 
ATOM     13  C   UNL     1       1.941   6.015  20.236  0.00  0.00    +0.000 A 
ATOM     14  C   UNL     1       3.199   5.971  19.618  0.00  0.00    +0.000 A 
ATOM     15  C   UNL     1       3.762   4.707  19.385  0.00  0.00    +0.000 A 
ENDBRANCH   1   7
BRANCH   1  17
ATOM     16  O   UNL     1       6.049   3.773  16.004  0.00  0.00    +0.000 OA
ATOM     17  C   UNL     1       6.621   4.228  16.987  0.00  0.00    +0.000 C 
BRANCH  17  18
ATOM     18  O   UNL     1       7.939   3.977  17.185  0.00  0.00    +0.000 OA
ATOM     19  H   UNL     1       8.502   4.749  17.389  0.00  0.00    +0.000 HD
ENDBRANCH  17  18
ENDBRANCH   1  17
BRANCH   4  20
ATOM     20  C   UNL     1       8.125   8.808  17.438  0.00  0.00    +0.000 C 
BRANCH  20  21
ATOM     21  C   UNL     1       8.572   9.722  18.543  0.00  0.00    +0.000 C 
ATOM     22  C   UNL     1       9.257  10.859  18.342  0.00  0.00    +0.000 C 
BRANCH  22  23
ATOM     23  C   UNL     1       9.652  11.684  19.430  0.00  0.00    +0.000 A 
ATOM     24  C   UNL     1       9.510  11.446  20.794  0.00  0.00    +0.000 A 
ATOM     25  C   UNL     1      10.028  12.563  21.490  0.00  0.00    +0.000 A 
ATOM     26  C   UNL     1      10.475  13.428  20.526  0.00  0.00    +0.000 A 
ATOM     27  O   UNL     1      10.261  12.913  19.292  0.00  0.00    +0.000 OA
ENDBRANCH  22  23
ENDBRANCH  20  21
ENDBRANCH   4  20
TORSDOF 6
ENDMDL
MODEL 5
REMARK VINA RESULT:      -7.7      1.346      1.526
REMARK  Name = 
REMARK  6 active torsions:
REMARK  status: ('A' for Active; 'I' for Inactive)
REMARK    1  A    between atoms: C_2  and  O_3
REMARK    2  A    between atoms: C_2  and  C_4
REMARK    3  A    between atoms: C_4  and  N_5
REMARK    4  A    between atoms: N_16  and  C_17
REMARK    5  A    between atoms: C_17  and  C_18
REMARK    6  A    between atoms: C_19  and  C_20
REMARK                            x       y       z     vdW  Elec       q    Type
REMARK                         _______ _______ _______ _____ _____    ______ ____
ROOT
ATOM      1  C   UNL     1       5.954   5.006  18.041  0.00  0.00    +0.000 C 
ATOM      2  C   UNL     1       5.271   6.279  17.477  0.00  0.00    +0.000 C 
ATOM      3  C   UNL     1       6.250   7.298  16.915  0.00  0.00    +0.000 C 
ATOM      4  N   UNL     1       7.198   7.704  17.955  0.00  0.00    +0.000 NA
ATOM      5  C   UNL     1       7.981   6.553  18.420  0.00  0.00    +0.000 C 
ATOM      6  C   UNL     1       7.075   5.466  19.011  0.00  0.00    +0.000 C 
ENDROOT
BRANCH   1   7
ATOM      7  N   UNL     1       4.983   4.149  18.761  0.00  0.00    +0.000 N 
ATOM      8  C   UNL     1       5.280   3.279  19.785  0.00  0.00    +0.000 A 
ATOM      9  N   UNL     1       4.233   2.609  20.195  0.00  0.00    +0.000 NA
ATOM     10  C   UNL     1       3.201   3.042  19.413  0.00  0.00    +0.000 A 
ATOM     11  C   UNL     1       1.865   2.616  19.410  0.00  0.00    +0.000 A 
ATOM     12  C   UNL     1       0.970   3.214  18.522  0.00  0.00    +0.000 A 
ATOM     13  C   UNL     1       1.392   4.235  17.670  0.00  0.00    +0.000 A 
ATOM     14  C   UNL     1       2.724   4.675  17.661  0.00  0.00    +0.000 A 
ATOM     15  C   UNL     1       3.622   4.039  18.531  0.00  0.00    +0.000 A 
ENDBRANCH   1   7
BRANCH   1  17
ATOM     16  O   UNL     1       5.906   3.754  15.935  0.00  0.00    +0.000 OA
ATOM     17  C   UNL     1       6.557   4.210  16.868  0.00  0.00    +0.000 C 
BRANCH  17  18
ATOM     18  O   UNL     1       7.898   4.017  16.921  0.00  0.00    +0.000 OA
ATOM     19  H   UNL     1       8.441   4.575  16.331  0.00  0.00    +0.000 HD
ENDBRANCH  17  18
ENDBRANCH   1  17
BRANCH   4  20
ATOM     20  C   UNL     1       8.102   8.759  17.465  0.00  0.00    +0.000 C 
BRANCH  20  21
ATOM     21  C   UNL     1       8.451   9.744  18.544  0.00  0.00    +0.000 C 
ATOM     22  C   UNL     1       9.155  10.868  18.333  0.00  0.00    +0.000 C 
BRANCH  22  23
ATOM     23  C   UNL     1       9.452  11.762  19.396  0.00  0.00    +0.000 A 
ATOM     24  C   UNL     1       9.960  11.469  20.658  0.00  0.00    +0.000 A 
ATOM     25  C   UNL     1      10.066  12.681  21.381  0.00  0.00    +0.000 A 
ATOM     26  C   UNL     1       9.631  13.662  20.528  0.00  0.00    +0.000 A 
ATOM     27  O   UNL     1       9.267  13.127  19.339  0.00  0.00    +0.000 OA
ENDBRANCH  22  23
ENDBRANCH  20  21
ENDBRANCH   4  20
TORSDOF 6
ENDMDL
MODEL 6
REMARK VINA RESULT:      -7.6      4.550      6.924
REMARK  Name = 
REMARK  6 active torsions:
REMARK  status: ('A' for Active; 'I' for Inactive)
REMARK    1  A    between atoms: C_2  and  O_3
REMARK    2  A    between atoms: C_2  and  C_4
REMARK    3  A    between atoms: C_4  and  N_5
REMARK    4  A    between atoms: N_16  and  C_17
REMARK    5  A    between atoms: C_17  and  C_18
REMARK    6  A    between atoms: C_19  and  C_20
REMARK                            x       y       z     vdW  Elec       q    Type
REMARK                         _______ _______ _______ _____ _____    ______ ____
ROOT
ATOM      1  C   UNL     1       3.288   5.759  18.586  0.00  0.00    +0.000 C 
ATOM      2  C   UNL     1       3.755   6.437  17.271  0.00  0.00    +0.000 C 
ATOM      3  C   UNL     1       4.740   5.600  16.469  0.00  0.00    +0.000 C 
ATOM      4  N   UNL     1       5.922   5.308  17.283  0.00  0.00    +0.000 NA
ATOM      5  C   UNL     1       5.553   4.532  18.473  0.00  0.00    +0.000 C 
ATOM      6  C   UNL     1       4.558   5.300  19.352  0.00  0.00    +0.000 C 
ENDROOT
BRANCH   1   7
ATOM      7  N   UNL     1       2.503   6.695  19.425  0.00  0.00    +0.000 N 
ATOM      8  C   UNL     1       2.004   6.428  20.678  0.00  0.00    +0.000 A 
ATOM      9  N   UNL     1       1.300   7.421  21.160  0.00  0.00    +0.000 NA
ATOM     10  C   UNL     1       1.324   8.382  20.192  0.00  0.00    +0.000 A 
ATOM     11  C   UNL     1       0.692   9.634  20.182  0.00  0.00    +0.000 A 
ATOM     12  C   UNL     1       0.868  10.468  19.078  0.00  0.00    +0.000 A 
ATOM     13  C   UNL     1       1.680  10.074  18.015  0.00  0.00    +0.000 A 
ATOM     14  C   UNL     1       2.322   8.827  18.007  0.00  0.00    +0.000 A 
ATOM     15  C   UNL     1       2.105   7.982  19.106  0.00  0.00    +0.000 A 
ENDBRANCH   1   7
BRANCH   1  17
ATOM     16  O   UNL     1       1.450   4.583  17.471  0.00  0.00    +0.000 OA
ATOM     17  C   UNL     1       2.412   4.543  18.229  0.00  0.00    +0.000 C 
BRANCH  17  18
ATOM     18  O   UNL     1       2.759   3.377  18.827  0.00  0.00    +0.000 OA
ATOM     19  H   UNL     1       2.730   3.365  19.804  0.00  0.00    +0.000 HD
ENDBRANCH  17  18
ENDBRANCH   1  17
BRANCH   4  20
ATOM     20  C   UNL     1       6.935   4.576  16.502  0.00  0.00    +0.000 C 
BRANCH  20  21
ATOM     21  C   UNL     1       6.336   3.904  15.299  0.00  0.00    +0.000 C 
ATOM     22  C   UNL     1       6.614   4.250  14.032  0.00  0.00    +0.000 C 
BRANCH  22  23
ATOM     23  C   UNL     1       6.015   3.573  12.935  0.00  0.00    +0.000 A 
ATOM     24  C   UNL     1       4.751   3.765  12.385  0.00  0.00    +0.000 A 
ATOM     25  C   UNL     1       4.591   2.842  11.323  0.00  0.00    +0.000 A 
ATOM     26  C   UNL     1       5.765   2.138  11.262  0.00  0.00    +0.000 A 
ATOM     27  O   UNL     1       6.625   2.568  12.215  0.00  0.00    +0.000 OA
ENDBRANCH  22  23
ENDBRANCH  20  21
ENDBRANCH   4  20
TORSDOF 6
ENDMDL
MODEL 7
REMARK VINA RESULT:      -7.6      1.310      1.487
REMARK  Name = 
REMARK  6 active torsions:
REMARK  status: ('A' for Active; 'I' for Inactive)
REMARK    1  A    between atoms: C_2  and  O_3
REMARK    2  A    between atoms: C_2  and  C_4
REMARK    3  A    between atoms: C_4  and  N_5
REMARK    4  A    between atoms: N_16  and  C_17
REMARK    5  A    between atoms: C_17  and  C_18
REMARK    6  A    between atoms: C_19  and  C_20
REMARK                            x       y       z     vdW  Elec       q    Type
REMARK                         _______ _______ _______ _____ _____    ______ ____
ROOT
ATOM      1  C   UNL     1       5.324   4.605  18.271  0.00  0.00    +0.000 C 
ATOM      2  C   UNL     1       4.706   6.027  18.254  0.00  0.00    +0.000 C 
ATOM      3  C   UNL     1       5.517   7.035  17.455  0.00  0.00    +0.000 C 
ATOM      4  N   UNL     1       6.873   7.127  17.999  0.00  0.00    +0.000 NA
ATOM      5  C   UNL     1       7.560   5.834  17.901  0.00  0.00    +0.000 C 
ATOM      6  C   UNL     1       6.814   4.746  18.683  0.00  0.00    +0.000 C 
ENDROOT
BRANCH   1   7
ATOM      7  N   UNL     1       4.617   3.722  19.228  0.00  0.00    +0.000 N 
ATOM      8  C   UNL     1       5.143   2.605  19.834  0.00  0.00    +0.000 A 
ATOM      9  N   UNL     1       4.272   1.985  20.589  0.00  0.00    +0.000 NA
ATOM     10  C   UNL     1       3.121   2.710  20.478  0.00  0.00    +0.000 A 
ATOM     11  C   UNL     1       1.867   2.459  21.054  0.00  0.00    +0.000 A 
ATOM     12  C   UNL     1       0.823   3.353  20.811  0.00  0.00    +0.000 A 
ATOM     13  C   UNL     1       1.031   4.489  20.030  0.00  0.00    +0.000 A 
ATOM     14  C   UNL     1       2.279   4.759  19.448  0.00  0.00    +0.000 A 
ATOM     15  C   UNL     1       3.309   3.832  19.668  0.00  0.00    +0.000 A 
ENDBRANCH   1   7
BRANCH   1  17
ATOM     16  O   UNL     1       6.176   3.649  16.181  0.00  0.00    +0.000 OA
ATOM     17  C   UNL     1       5.217   4.005  16.855  0.00  0.00    +0.000 C 
BRANCH  17  18
ATOM     18  O   UNL     1       3.959   3.896  16.362  0.00  0.00    +0.000 OA
ATOM     19  H   UNL     1       3.230   4.065  16.990  0.00  0.00    +0.000 HD
ENDBRANCH  17  18
ENDBRANCH   1  17
BRANCH   4  20
ATOM     20  C   UNL     1       7.655   8.164  17.302  0.00  0.00    +0.000 C 
BRANCH  20  21
ATOM     21  C   UNL     1       8.521   8.944  18.248  0.00  0.00    +0.000 C 
ATOM     22  C   UNL     1       8.652  10.280  18.215  0.00  0.00    +0.000 C 
BRANCH  22  23
ATOM     23  C   UNL     1       9.488  10.962  19.141  0.00  0.00    +0.000 A 
ATOM     24  C   UNL     1      10.809  11.367  18.979  0.00  0.00    +0.000 A 
ATOM     25  C   UNL     1      11.229  11.986  20.181  0.00  0.00    +0.000 A 
ATOM     26  C   UNL     1      10.145  11.944  21.018  0.00  0.00    +0.000 A 
ATOM     27  O   UNL     1       9.098  11.340  20.408  0.00  0.00    +0.000 OA
ENDBRANCH  22  23
ENDBRANCH  20  21
ENDBRANCH   4  20
TORSDOF 6
ENDMDL
MODEL 8
REMARK VINA RESULT:      -7.5      4.840      7.687
REMARK  Name = 
REMARK  6 active torsions:
REMARK  status: ('A' for Active; 'I' for Inactive)
REMARK    1  A    between atoms: C_2  and  O_3
REMARK    2  A    between atoms: C_2  and  C_4
REMARK    3  A    between atoms: C_4  and  N_5
REMARK    4  A    between atoms: N_16  and  C_17
REMARK    5  A    between atoms: C_17  and  C_18
REMARK    6  A    between atoms: C_19  and  C_20
REMARK                            x       y       z     vdW  Elec       q    Type
REMARK                         _______ _______ _______ _____ _____    ______ ____
ROOT
ATOM      1  C   UNL     1       3.091   6.175  18.681  0.00  0.00    +0.000 C 
ATOM      2  C   UNL     1       2.935   6.717  20.126  0.00  0.00    +0.000 C 
ATOM      3  C   UNL     1       1.709   7.596  20.319  0.00  0.00    +0.000 C 
ATOM      4  N   UNL     1       1.765   8.736  19.402  0.00  0.00    +0.000 NA
ATOM      5  C   UNL     1       1.763   8.279  18.007  0.00  0.00    +0.000 C 
ATOM      6  C   UNL     1       2.972   7.383  17.713  0.00  0.00    +0.000 C 
ENDROOT
BRANCH   1   7
ATOM      7  N   UNL     1       4.400   5.506  18.496  0.00  0.00    +0.000 N 
ATOM      8  C   UNL     1       5.184   4.978  19.496  0.00  0.00    +0.000 A 
ATOM      9  N   UNL     1       6.316   4.499  19.047  0.00  0.00    +0.000 NA
ATOM     10  C   UNL     1       6.290   4.720  17.700  0.00  0.00    +0.000 A 
ATOM     11  C   UNL     1       7.278   4.435  16.746  0.00  0.00    +0.000 A 
ATOM     12  C   UNL     1       7.028   4.739  15.407  0.00  0.00    +0.000 A 
ATOM     13  C   UNL     1       5.808   5.295  15.023  0.00  0.00    +0.000 A 
ATOM     14  C   UNL     1       4.808   5.585  15.963  0.00  0.00    +0.000 A 
ATOM     15  C   UNL     1       5.087   5.310  17.310  0.00  0.00    +0.000 A 
ENDBRANCH   1   7
BRANCH   1  17
ATOM     16  O   UNL     1       1.452   4.972  17.313  0.00  0.00    +0.000 OA
ATOM     17  C   UNL     1       1.962   5.161  18.411  0.00  0.00    +0.000 C 
BRANCH  17  18
ATOM     18  O   UNL     1       1.530   4.467  19.492  0.00  0.00    +0.000 OA
ATOM     19  H   UNL     1       0.675   4.746  19.874  0.00  0.00    +0.000 HD
ENDBRANCH  17  18
ENDBRANCH   1  17
BRANCH   4  20
ATOM     20  C   UNL     1       0.635   9.655  19.629  0.00  0.00    +0.000 C 
BRANCH  20  21
ATOM     21  C   UNL     1      -0.277   9.727  18.439  0.00  0.00    +0.000 C 
ATOM     22  C   UNL     1      -1.392  10.475  18.394  0.00  0.00    +0.000 C 
BRANCH  22  23
ATOM     23  C   UNL     1      -2.215  10.502  17.235  0.00  0.00    +0.000 A 
ATOM     24  C   UNL     1      -2.160   9.679  16.114  0.00  0.00    +0.000 A 
ATOM     25  C   UNL     1      -3.164  10.102  15.211  0.00  0.00    +0.000 A 
ATOM     26  C   UNL     1      -3.796  11.154  15.822  0.00  0.00    +0.000 A 
ATOM     27  O   UNL     1      -3.242  11.399  17.033  0.00  0.00    +0.000 OA
ENDBRANCH  22  23
ENDBRANCH  20  21
ENDBRANCH   4  20
TORSDOF 6
ENDMDL
MODEL 9
REMARK VINA RESULT:      -7.5      4.313      6.687
REMARK  Name = 
REMARK  6 active torsions:
REMARK  status: ('A' for Active; 'I' for Inactive)
REMARK    1  A    between atoms: C_2  and  O_3
REMARK    2  A    between atoms: C_2  and  C_4
REMARK    3  A    between atoms: C_4  and  N_5
REMARK    4  A    between atoms: N_16  and  C_17
REMARK    5  A    between atoms: C_17  and  C_18
REMARK    6  A    between atoms: C_19  and  C_20
REMARK                            x       y       z     vdW  Elec       q    Type
REMARK                         _______ _______ _______ _____ _____    ______ ____
ROOT
ATOM      1  C   UNL     1       4.318   4.535  17.837  0.00  0.00    +0.000 C 
ATOM      2  C   UNL     1       4.609   4.526  19.361  0.00  0.00    +0.000 C 
ATOM      3  C   UNL     1       3.370   4.728  20.219  0.00  0.00    +0.000 C 
ATOM      4  N   UNL     1       2.730   6.000  19.879  0.00  0.00    +0.000 NA
ATOM      5  C   UNL     1       2.298   6.003  18.476  0.00  0.00    +0.000 C 
ATOM      6  C   UNL     1       3.486   5.808  17.527  0.00  0.00    +0.000 C 
ENDROOT
BRANCH   1   7
ATOM      7  N   UNL     1       5.574   4.548  17.050  0.00  0.00    +0.000 N 
ATOM      8  C   UNL     1       6.839   4.744  17.555  0.00  0.00    +0.000 A 
ATOM      9  N   UNL     1       7.755   4.761  16.620  0.00  0.00    +0.000 NA
ATOM     10  C   UNL     1       7.078   4.576  15.450  0.00  0.00    +0.000 A 
ATOM     11  C   UNL     1       7.580   4.551  14.140  0.00  0.00    +0.000 A 
ATOM     12  C   UNL     1       6.694   4.332  13.084  0.00  0.00    +0.000 A 
ATOM     13  C   UNL     1       5.339   4.114  13.330  0.00  0.00    +0.000 A 
ATOM     14  C   UNL     1       4.819   4.133  14.632  0.00  0.00    +0.000 A 
ATOM     15  C   UNL     1       5.713   4.394  15.682  0.00  0.00    +0.000 A 
ENDBRANCH   1   7
BRANCH   1  17
ATOM     16  O   UNL     1       2.412   3.281  16.944  0.00  0.00    +0.000 OA
ATOM     17  C   UNL     1       3.512   3.271  17.483  0.00  0.00    +0.000 C 
BRANCH  17  18
ATOM     18  O   UNL     1       4.094   2.093  17.821  0.00  0.00    +0.000 OA
ATOM     19  H   UNL     1       4.991   1.935  17.467  0.00  0.00    +0.000 HD
ENDBRANCH  17  18
ENDBRANCH   1  17
BRANCH   4  20
ATOM     20  C   UNL     1       1.578   6.265  20.759  0.00  0.00    +0.000 C 
BRANCH  20  21
ATOM     21  C   UNL     1       1.275   7.733  20.858  0.00  0.00    +0.000 C 
ATOM     22  C   UNL     1       0.227   8.238  21.528  0.00  0.00    +0.000 C 
BRANCH  22  23
ATOM     23  C   UNL     1      -0.005   9.639  21.587  0.00  0.00    +0.000 A 
ATOM     24  C   UNL     1      -0.434  10.401  22.670  0.00  0.00    +0.000 A 
ATOM     25  C   UNL     1      -0.545  11.746  22.243  0.00  0.00    +0.000 A 
ATOM     26  C   UNL     1      -0.168  11.749  20.925  0.00  0.00    +0.000 A 
ATOM     27  O   UNL     1       0.161  10.499  20.523  0.00  0.00    +0.000 OA
ENDBRANCH  22  23
ENDBRANCH  20  21
ENDBRANCH   4  20
TORSDOF 6
ENDMDL
