MODEL 1
REMARK VINA RESULT:      -8.4      0.000      0.000
REMARK  Name = 
REMARK  5 active torsions:
REMARK  status: ('A' for Active; 'I' for Inactive)
REMARK    1  A    between atoms: C_1  and  O_2
REMARK    2  A    between atoms: O_2  and  C_3
REMARK    3  A    between atoms: C_6  and  N_7
REMARK    4  A    between atoms: C_11  and  C_13
REMARK    5  A    between atoms: C_17  and  C_18
REMARK                            x       y       z     vdW  Elec       q    Type
REMARK                         _______ _______ _______ _____ _____    ______ ____
ROOT
ATOM      1  N   UNL     1       1.539   8.562  19.753  0.00  0.00    +0.000 N 
ATOM      2  C   UNL     1       1.720   7.645  20.899  0.00  0.00    +0.000 C 
ATOM      3  C   UNL     1       1.654   6.169  20.437  0.00  0.00    +0.000 C 
ATOM      4  N   UNL     1       2.490   5.925  19.252  0.00  0.00    +0.000 N 
ATOM      5  C   UNL     1       3.363   4.843  19.248  0.00  0.00    +0.000 C 
ATOM      6  O   UNL     1       3.398   4.058  20.194  0.00  0.00    +0.000 OA
ATOM      7  C   UNL     1       2.164   6.827  18.137  0.00  0.00    +0.000 C 
ATOM      8  C   UNL     1       2.387   8.278  18.583  0.00  0.00    +0.000 C 
ENDROOT
BRANCH   5   9
ATOM      9  C   UNL     1       4.220   4.636  18.096  0.00  0.00    +0.000 A 
ATOM     10  C   UNL     1       3.948   3.865  16.977  0.00  0.00    +0.000 A 
ATOM     11  C   UNL     1       4.991   4.060  16.033  0.00  0.00    +0.000 A 
ATOM     12  C   UNL     1       5.202   3.636  14.706  0.00  0.00    +0.000 A 
ATOM     13  C   UNL     1       6.336   4.090  14.012  0.00  0.00    +0.000 A 
ATOM     14  C   UNL     1       7.249   4.943  14.650  0.00  0.00    +0.000 A 
ATOM     15  C   UNL     1       7.076   5.344  15.978  0.00  0.00    +0.000 A 
ATOM     16  C   UNL     1       5.937   4.881  16.639  0.00  0.00    +0.000 A 
ATOM     17  N   UNL     1       5.512   5.084  17.930  0.00  0.00    +0.000 N 
ATOM     18  H   UNL     1       6.044   5.581  18.630  0.00  0.00    +0.000 HD
BRANCH  13  19
ATOM     19  C   UNL     1       6.619   3.718  12.595  0.00  0.00    +0.000 C 
ATOM     20  N   UNL     1       6.067   2.571  12.095  0.00  0.00    +0.000 N 
ATOM     21  O   UNL     1       7.328   4.411  11.877  0.00  0.00    +0.000 OA
ATOM     22  H   UNL     1       5.479   1.930  12.604  0.00  0.00    +0.000 HD
ATOM     23  H   UNL     1       6.284   2.346  11.132  0.00  0.00    +0.000 HD
ENDBRANCH  13  19
ENDBRANCH   5   9
BRANCH   1  27
ATOM     24  C   UNL     1      -1.293  11.706  19.779  0.00  0.00    +0.000 A 
ATOM     25  C   UNL     1      -0.838  11.171  18.577  0.00  0.00    +0.000 A 
ATOM     26  C   UNL     1       0.111  10.137  18.569  0.00  0.00    +0.000 A 
ATOM     27  C   UNL     1       0.618   9.588  19.756  0.00  0.00    +0.000 A 
ATOM     28  C   UNL     1       0.131  10.133  20.952  0.00  0.00    +0.000 A 
ATOM     29  C   UNL     1      -0.807  11.165  20.964  0.00  0.00    +0.000 A 
ATOM     30  F   UNL     1      -1.227  11.600  22.161  0.00  0.00    +0.000 F 
BRANCH  24  32
ATOM     31  C   UNL     1      -3.570  12.276  19.565  0.00  0.00    +0.000 C 
ATOM     32  O   UNL     1      -2.216  12.707  19.665  0.00  0.00    +0.000 OA
ENDBRANCH  24  32
ENDBRANCH   1  27
TORSDOF 4
ENDMDL
MODEL 2
REMARK VINA RESULT:      -8.3      0.907      1.263
REMARK  Name = 
REMARK  5 active torsions:
REMARK  status: ('A' for Active; 'I' for Inactive)
REMARK    1  A    between atoms: C_1  and  O_2
REMARK    2  A    between atoms: O_2  and  C_3
REMARK    3  A    between atoms: C_6  and  N_7
REMARK    4  A    between atoms: C_11  and  C_13
REMARK    5  A    between atoms: C_17  and  C_18
REMARK                            x       y       z     vdW  Elec       q    Type
REMARK                         _______ _______ _______ _____ _____    ______ ____
ROOT
ATOM      1  N   UNL     1       1.480   8.658  19.757  0.00  0.00    +0.000 N 
ATOM      2  C   UNL     1       1.669   7.757  20.914  0.00  0.00    +0.000 C 
ATOM      3  C   UNL     1       1.620   6.275  20.471  0.00  0.00    +0.000 C 
ATOM      4  N   UNL     1       2.459   6.024  19.290  0.00  0.00    +0.000 N 
ATOM      5  C   UNL     1       3.344   4.952  19.300  0.00  0.00    +0.000 C 
ATOM      6  O   UNL     1       3.387   4.180  20.257  0.00  0.00    +0.000 OA
ATOM      7  C   UNL     1       2.125   6.909  18.163  0.00  0.00    +0.000 C 
ATOM      8  C   UNL     1       2.332   8.368  18.591  0.00  0.00    +0.000 C 
ENDROOT
BRANCH   5   9
ATOM      9  C   UNL     1       4.205   4.740  18.152  0.00  0.00    +0.000 A 
ATOM     10  C   UNL     1       3.940   3.956  17.041  0.00  0.00    +0.000 A 
ATOM     11  C   UNL     1       4.983   4.149  16.096  0.00  0.00    +0.000 A 
ATOM     12  C   UNL     1       5.200   3.714  14.774  0.00  0.00    +0.000 A 
ATOM     13  C   UNL     1       6.331   4.168  14.077  0.00  0.00    +0.000 A 
ATOM     14  C   UNL     1       7.237   5.034  14.708  0.00  0.00    +0.000 A 
ATOM     15  C   UNL     1       7.059   5.448  16.032  0.00  0.00    +0.000 A 
ATOM     16  C   UNL     1       5.922   4.983  16.696  0.00  0.00    +0.000 A 
ATOM     17  N   UNL     1       5.493   5.196  17.984  0.00  0.00    +0.000 N 
ATOM     18  H   UNL     1       6.021   5.703  18.679  0.00  0.00    +0.000 HD
BRANCH  13  19
ATOM     19  C   UNL     1       6.619   3.785  12.665  0.00  0.00    +0.000 C 
ATOM     20  N   UNL     1       6.059   2.640  12.168  0.00  0.00    +0.000 N 
ATOM     21  O   UNL     1       7.340   4.465  11.946  0.00  0.00    +0.000 OA
ATOM     22  H   UNL     1       5.461   2.009  12.678  0.00  0.00    +0.000 HD
ATOM     23  H   UNL     1       6.280   2.407  11.208  0.00  0.00    +0.000 HD
ENDBRANCH  13  19
ENDBRANCH   5   9
BRANCH   1  27
ATOM     24  C   UNL     1      -1.378  11.777  19.702  0.00  0.00    +0.000 A 
ATOM     25  C   UNL     1      -0.739  11.421  20.887  0.00  0.00    +0.000 A 
ATOM     26  C   UNL     1       0.200  10.379  20.907  0.00  0.00    +0.000 A 
ATOM     27  C   UNL     1       0.548   9.674  19.746  0.00  0.00    +0.000 A 
ATOM     28  C   UNL     1      -0.099  10.062  18.564  0.00  0.00    +0.000 A 
ATOM     29  C   UNL     1      -1.037  11.094  18.541  0.00  0.00    +0.000 A 
ATOM     30  F   UNL     1      -1.580  11.404  17.355  0.00  0.00    +0.000 F 
BRANCH  24  32
ATOM     31  C   UNL     1      -3.644  12.429  19.729  0.00  0.00    +0.000 C 
ATOM     32  O   UNL     1      -2.272  12.806  19.803  0.00  0.00    +0.000 OA
ENDBRANCH  24  32
ENDBRANCH   1  27
TORSDOF 4
ENDMDL
MODEL 3
REMARK VINA RESULT:      -7.7      4.172     11.674
REMARK  Name = 
REMARK  5 active torsions:
REMARK  status: ('A' for Active; 'I' for Inactive)
REMARK    1  A    between atoms: C_1  and  O_2
REMARK    2  A    between atoms: O_2  and  C_3
REMARK    3  A    between atoms: C_6  and  N_7
REMARK    4  A    between atoms: C_11  and  C_13
REMARK    5  A    between atoms: C_17  and  C_18
REMARK                            x       y       z     vdW  Elec       q    Type
REMARK                         _______ _______ _______ _____ _____    ______ ____
ROOT
ATOM      1  N   UNL     1       1.317   9.076  19.614  0.00  0.00    +0.000 N 
ATOM      2  C   UNL     1       1.632  10.233  18.749  0.00  0.00    +0.000 C 
ATOM      3  C   UNL     1       0.336  10.868  18.187  0.00  0.00    +0.000 C 
ATOM      4  N   UNL     1      -0.674  11.077  19.235  0.00  0.00    +0.000 N 
ATOM      5  C   UNL     1      -1.301  12.314  19.337  0.00  0.00    +0.000 C 
ATOM      6  O   UNL     1      -1.067  13.208  18.526  0.00  0.00    +0.000 OA
ATOM      7  C   UNL     1      -0.984   9.844  19.973  0.00  0.00    +0.000 C 
ATOM      8  C   UNL     1       0.295   9.324  20.644  0.00  0.00    +0.000 C 
ENDROOT
BRANCH   5   9
ATOM      9  C   UNL     1      -2.260  12.530  20.404  0.00  0.00    +0.000 A 
ATOM     10  C   UNL     1      -3.614  12.795  20.272  0.00  0.00    +0.000 A 
ATOM     11  C   UNL     1      -4.201  12.789  21.565  0.00  0.00    +0.000 A 
ATOM     12  C   UNL     1      -5.524  12.889  22.041  0.00  0.00    +0.000 A 
ATOM     13  C   UNL     1      -5.770  12.760  23.417  0.00  0.00    +0.000 A 
ATOM     14  C   UNL     1      -4.701  12.551  24.300  0.00  0.00    +0.000 A 
ATOM     15  C   UNL     1      -3.378  12.486  23.852  0.00  0.00    +0.000 A 
ATOM     16  C   UNL     1      -3.166  12.613  22.478  0.00  0.00    +0.000 A 
ATOM     17  N   UNL     1      -1.998  12.611  21.753  0.00  0.00    +0.000 N 
ATOM     18  H   UNL     1      -1.077  12.578  22.165  0.00  0.00    +0.000 HD
BRANCH  13  19
ATOM     19  C   UNL     1      -7.142  12.818  24.002  0.00  0.00    +0.000 C 
ATOM     20  N   UNL     1      -7.544  13.971  24.619  0.00  0.00    +0.000 N 
ATOM     21  O   UNL     1      -7.908  11.866  23.941  0.00  0.00    +0.000 OA
ATOM     22  H   UNL     1      -6.987  14.804  24.729  0.00  0.00    +0.000 HD
ATOM     23  H   UNL     1      -8.477  13.974  25.009  0.00  0.00    +0.000 HD
ENDBRANCH  13  19
ENDBRANCH   5   9
BRANCH   1  27
ATOM     24  C   UNL     1       3.123   5.285  19.092  0.00  0.00    +0.000 A 
ATOM     25  C   UNL     1       2.316   5.541  20.198  0.00  0.00    +0.000 A 
ATOM     26  C   UNL     1       1.727   6.802  20.377  0.00  0.00    +0.000 A 
ATOM     27  C   UNL     1       1.905   7.840  19.450  0.00  0.00    +0.000 A 
ATOM     28  C   UNL     1       2.708   7.551  18.338  0.00  0.00    +0.000 A 
ATOM     29  C   UNL     1       3.300   6.301  18.160  0.00  0.00    +0.000 A 
ATOM     30  F   UNL     1       4.030   6.119  17.050  0.00  0.00    +0.000 F 
BRANCH  24  32
ATOM     31  C   UNL     1       2.904   3.108  18.216  0.00  0.00    +0.000 C 
ATOM     32  O   UNL     1       3.641   4.023  19.023  0.00  0.00    +0.000 OA
ENDBRANCH  24  32
ENDBRANCH   1  27
TORSDOF 4
ENDMDL
MODEL 4
REMARK VINA RESULT:      -7.7      4.084     11.525
REMARK  Name = 
REMARK  5 active torsions:
REMARK  status: ('A' for Active; 'I' for Inactive)
REMARK    1  A    between atoms: C_1  and  O_2
REMARK    2  A    between atoms: O_2  and  C_3
REMARK    3  A    between atoms: C_6  and  N_7
REMARK    4  A    between atoms: C_11  and  C_13
REMARK    5  A    between atoms: C_17  and  C_18
REMARK                            x       y       z     vdW  Elec       q    Type
REMARK                         _______ _______ _______ _____ _____    ______ ____
ROOT
ATOM      1  N   UNL     1       1.437   8.911  19.618  0.00  0.00    +0.000 N 
ATOM      2  C   UNL     1       1.762  10.028  18.705  0.00  0.00    +0.000 C 
ATOM      3  C   UNL     1       0.471  10.656  18.124  0.00  0.00    +0.000 C 
ATOM      4  N   UNL     1      -0.530  10.921  19.168  0.00  0.00    +0.000 N 
ATOM      5  C   UNL     1      -1.142  12.169  19.222  0.00  0.00    +0.000 C 
ATOM      6  O   UNL     1      -0.900  13.026  18.374  0.00  0.00    +0.000 OA
ATOM      7  C   UNL     1      -0.853   9.723  19.957  0.00  0.00    +0.000 C 
ATOM      8  C   UNL     1       0.423   9.214  20.643  0.00  0.00    +0.000 C 
ENDROOT
BRANCH   5   9
ATOM      9  C   UNL     1      -2.092  12.440  20.284  0.00  0.00    +0.000 A 
ATOM     10  C   UNL     1      -3.457  12.644  20.154  0.00  0.00    +0.000 A 
ATOM     11  C   UNL     1      -4.024  12.728  21.453  0.00  0.00    +0.000 A 
ATOM     12  C   UNL     1      -5.342  12.820  21.943  0.00  0.00    +0.000 A 
ATOM     13  C   UNL     1      -5.564  12.800  23.330  0.00  0.00    +0.000 A 
ATOM     14  C   UNL     1      -4.474  12.707  24.208  0.00  0.00    +0.000 A 
ATOM     15  C   UNL     1      -3.156  12.652  23.743  0.00  0.00    +0.000 A 
ATOM     16  C   UNL     1      -2.969  12.668  22.359  0.00  0.00    +0.000 A 
ATOM     17  N   UNL     1      -1.813  12.646  21.616  0.00  0.00    +0.000 N 
ATOM     18  H   UNL     1      -0.885  12.681  22.013  0.00  0.00    +0.000 HD
BRANCH  13  19
ATOM     19  C   UNL     1      -6.927  12.859  23.931  0.00  0.00    +0.000 C 
ATOM     20  N   UNL     1      -7.316  14.006  24.566  0.00  0.00    +0.000 N 
ATOM     21  O   UNL     1      -7.700  11.911  23.869  0.00  0.00    +0.000 OA
ATOM     22  H   UNL     1      -6.754  14.836  24.679  0.00  0.00    +0.000 HD
ATOM     23  H   UNL     1      -8.245  14.009  24.968  0.00  0.00    +0.000 HD
ENDBRANCH  13  19
ENDBRANCH   5   9
BRANCH   1  27
ATOM     24  C   UNL     1       3.187   5.074  19.283  0.00  0.00    +0.000 A 
ATOM     25  C   UNL     1       3.380   6.031  18.290  0.00  0.00    +0.000 A 
ATOM     26  C   UNL     1       2.790   7.300  18.396  0.00  0.00    +0.000 A 
ATOM     27  C   UNL     1       2.008   7.662  19.503  0.00  0.00    +0.000 A 
ATOM     28  C   UNL     1       1.842   6.685  20.495  0.00  0.00    +0.000 A 
ATOM     29  C   UNL     1       2.422   5.422  20.390  0.00  0.00    +0.000 A 
ATOM     30  F   UNL     1       2.224   4.568  21.405  0.00  0.00    +0.000 F 
BRANCH  24  32
ATOM     31  C   UNL     1       2.970   2.829  18.597  0.00  0.00    +0.000 C 
ATOM     32  O   UNL     1       3.810   3.876  19.074  0.00  0.00    +0.000 OA
ENDBRANCH  24  32
ENDBRANCH   1  27
TORSDOF 4
ENDMDL
MODEL 5
REMARK VINA RESULT:      -7.7      1.502      1.854
REMARK  Name = 
REMARK  5 active torsions:
REMARK  status: ('A' for Active; 'I' for Inactive)
REMARK    1  A    between atoms: C_1  and  O_2
REMARK    2  A    between atoms: O_2  and  C_3
REMARK    3  A    between atoms: C_6  and  N_7
REMARK    4  A    between atoms: C_11  and  C_13
REMARK    5  A    between atoms: C_17  and  C_18
REMARK                            x       y       z     vdW  Elec       q    Type
REMARK                         _______ _______ _______ _____ _____    ______ ____
ROOT
ATOM      1  N   UNL     1       1.565   7.632  20.570  0.00  0.00    +0.000 N 
ATOM      2  C   UNL     1       1.422   6.373  21.332  0.00  0.00    +0.000 C 
ATOM      3  C   UNL     1       1.265   5.166  20.375  0.00  0.00    +0.000 C 
ATOM      4  N   UNL     1       2.268   5.182  19.299  0.00  0.00    +0.000 N 
ATOM      5  C   UNL     1       2.991   4.027  19.027  0.00  0.00    +0.000 C 
ATOM      6  O   UNL     1       2.759   2.981  19.632  0.00  0.00    +0.000 OA
ATOM      7  C   UNL     1       2.262   6.443  18.541  0.00  0.00    +0.000 C 
ATOM      8  C   UNL     1       2.572   7.605  19.496  0.00  0.00    +0.000 C 
ENDROOT
BRANCH   5   9
ATOM      9  C   UNL     1       4.013   4.063  17.998  0.00  0.00    +0.000 A 
ATOM     10  C   UNL     1       3.836   3.886  16.635  0.00  0.00    +0.000 A 
ATOM     11  C   UNL     1       5.071   4.148  15.984  0.00  0.00    +0.000 A 
ATOM     12  C   UNL     1       5.468   4.230  14.635  0.00  0.00    +0.000 A 
ATOM     13  C   UNL     1       6.788   4.601  14.328  0.00  0.00    +0.000 A 
ATOM     14  C   UNL     1       7.695   4.867  15.364  0.00  0.00    +0.000 A 
ATOM     15  C   UNL     1       7.330   4.755  16.710  0.00  0.00    +0.000 A 
ATOM     16  C   UNL     1       6.010   4.390  16.982  0.00  0.00    +0.000 A 
ATOM     17  N   UNL     1       5.373   4.183  18.181  0.00  0.00    +0.000 N 
ATOM     18  H   UNL     1       5.833   4.211  19.079  0.00  0.00    +0.000 HD
BRANCH  13  19
ATOM     19  C   UNL     1       7.282   4.745  12.929  0.00  0.00    +0.000 C 
ATOM     20  N   UNL     1       8.124   5.782  12.633  0.00  0.00    +0.000 N 
ATOM     21  O   UNL     1       6.954   3.962  12.046  0.00  0.00    +0.000 OA
ATOM     22  H   UNL     1       8.445   6.482  13.283  0.00  0.00    +0.000 HD
ATOM     23  H   UNL     1       8.435   5.853  11.673  0.00  0.00    +0.000 HD
ENDBRANCH  13  19
ENDBRANCH   5   9
BRANCH   1  27
ATOM     24  C   UNL     1      -0.812  11.055  21.303  0.00  0.00    +0.000 A 
ATOM     25  C   UNL     1      -0.459  10.200  22.344  0.00  0.00    +0.000 A 
ATOM     26  C   UNL     1       0.319   9.059  22.099  0.00  0.00    +0.000 A 
ATOM     27  C   UNL     1       0.788   8.745  20.815  0.00  0.00    +0.000 A 
ATOM     28  C   UNL     1       0.433   9.631  19.788  0.00  0.00    +0.000 A 
ATOM     29  C   UNL     1      -0.346  10.763  20.027  0.00  0.00    +0.000 A 
ATOM     30  F   UNL     1      -0.610  11.559  18.981  0.00  0.00    +0.000 F 
BRANCH  24  32
ATOM     31  C   UNL     1      -1.128  12.828  22.824  0.00  0.00    +0.000 C 
ATOM     32  O   UNL     1      -1.570  12.135  21.661  0.00  0.00    +0.000 OA
ENDBRANCH  24  32
ENDBRANCH   1  27
TORSDOF 4
ENDMDL
MODEL 6
REMARK VINA RESULT:      -7.6      3.723      5.354
REMARK  Name = 
REMARK  5 active torsions:
REMARK  status: ('A' for Active; 'I' for Inactive)
REMARK    1  A    between atoms: C_1  and  O_2
REMARK    2  A    between atoms: O_2  and  C_3
REMARK    3  A    between atoms: C_6  and  N_7
REMARK    4  A    between atoms: C_11  and  C_13
REMARK    5  A    between atoms: C_17  and  C_18
REMARK                            x       y       z     vdW  Elec       q    Type
REMARK                         _______ _______ _______ _____ _____    ______ ____
ROOT
ATOM      1  N   UNL     1      -0.697  11.384  21.017  0.00  0.00    +0.000 N 
ATOM      2  C   UNL     1      -0.405  11.835  19.640  0.00  0.00    +0.000 C 
ATOM      3  C   UNL     1       1.017  11.400  19.209  0.00  0.00    +0.000 C 
ATOM      4  N   UNL     1       1.277   9.986  19.515  0.00  0.00    +0.000 N 
ATOM      5  C   UNL     1       1.812   9.165  18.528  0.00  0.00    +0.000 C 
ATOM      6  O   UNL     1       2.125   9.622  17.430  0.00  0.00    +0.000 OA
ATOM      7  C   UNL     1       1.049   9.663  20.932  0.00  0.00    +0.000 C 
ATOM      8  C   UNL     1      -0.415   9.964  21.285  0.00  0.00    +0.000 C 
ENDROOT
BRANCH   5   9
ATOM      9  C   UNL     1       2.020   7.759  18.820  0.00  0.00    +0.000 A 
ATOM     10  C   UNL     1       2.614   6.813  18.000  0.00  0.00    +0.000 A 
ATOM     11  C   UNL     1       2.747   5.604  18.733  0.00  0.00    +0.000 A 
ATOM     12  C   UNL     1       3.356   4.361  18.469  0.00  0.00    +0.000 A 
ATOM     13  C   UNL     1       3.375   3.378  19.473  0.00  0.00    +0.000 A 
ATOM     14  C   UNL     1       2.778   3.639  20.715  0.00  0.00    +0.000 A 
ATOM     15  C   UNL     1       2.136   4.853  20.983  0.00  0.00    +0.000 A 
ATOM     16  C   UNL     1       2.138   5.810  19.967  0.00  0.00    +0.000 A 
ATOM     17  N   UNL     1       1.582   7.066  19.926  0.00  0.00    +0.000 N 
ATOM     18  H   UNL     1       1.007   7.455  20.660  0.00  0.00    +0.000 HD
BRANCH  13  19
ATOM     19  C   UNL     1       4.027   2.049  19.290  0.00  0.00    +0.000 C 
ATOM     20  N   UNL     1       5.116   1.741  20.059  0.00  0.00    +0.000 N 
ATOM     21  O   UNL     1       3.613   1.235  18.475  0.00  0.00    +0.000 OA
ATOM     22  H   UNL     1       5.538   2.342  20.749  0.00  0.00    +0.000 HD
ATOM     23  H   UNL     1       5.537   0.833  19.904  0.00  0.00    +0.000 HD
ENDBRANCH  13  19
ENDBRANCH   5   9
BRANCH   1  27
ATOM     24  C   UNL     1      -2.147  13.981  24.026  0.00  0.00    +0.000 A 
ATOM     25  C   UNL     1      -1.030  14.326  23.269  0.00  0.00    +0.000 A 
ATOM     26  C   UNL     1      -0.543  13.459  22.280  0.00  0.00    +0.000 A 
ATOM     27  C   UNL     1      -1.164  12.233  21.998  0.00  0.00    +0.000 A 
ATOM     28  C   UNL     1      -2.296  11.918  22.763  0.00  0.00    +0.000 A 
ATOM     29  C   UNL     1      -2.780  12.774  23.752  0.00  0.00    +0.000 A 
ATOM     30  F   UNL     1      -3.883  12.391  24.411  0.00  0.00    +0.000 F 
BRANCH  24  32
ATOM     31  C   UNL     1      -3.638  15.719  24.586  0.00  0.00    +0.000 C 
ATOM     32  O   UNL     1      -2.532  14.903  24.959  0.00  0.00    +0.000 OA
ENDBRANCH  24  32
ENDBRANCH   1  27
TORSDOF 4
ENDMDL
MODEL 7
REMARK VINA RESULT:      -7.6      4.134     11.333
REMARK  Name = 
REMARK  5 active torsions:
REMARK  status: ('A' for Active; 'I' for Inactive)
REMARK    1  A    between atoms: C_1  and  O_2
REMARK    2  A    between atoms: O_2  and  C_3
REMARK    3  A    between atoms: C_6  and  N_7
REMARK    4  A    between atoms: C_11  and  C_13
REMARK    5  A    between atoms: C_17  and  C_18
REMARK                            x       y       z     vdW  Elec       q    Type
REMARK                         _______ _______ _______ _____ _____    ______ ____
ROOT
ATOM      1  N   UNL     1       1.974   7.780  19.828  0.00  0.00    +0.000 N 
ATOM      2  C   UNL     1       2.229   8.700  18.698  0.00  0.00    +0.000 C 
ATOM      3  C   UNL     1       0.964   9.529  18.368  0.00  0.00    +0.000 C 
ATOM      4  N   UNL     1       0.357  10.111  19.575  0.00  0.00    +0.000 N 
ATOM      5  C   UNL     1       0.021  11.460  19.584  0.00  0.00    +0.000 C 
ATOM      6  O   UNL     1       0.168  12.152  18.578  0.00  0.00    +0.000 OA
ATOM      7  C   UNL     1       0.054   9.099  20.598  0.00  0.00    +0.000 C 
ATOM      8  C   UNL     1       1.356   8.399  21.013  0.00  0.00    +0.000 C 
ENDROOT
BRANCH   5   9
ATOM      9  C   UNL     1      -0.532  12.039  20.793  0.00  0.00    +0.000 A 
ATOM     10  C   UNL     1       0.032  13.029  21.581  0.00  0.00    +0.000 A 
ATOM     11  C   UNL     1      -0.909  13.401  22.578  0.00  0.00    +0.000 A 
ATOM     12  C   UNL     1      -0.941  14.401  23.571  0.00  0.00    +0.000 A 
ATOM     13  C   UNL     1      -2.094  14.550  24.359  0.00  0.00    +0.000 A 
ATOM     14  C   UNL     1      -3.189  13.695  24.161  0.00  0.00    +0.000 A 
ATOM     15  C   UNL     1      -3.162  12.674  23.206  0.00  0.00    +0.000 A 
ATOM     16  C   UNL     1      -2.004  12.555  22.435  0.00  0.00    +0.000 A 
ATOM     17  N   UNL     1      -1.679  11.653  21.450  0.00  0.00    +0.000 N 
ATOM     18  H   UNL     1      -2.258  10.869  21.188  0.00  0.00    +0.000 HD
BRANCH  13  19
ATOM     19  C   UNL     1      -2.225  15.602  25.408  0.00  0.00    +0.000 C 
ATOM     20  N   UNL     1      -1.397  15.552  26.495  0.00  0.00    +0.000 N 
ATOM     21  O   UNL     1      -3.051  16.501  25.317  0.00  0.00    +0.000 OA
ATOM     22  H   UNL     1      -0.694  14.851  26.667  0.00  0.00    +0.000 HD
ATOM     23  H   UNL     1      -1.518  16.278  27.190  0.00  0.00    +0.000 HD
ENDBRANCH  13  19
ENDBRANCH   5   9
BRANCH   1  27
ATOM     24  C   UNL     1       2.828   3.639  19.672  0.00  0.00    +0.000 A 
ATOM     25  C   UNL     1       3.418   4.520  18.769  0.00  0.00    +0.000 A 
ATOM     26  C   UNL     1       3.125   5.891  18.813  0.00  0.00    +0.000 A 
ATOM     27  C   UNL     1       2.254   6.432  19.771  0.00  0.00    +0.000 A 
ATOM     28  C   UNL     1       1.687   5.526  20.679  0.00  0.00    +0.000 A 
ATOM     29  C   UNL     1       1.971   4.162  20.634  0.00  0.00    +0.000 A 
ATOM     30  F   UNL     1       1.396   3.383  21.562  0.00  0.00    +0.000 F 
BRANCH  24  32
ATOM     31  C   UNL     1       3.345   1.879  18.192  0.00  0.00    +0.000 C 
ATOM     32  O   UNL     1       3.188   2.328  19.535  0.00  0.00    +0.000 OA
ENDBRANCH  24  32
ENDBRANCH   1  27
TORSDOF 4
ENDMDL
MODEL 8
REMARK VINA RESULT:      -7.4      3.662      5.461
REMARK  Name = 
REMARK  5 active torsions:
REMARK  status: ('A' for Active; 'I' for Inactive)
REMARK    1  A    between atoms: C_1  and  O_2
REMARK    2  A    between atoms: O_2  and  C_3
REMARK    3  A    between atoms: C_6  and  N_7
REMARK    4  A    between atoms: C_11  and  C_13
REMARK    5  A    between atoms: C_17  and  C_18
REMARK                            x       y       z     vdW  Elec       q    Type
REMARK                         _______ _______ _______ _____ _____    ______ ____
ROOT
ATOM      1  N   UNL     1      -0.862  11.609  21.091  0.00  0.00    +0.000 N 
ATOM      2  C   UNL     1      -0.499  12.132  19.757  0.00  0.00    +0.000 C 
ATOM      3  C   UNL     1       0.946  11.722  19.380  0.00  0.00    +0.000 C 
ATOM      4  N   UNL     1       1.194  10.294  19.624  0.00  0.00    +0.000 N 
ATOM      5  C   UNL     1       1.783   9.526  18.625  0.00  0.00    +0.000 C 
ATOM      6  O   UNL     1       2.152  10.041  17.571  0.00  0.00    +0.000 OA
ATOM      7  C   UNL     1       0.892   9.897  21.007  0.00  0.00    +0.000 C 
ATOM      8  C   UNL     1      -0.589  10.177  21.299  0.00  0.00    +0.000 C 
ENDROOT
BRANCH   5   9
ATOM      9  C   UNL     1       1.980   8.108  18.853  0.00  0.00    +0.000 A 
ATOM     10  C   UNL     1       2.472   7.175  17.953  0.00  0.00    +0.000 A 
ATOM     11  C   UNL     1       2.640   5.940  18.633  0.00  0.00    +0.000 A 
ATOM     12  C   UNL     1       3.189   4.692  18.276  0.00  0.00    +0.000 A 
ATOM     13  C   UNL     1       3.276   3.677  19.243  0.00  0.00    +0.000 A 
ATOM     14  C   UNL     1       2.801   3.911  20.542  0.00  0.00    +0.000 A 
ATOM     15  C   UNL     1       2.219   5.129  20.905  0.00  0.00    +0.000 A 
ATOM     16  C   UNL     1       2.152   6.119  19.923  0.00  0.00    +0.000 A 
ATOM     17  N   UNL     1       1.628   7.389  19.973  0.00  0.00    +0.000 N 
ATOM     18  H   UNL     1       1.132   7.766  20.768  0.00  0.00    +0.000 HD
BRANCH  13  19
ATOM     19  C   UNL     1       3.873   2.340  18.960  0.00  0.00    +0.000 C 
ATOM     20  N   UNL     1       4.879   1.886  19.769  0.00  0.00    +0.000 N 
ATOM     21  O   UNL     1       3.487   1.647  18.028  0.00  0.00    +0.000 OA
ATOM     22  H   UNL     1       5.272   2.382  20.553  0.00  0.00    +0.000 HD
ATOM     23  H   UNL     1       5.265   0.978  19.545  0.00  0.00    +0.000 HD
ENDBRANCH  13  19
ENDBRANCH   5   9
BRANCH   1  27
ATOM     24  C   UNL     1      -2.442  14.059  24.157  0.00  0.00    +0.000 A 
ATOM     25  C   UNL     1      -3.135  12.933  23.721  0.00  0.00    +0.000 A 
ATOM     26  C   UNL     1      -2.617  12.127  22.696  0.00  0.00    +0.000 A 
ATOM     27  C   UNL     1      -1.383  12.405  22.089  0.00  0.00    +0.000 A 
ATOM     28  C   UNL     1      -0.698  13.535  22.558  0.00  0.00    +0.000 A 
ATOM     29  C   UNL     1      -1.214  14.342  23.572  0.00  0.00    +0.000 A 
ATOM     30  F   UNL     1      -0.469  15.385  23.965  0.00  0.00    +0.000 F 
BRANCH  24  32
ATOM     31  C   UNL     1      -3.752  15.929  24.744  0.00  0.00    +0.000 C 
ATOM     32  O   UNL     1      -3.043  14.767  25.161  0.00  0.00    +0.000 OA
ENDBRANCH  24  32
ENDBRANCH   1  27
TORSDOF 4
ENDMDL
MODEL 9
REMARK VINA RESULT:      -7.4      4.161     11.476
REMARK  Name = 
REMARK  5 active torsions:
REMARK  status: ('A' for Active; 'I' for Inactive)
REMARK    1  A    between atoms: C_1  and  O_2
REMARK    2  A    between atoms: O_2  and  C_3
REMARK    3  A    between atoms: C_6  and  N_7
REMARK    4  A    between atoms: C_11  and  C_13
REMARK    5  A    between atoms: C_17  and  C_18
REMARK                            x       y       z     vdW  Elec       q    Type
REMARK                         _______ _______ _______ _____ _____    ______ ____
ROOT
ATOM      1  N   UNL     1       1.840   8.114  19.537  0.00  0.00    +0.000 N 
ATOM      2  C   UNL     1       1.936   9.036  18.385  0.00  0.00    +0.000 C 
ATOM      3  C   UNL     1       0.601   9.792  18.173  0.00  0.00    +0.000 C 
ATOM      4  N   UNL     1       0.078  10.350  19.429  0.00  0.00    +0.000 N 
ATOM      5  C   UNL     1      -0.330  11.678  19.465  0.00  0.00    +0.000 C 
ATOM      6  O   UNL     1      -0.316  12.369  18.447  0.00  0.00    +0.000 OA
ATOM      7  C   UNL     1      -0.069   9.332  20.480  0.00  0.00    +0.000 C 
ATOM      8  C   UNL     1       1.303   8.709  20.773  0.00  0.00    +0.000 C 
ENDROOT
BRANCH   5   9
ATOM      9  C   UNL     1      -0.798  12.237  20.719  0.00  0.00    +0.000 A 
ATOM     10  C   UNL     1      -0.148  13.165  21.517  0.00  0.00    +0.000 A 
ATOM     11  C   UNL     1      -1.023  13.545  22.568  0.00  0.00    +0.000 A 
ATOM     12  C   UNL     1      -0.959  14.505  23.598  0.00  0.00    +0.000 A 
ATOM     13  C   UNL     1      -2.067  14.681  24.443  0.00  0.00    +0.000 A 
ATOM     14  C   UNL     1      -3.213  13.893  24.264  0.00  0.00    +0.000 A 
ATOM     15  C   UNL     1      -3.282  12.909  23.272  0.00  0.00    +0.000 A 
ATOM     16  C   UNL     1      -2.167  12.762  22.445  0.00  0.00    +0.000 A 
ATOM     17  N   UNL     1      -1.933  11.884  21.413  0.00  0.00    +0.000 N 
ATOM     18  H   UNL     1      -2.563  11.141  21.149  0.00  0.00    +0.000 HD
BRANCH  13  19
ATOM     19  C   UNL     1      -2.096  15.697  25.535  0.00  0.00    +0.000 C 
ATOM     20  N   UNL     1      -1.164  15.616  26.533  0.00  0.00    +0.000 N 
ATOM     21  O   UNL     1      -2.930  16.594  25.558  0.00  0.00    +0.000 OA
ATOM     22  H   UNL     1      -0.445  14.914  26.610  0.00  0.00    +0.000 HD
ATOM     23  H   UNL     1      -1.217  16.317  27.260  0.00  0.00    +0.000 HD
ENDBRANCH  13  19
ENDBRANCH   5   9
BRANCH   1  27
ATOM     24  C   UNL     1       2.911   4.029  19.277  0.00  0.00    +0.000 A 
ATOM     25  C   UNL     1       2.210   4.510  20.380  0.00  0.00    +0.000 A 
ATOM     26  C   UNL     1       1.866   5.867  20.471  0.00  0.00    +0.000 A 
ATOM     27  C   UNL     1       2.188   6.783  19.459  0.00  0.00    +0.000 A 
ATOM     28  C   UNL     1       2.880   6.269  18.352  0.00  0.00    +0.000 A 
ATOM     29  C   UNL     1       3.229   4.923  18.261  0.00  0.00    +0.000 A 
ATOM     30  F   UNL     1       3.868   4.527  17.150  0.00  0.00    +0.000 F 
BRANCH  24  32
ATOM     31  C   UNL     1       4.341   2.323  20.052  0.00  0.00    +0.000 C 
ATOM     32  O   UNL     1       3.191   2.692  19.296  0.00  0.00    +0.000 OA
ENDBRANCH  24  32
ENDBRANCH   1  27
TORSDOF 4
ENDMDL
