MODEL 1
REMARK VINA RESULT:      -7.4      0.000      0.000
REMARK  Name = 
REMARK  2 active torsions:
REMARK  status: ('A' for Active; 'I' for Inactive)
REMARK    1  A    between atoms: N_1  and  C_2
REMARK    2  A    between atoms: C_15  and  O_16
REMARK                            x       y       z     vdW  Elec       q    Type
REMARK                         _______ _______ _______ _____ _____    ______ ____
ROOT
ATOM      1  C   UNL     1       3.841   3.005  17.752  0.00  0.00    +0.000 A 
ATOM      2  C   UNL     1       2.990   3.391  18.810  0.00  0.00    +0.000 A 
ATOM      3  C   UNL     1       2.749   4.755  18.986  0.00  0.00    +0.000 A 
ATOM      4  N   UNL     1       3.335   5.711  18.231  0.00  0.00    +0.000 NA
ATOM      5  C   UNL     1       4.196   5.349  17.275  0.00  0.00    +0.000 A 
ATOM      6  C   UNL     1       4.810   6.357  16.540  0.00  0.00    +0.000 A 
ATOM      7  C   UNL     1       5.724   6.083  15.524  0.00  0.00    +0.000 A 
ATOM      8  C   UNL     1       6.042   4.767  15.230  0.00  0.00    +0.000 A 
ATOM      9  C   UNL     1       5.447   3.736  15.959  0.00  0.00    +0.000 A 
ATOM     10  C   UNL     1       4.508   4.005  16.990  0.00  0.00    +0.000 A 
ATOM     11  C   UNL     1       1.858   5.273  20.087  0.00  0.00    +0.000 C 
ATOM     12  C   UNL     1       0.908   4.222  20.646  0.00  0.00    +0.000 C 
ATOM     13  C   UNL     1       1.680   2.948  20.960  0.00  0.00    +0.000 C 
ATOM     14  C   UNL     1       2.310   2.368  19.691  0.00  0.00    +0.000 C 
ENDROOT
BRANCH   1  15
ATOM     15  N   UNL     1       4.179   1.635  17.606  0.00  0.00    +0.000 N 
ATOM     16  H   UNL     1       4.385   1.382  16.639  0.00  0.00    +0.000 HD
ATOM     17  H   UNL     1       4.926   1.326  18.217  0.00  0.00    +0.000 HD
ENDBRANCH   1  15
BRANCH  14  18
ATOM     18  O   UNL     1       1.287   1.710  18.936  0.00  0.00    +0.000 OA
ATOM     19  H   UNL     1       1.372   2.002  18.011  0.00  0.00    +0.000 HD
ENDBRANCH  14  18
TORSDOF 2
ENDMDL
MODEL 2
REMARK VINA RESULT:      -7.3      1.310      2.713
REMARK  Name = 
REMARK  2 active torsions:
REMARK  status: ('A' for Active; 'I' for Inactive)
REMARK    1  A    between atoms: N_1  and  C_2
REMARK    2  A    between atoms: C_15  and  O_16
REMARK                            x       y       z     vdW  Elec       q    Type
REMARK                         _______ _______ _______ _____ _____    ______ ____
ROOT
ATOM      1  C   UNL     1       3.350   5.736  18.243  0.00  0.00    +0.000 A 
ATOM      2  C   UNL     1       2.702   4.685  18.928  0.00  0.00    +0.000 A 
ATOM      3  C   UNL     1       3.050   3.376  18.589  0.00  0.00    +0.000 A 
ATOM      4  N   UNL     1       3.927   3.077  17.604  0.00  0.00    +0.000 NA
ATOM      5  C   UNL     1       4.487   4.071  16.908  0.00  0.00    +0.000 A 
ATOM      6  C   UNL     1       5.357   3.730  15.878  0.00  0.00    +0.000 A 
ATOM      7  C   UNL     1       5.989   4.692  15.092  0.00  0.00    +0.000 A 
ATOM      8  C   UNL     1       5.749   6.035  15.333  0.00  0.00    +0.000 A 
ATOM      9  C   UNL     1       4.872   6.404  16.355  0.00  0.00    +0.000 A 
ATOM     10  C   UNL     1       4.229   5.432  17.167  0.00  0.00    +0.000 A 
ATOM     11  C   UNL     1       2.414   2.183  19.258  0.00  0.00    +0.000 C 
ATOM     12  C   UNL     1       1.767   2.509  20.597  0.00  0.00    +0.000 C 
ATOM     13  C   UNL     1       0.882   3.739  20.453  0.00  0.00    +0.000 C 
ATOM     14  C   UNL     1       1.709   4.957  20.035  0.00  0.00    +0.000 C 
ENDROOT
BRANCH   1  15
ATOM     15  N   UNL     1       2.951   7.073  18.499  0.00  0.00    +0.000 N 
ATOM     16  H   UNL     1       3.019   7.321  19.487  0.00  0.00    +0.000 HD
ATOM     17  H   UNL     1       3.428   7.763  17.931  0.00  0.00    +0.000 HD
ENDBRANCH   1  15
BRANCH  14  18
ATOM     18  O   UNL     1       2.412   5.445  21.182  0.00  0.00    +0.000 OA
ATOM     19  H   UNL     1       2.566   4.688  21.775  0.00  0.00    +0.000 HD
ENDBRANCH  14  18
TORSDOF 2
ENDMDL
MODEL 3
REMARK VINA RESULT:      -7.1      1.634      4.835
REMARK  Name = 
REMARK  2 active torsions:
REMARK  status: ('A' for Active; 'I' for Inactive)
REMARK    1  A    between atoms: N_1  and  C_2
REMARK    2  A    between atoms: C_15  and  O_16
REMARK                            x       y       z     vdW  Elec       q    Type
REMARK                         _______ _______ _______ _____ _____    ______ ____
ROOT
ATOM      1  C   UNL     1       3.918   3.189  17.956  0.00  0.00    +0.000 A 
ATOM      2  C   UNL     1       4.384   4.323  17.256  0.00  0.00    +0.000 A 
ATOM      3  C   UNL     1       3.968   5.579  17.703  0.00  0.00    +0.000 A 
ATOM      4  N   UNL     1       3.103   5.749  18.727  0.00  0.00    +0.000 NA
ATOM      5  C   UNL     1       2.606   4.672  19.344  0.00  0.00    +0.000 A 
ATOM      6  C   UNL     1       1.690   4.878  20.370  0.00  0.00    +0.000 A 
ATOM      7  C   UNL     1       1.113   3.823  21.074  0.00  0.00    +0.000 A 
ATOM      8  C   UNL     1       1.452   2.520  20.746  0.00  0.00    +0.000 A 
ATOM      9  C   UNL     1       2.362   2.285  19.714  0.00  0.00    +0.000 A 
ATOM     10  C   UNL     1       2.962   3.354  18.997  0.00  0.00    +0.000 A 
ATOM     11  C   UNL     1       4.406   6.853  17.023  0.00  0.00    +0.000 C 
ATOM     12  C   UNL     1       5.658   6.689  16.172  0.00  0.00    +0.000 C 
ATOM     13  C   UNL     1       5.509   5.472  15.270  0.00  0.00    +0.000 C 
ATOM     14  C   UNL     1       5.349   4.196  16.100  0.00  0.00    +0.000 C 
ENDROOT
BRANCH   1  15
ATOM     15  N   UNL     1       4.248   1.898  17.471  0.00  0.00    +0.000 N 
ATOM     16  H   UNL     1       4.847   1.378  18.113  0.00  0.00    +0.000 HD
ATOM     17  H   UNL     1       3.445   1.337  17.208  0.00  0.00    +0.000 HD
ENDBRANCH   1  15
BRANCH  14  18
ATOM     18  O   UNL     1       6.635   3.819  16.606  0.00  0.00    +0.000 OA
ATOM     19  H   UNL     1       7.047   4.617  16.983  0.00  0.00    +0.000 HD
ENDBRANCH  14  18
TORSDOF 2
ENDMDL
MODEL 4
REMARK VINA RESULT:      -7.0      2.357      5.483
REMARK  Name = 
REMARK  2 active torsions:
REMARK  status: ('A' for Active; 'I' for Inactive)
REMARK    1  A    between atoms: N_1  and  C_2
REMARK    2  A    between atoms: C_15  and  O_16
REMARK                            x       y       z     vdW  Elec       q    Type
REMARK                         _______ _______ _______ _____ _____    ______ ____
ROOT
ATOM      1  C   UNL     1       3.370   5.771  18.510  0.00  0.00    +0.000 A 
ATOM      2  C   UNL     1       4.731   5.780  18.135  0.00  0.00    +0.000 A 
ATOM      3  C   UNL     1       5.521   4.698  18.530  0.00  0.00    +0.000 A 
ATOM      4  N   UNL     1       5.056   3.685  19.295  0.00  0.00    +0.000 NA
ATOM      5  C   UNL     1       3.785   3.713  19.709  0.00  0.00    +0.000 A 
ATOM      6  C   UNL     1       3.347   2.675  20.524  0.00  0.00    +0.000 A 
ATOM      7  C   UNL     1       2.042   2.613  21.010  0.00  0.00    +0.000 A 
ATOM      8  C   UNL     1       1.144   3.615  20.680  0.00  0.00    +0.000 A 
ATOM      9  C   UNL     1       1.561   4.674  19.871  0.00  0.00    +0.000 A 
ATOM     10  C   UNL     1       2.886   4.741  19.364  0.00  0.00    +0.000 A 
ATOM     11  C   UNL     1       6.986   4.612  18.184  0.00  0.00    +0.000 C 
ATOM     12  C   UNL     1       7.390   5.505  17.018  0.00  0.00    +0.000 C 
ATOM     13  C   UNL     1       6.839   6.908  17.231  0.00  0.00    +0.000 C 
ATOM     14  C   UNL     1       5.309   6.888  17.285  0.00  0.00    +0.000 C 
ENDROOT
BRANCH   1  15
ATOM     15  N   UNL     1       2.565   6.899  18.205  0.00  0.00    +0.000 N 
ATOM     16  H   UNL     1       3.021   7.544  17.559  0.00  0.00    +0.000 HD
ATOM     17  H   UNL     1       1.636   6.667  17.872  0.00  0.00    +0.000 HD
ENDBRANCH   1  15
BRANCH  14  18
ATOM     18  O   UNL     1       4.808   6.760  15.950  0.00  0.00    +0.000 OA
ATOM     19  H   UNL     1       4.928   7.619  15.509  0.00  0.00    +0.000 HD
ENDBRANCH  14  18
TORSDOF 2
ENDMDL
MODEL 5
REMARK VINA RESULT:      -6.9      2.466      4.814
REMARK  Name = 
REMARK  2 active torsions:
REMARK  status: ('A' for Active; 'I' for Inactive)
REMARK    1  A    between atoms: N_1  and  C_2
REMARK    2  A    between atoms: C_15  and  O_16
REMARK                            x       y       z     vdW  Elec       q    Type
REMARK                         _______ _______ _______ _____ _____    ______ ____
ROOT
ATOM      1  C   UNL     1       4.723   3.639  19.148  0.00  0.00    +0.000 A 
ATOM      2  C   UNL     1       5.391   4.679  18.465  0.00  0.00    +0.000 A 
ATOM      3  C   UNL     1       4.621   5.545  17.687  0.00  0.00    +0.000 A 
ATOM      4  N   UNL     1       3.288   5.395  17.516  0.00  0.00    +0.000 NA
ATOM      5  C   UNL     1       2.667   4.368  18.105  0.00  0.00    +0.000 A 
ATOM      6  C   UNL     1       1.303   4.220  17.881  0.00  0.00    +0.000 A 
ATOM      7  C   UNL     1       0.566   3.182  18.447  0.00  0.00    +0.000 A 
ATOM      8  C   UNL     1       1.203   2.258  19.259  0.00  0.00    +0.000 A 
ATOM      9  C   UNL     1       2.574   2.378  19.493  0.00  0.00    +0.000 A 
ATOM     10  C   UNL     1       3.332   3.437  18.928  0.00  0.00    +0.000 A 
ATOM     11  C   UNL     1       5.236   6.685  16.915  0.00  0.00    +0.000 C 
ATOM     12  C   UNL     1       6.614   7.089  17.422  0.00  0.00    +0.000 C 
ATOM     13  C   UNL     1       7.484   5.851  17.584  0.00  0.00    +0.000 C 
ATOM     14  C   UNL     1       6.880   4.893  18.614  0.00  0.00    +0.000 C 
ENDROOT
BRANCH   1  15
ATOM     15  N   UNL     1       5.489   2.688  19.871  0.00  0.00    +0.000 N 
ATOM     16  H   UNL     1       5.862   1.949  19.275  0.00  0.00    +0.000 HD
ATOM     17  H   UNL     1       6.229   3.094  20.432  0.00  0.00    +0.000 HD
ENDBRANCH   1  15
BRANCH  14  18
ATOM     18  O   UNL     1       7.148   5.405  19.923  0.00  0.00    +0.000 OA
ATOM     19  H   UNL     1       6.940   4.700  20.562  0.00  0.00    +0.000 HD
ENDBRANCH  14  18
TORSDOF 2
ENDMDL
MODEL 6
REMARK VINA RESULT:      -6.9      1.971      2.953
REMARK  Name = 
REMARK  2 active torsions:
REMARK  status: ('A' for Active; 'I' for Inactive)
REMARK    1  A    between atoms: N_1  and  C_2
REMARK    2  A    between atoms: C_15  and  O_16
REMARK                            x       y       z     vdW  Elec       q    Type
REMARK                         _______ _______ _______ _____ _____    ______ ____
ROOT
ATOM      1  C   UNL     1       3.546   5.948  18.714  0.00  0.00    +0.000 A 
ATOM      2  C   UNL     1       3.041   4.892  19.504  0.00  0.00    +0.000 A 
ATOM      3  C   UNL     1       3.876   3.799  19.739  0.00  0.00    +0.000 A 
ATOM      4  N   UNL     1       5.111   3.684  19.201  0.00  0.00    +0.000 NA
ATOM      5  C   UNL     1       5.562   4.651  18.395  0.00  0.00    +0.000 A 
ATOM      6  C   UNL     1       6.821   4.487  17.829  0.00  0.00    +0.000 A 
ATOM      7  C   UNL     1       7.380   5.436  16.974  0.00  0.00    +0.000 A 
ATOM      8  C   UNL     1       6.665   6.582  16.669  0.00  0.00    +0.000 A 
ATOM      9  C   UNL     1       5.394   6.767  17.217  0.00  0.00    +0.000 A 
ATOM     10  C   UNL     1       4.820   5.810  18.096  0.00  0.00    +0.000 A 
ATOM     11  C   UNL     1       3.432   2.618  20.566  0.00  0.00    +0.000 C 
ATOM     12  C   UNL     1       2.252   2.924  21.479  0.00  0.00    +0.000 C 
ATOM     13  C   UNL     1       1.159   3.628  20.685  0.00  0.00    +0.000 C 
ATOM     14  C   UNL     1       1.666   4.961  20.129  0.00  0.00    +0.000 C 
ENDROOT
BRANCH   1  15
ATOM     15  N   UNL     1       2.690   7.028  18.381  0.00  0.00    +0.000 N 
ATOM     16  H   UNL     1       2.272   7.466  19.202  0.00  0.00    +0.000 HD
ATOM     17  H   UNL     1       3.120   7.730  17.789  0.00  0.00    +0.000 HD
ENDBRANCH   1  15
BRANCH  14  18
ATOM     18  O   UNL     1       1.685   5.920  21.192  0.00  0.00    +0.000 OA
ATOM     19  H   UNL     1       2.440   6.514  21.036  0.00  0.00    +0.000 HD
ENDBRANCH  14  18
TORSDOF 2
ENDMDL
MODEL 7
REMARK VINA RESULT:      -6.8      2.034      5.492
REMARK  Name = 
REMARK  2 active torsions:
REMARK  status: ('A' for Active; 'I' for Inactive)
REMARK    1  A    between atoms: N_1  and  C_2
REMARK    2  A    between atoms: C_15  and  O_16
REMARK                            x       y       z     vdW  Elec       q    Type
REMARK                         _______ _______ _______ _____ _____    ______ ____
ROOT
ATOM      1  C   UNL     1       3.601   5.649  17.871  0.00  0.00    +0.000 A 
ATOM      2  C   UNL     1       4.660   5.260  17.022  0.00  0.00    +0.000 A 
ATOM      3  C   UNL     1       4.783   3.903  16.716  0.00  0.00    +0.000 A 
ATOM      4  N   UNL     1       3.975   2.953  17.239  0.00  0.00    +0.000 NA
ATOM      5  C   UNL     1       3.018   3.313  18.099  0.00  0.00    +0.000 A 
ATOM      6  C   UNL     1       2.227   2.310  18.647  0.00  0.00    +0.000 A 
ATOM      7  C   UNL     1       1.205   2.581  19.554  0.00  0.00    +0.000 A 
ATOM      8  C   UNL     1       0.960   3.891  19.932  0.00  0.00    +0.000 A 
ATOM      9  C   UNL     1       1.745   4.918  19.403  0.00  0.00    +0.000 A 
ATOM     10  C   UNL     1       2.784   4.652  18.473  0.00  0.00    +0.000 A 
ATOM     11  C   UNL     1       5.880   3.383  15.822  0.00  0.00    +0.000 C 
ATOM     12  C   UNL     1       6.503   4.454  14.937  0.00  0.00    +0.000 C 
ATOM     13  C   UNL     1       6.854   5.674  15.778  0.00  0.00    +0.000 C 
ATOM     14  C   UNL     1       5.597   6.276  16.411  0.00  0.00    +0.000 C 
ENDROOT
BRANCH   1  15
ATOM     15  N   UNL     1       3.506   7.006  18.275  0.00  0.00    +0.000 N 
ATOM     16  H   UNL     1       3.496   7.114  19.289  0.00  0.00    +0.000 HD
ATOM     17  H   UNL     1       4.208   7.610  17.863  0.00  0.00    +0.000 HD
ENDBRANCH   1  15
BRANCH  14  18
ATOM     18  O   UNL     1       4.893   7.016  15.408  0.00  0.00    +0.000 OA
ATOM     19  H   UNL     1       3.960   7.065  15.682  0.00  0.00    +0.000 HD
ENDBRANCH  14  18
TORSDOF 2
ENDMDL
MODEL 8
REMARK VINA RESULT:      -6.7      2.257      5.016
REMARK  Name = 
REMARK  2 active torsions:
REMARK  status: ('A' for Active; 'I' for Inactive)
REMARK    1  A    between atoms: N_1  and  C_2
REMARK    2  A    between atoms: C_15  and  O_16
REMARK                            x       y       z     vdW  Elec       q    Type
REMARK                         _______ _______ _______ _____ _____    ______ ____
ROOT
ATOM      1  C   UNL     1       4.689   3.710  19.345  0.00  0.00    +0.000 A 
ATOM      2  C   UNL     1       5.248   4.683  18.487  0.00  0.00    +0.000 A 
ATOM      3  C   UNL     1       4.471   5.802  18.181  0.00  0.00    +0.000 A 
ATOM      4  N   UNL     1       3.202   5.963  18.619  0.00  0.00    +0.000 NA
ATOM      5  C   UNL     1       2.649   5.008  19.373  0.00  0.00    +0.000 A 
ATOM      6  C   UNL     1       1.331   5.185  19.778  0.00  0.00    +0.000 A 
ATOM      7  C   UNL     1       0.663   4.247  20.563  0.00  0.00    +0.000 A 
ATOM      8  C   UNL     1       1.322   3.094  20.957  0.00  0.00    +0.000 A 
ATOM      9  C   UNL     1       2.644   2.887  20.556  0.00  0.00    +0.000 A 
ATOM     10  C   UNL     1       3.335   3.841  19.763  0.00  0.00    +0.000 A 
ATOM     11  C   UNL     1       4.972   6.897  17.272  0.00  0.00    +0.000 C 
ATOM     12  C   UNL     1       6.488   6.919  17.126  0.00  0.00    +0.000 C 
ATOM     13  C   UNL     1       6.995   5.517  16.818  0.00  0.00    +0.000 C 
ATOM     14  C   UNL     1       6.659   4.556  17.962  0.00  0.00    +0.000 C 
ENDROOT
BRANCH   1  15
ATOM     15  N   UNL     1       5.416   2.519  19.600  0.00  0.00    +0.000 N 
ATOM     16  H   UNL     1       4.811   1.704  19.704  0.00  0.00    +0.000 HD
ATOM     17  H   UNL     1       6.148   2.329  18.925  0.00  0.00    +0.000 HD
ENDBRANCH   1  15
BRANCH  14  18
ATOM     18  O   UNL     1       7.578   4.787  19.035  0.00  0.00    +0.000 OA
ATOM     19  H   UNL     1       8.478   4.707  18.672  0.00  0.00    +0.000 HD
ENDBRANCH  14  18
TORSDOF 2
ENDMDL
MODEL 9
REMARK VINA RESULT:      -6.6      1.911      2.066
REMARK  Name = 
REMARK  2 active torsions:
REMARK  status: ('A' for Active; 'I' for Inactive)
REMARK    1  A    between atoms: N_1  and  C_2
REMARK    2  A    between atoms: C_15  and  O_16
REMARK                            x       y       z     vdW  Elec       q    Type
REMARK                         _______ _______ _______ _____ _____    ______ ____
ROOT
ATOM      1  C   UNL     1       4.875   3.704  18.970  0.00  0.00    +0.000 A 
ATOM      2  C   UNL     1       3.474   3.657  18.802  0.00  0.00    +0.000 A 
ATOM      3  C   UNL     1       2.876   4.667  18.046  0.00  0.00    +0.000 A 
ATOM      4  N   UNL     1       3.566   5.705  17.524  0.00  0.00    +0.000 NA
ATOM      5  C   UNL     1       4.882   5.788  17.744  0.00  0.00    +0.000 A 
ATOM      6  C   UNL     1       5.558   6.886  17.225  0.00  0.00    +0.000 A 
ATOM      7  C   UNL     1       6.929   7.065  17.401  0.00  0.00    +0.000 A 
ATOM      8  C   UNL     1       7.653   6.126  18.117  0.00  0.00    +0.000 A 
ATOM      9  C   UNL     1       6.997   5.018  18.657  0.00  0.00    +0.000 A 
ATOM     10  C   UNL     1       5.602   4.823  18.476  0.00  0.00    +0.000 A 
ATOM     11  C   UNL     1       1.387   4.711  17.809  0.00  0.00    +0.000 C 
ATOM     12  C   UNL     1       0.696   3.372  18.031  0.00  0.00    +0.000 C 
ATOM     13  C   UNL     1       1.139   2.780  19.362  0.00  0.00    +0.000 C 
ATOM     14  C   UNL     1       2.648   2.523  19.366  0.00  0.00    +0.000 C 
ENDROOT
BRANCH   1  15
ATOM     15  N   UNL     1       5.499   2.745  19.809  0.00  0.00    +0.000 N 
ATOM     16  H   UNL     1       4.897   1.946  20.008  0.00  0.00    +0.000 HD
ATOM     17  H   UNL     1       6.403   2.430  19.476  0.00  0.00    +0.000 HD
ENDBRANCH   1  15
BRANCH  14  18
ATOM     18  O   UNL     1       2.909   1.336  18.609  0.00  0.00    +0.000 OA
ATOM     19  H   UNL     1       3.448   1.592  17.840  0.00  0.00    +0.000 HD
ENDBRANCH  14  18
TORSDOF 2
ENDMDL
