MODEL 1
REMARK VINA RESULT:      -8.8      0.000      0.000
REMARK  Name = 
REMARK  5 active torsions:
REMARK  status: ('A' for Active; 'I' for Inactive)
REMARK    1  A    between atoms: C_1  and  C_2
REMARK    2  A    between atoms: C_4  and  C_5
REMARK    3  A    between atoms: C_10  and  C_12
REMARK    4  A    between atoms: C_13  and  C_14
REMARK    5  A    between atoms: C_17  and  C_18
REMARK                            x       y       z     vdW  Elec       q    Type
REMARK                         _______ _______ _______ _____ _____    ______ ____
ROOT
ATOM      1  C   UNL     1       6.305   6.606  16.846  0.00  0.00    +0.000 C 
ATOM      2  C   UNL     1       7.588   6.856  17.638  0.00  0.00    +0.000 C 
ATOM      3  C   UNL     1       7.886   5.817  18.704  0.00  0.00    +0.000 C 
ATOM      4  C   UNL     1       6.665   5.523  19.573  0.00  0.00    +0.000 C 
ATOM      5  N   UNL     1       5.515   5.143  18.756  0.00  0.00    +0.000 N 
ATOM      6  C   UNL     1       4.758   4.016  19.121  0.00  0.00    +0.000 C 
ATOM      7  O   UNL     1       5.167   3.241  19.988  0.00  0.00    +0.000 OA
ATOM      8  C   UNL     1       5.156   6.108  17.721  0.00  0.00    +0.000 C 
ENDROOT
BRANCH   1  12
ATOM      9  C   UNL     1       5.829   3.407  12.859  0.00  0.00    +0.000 C 
ATOM     10  C   UNL     1       6.213   4.378  13.903  0.00  0.00    +0.000 A 
ATOM     11  C   UNL     1       5.514   4.957  14.938  0.00  0.00    +0.000 A 
ATOM     12  C   UNL     1       6.469   5.732  15.638  0.00  0.00    +0.000 A 
ATOM     13  N   UNL     1       7.665   5.692  15.036  0.00  0.00    +0.000 NA
ATOM     14  N   UNL     1       7.480   4.883  13.985  0.00  0.00    +0.000 N 
ATOM     15  H   UNL     1       8.268   4.711  13.368  0.00  0.00    +0.000 HD
ENDBRANCH   1  12
BRANCH   6  16
ATOM     16  C   UNL     1       3.502   3.720  18.433  0.00  0.00    +0.000 A 
ATOM     17  C   UNL     1       2.337   4.497  18.123  0.00  0.00    +0.000 A 
ATOM     18  C   UNL     1       1.992   5.902  18.447  0.00  0.00    +0.000 C 
ATOM     19  N   UNL     1       1.436   3.784  17.438  0.00  0.00    +0.000 NA
ATOM     20  O   UNL     1       1.933   2.506  17.377  0.00  0.00    +0.000 OA
ATOM     21  C   UNL     1       3.132   2.451  18.005  0.00  0.00    +0.000 A 
ATOM     22  C   UNL     1       3.733   1.104  18.087  0.00  0.00    +0.000 C 
ENDBRANCH   6  16
TORSDOF 2
ENDMDL
MODEL 2
REMARK VINA RESULT:      -8.1      1.011      1.026
REMARK  Name = 
REMARK  5 active torsions:
REMARK  status: ('A' for Active; 'I' for Inactive)
REMARK    1  A    between atoms: C_1  and  C_2
REMARK    2  A    between atoms: C_4  and  C_5
REMARK    3  A    between atoms: C_10  and  C_12
REMARK    4  A    between atoms: C_13  and  C_14
REMARK    5  A    between atoms: C_17  and  C_18
REMARK                            x       y       z     vdW  Elec       q    Type
REMARK                         _______ _______ _______ _____ _____    ______ ____
ROOT
ATOM      1  C   UNL     1       6.000   6.128  16.665  0.00  0.00    +0.000 C 
ATOM      2  C   UNL     1       7.351   6.458  17.299  0.00  0.00    +0.000 C 
ATOM      3  C   UNL     1       7.742   5.559  18.457  0.00  0.00    +0.000 C 
ATOM      4  C   UNL     1       6.605   5.397  19.464  0.00  0.00    +0.000 C 
ATOM      5  N   UNL     1       5.384   4.933  18.811  0.00  0.00    +0.000 N 
ATOM      6  C   UNL     1       4.660   3.873  19.384  0.00  0.00    +0.000 C 
ATOM      7  O   UNL     1       5.144   3.209  20.303  0.00  0.00    +0.000 OA
ATOM      8  C   UNL     1       4.934   5.763  17.697  0.00  0.00    +0.000 C 
ENDROOT
BRANCH   1  12
ATOM      9  C   UNL     1       6.423   3.459  12.300  0.00  0.00    +0.000 C 
ATOM     10  C   UNL     1       6.281   3.982  13.674  0.00  0.00    +0.000 A 
ATOM     11  C   UNL     1       6.386   5.248  14.203  0.00  0.00    +0.000 A 
ATOM     12  C   UNL     1       6.049   5.105  15.569  0.00  0.00    +0.000 A 
ATOM     13  N   UNL     1       5.818   3.823  15.882  0.00  0.00    +0.000 NA
ATOM     14  N   UNL     1       5.981   3.165  14.727  0.00  0.00    +0.000 N 
ATOM     15  H   UNL     1       5.860   2.157  14.728  0.00  0.00    +0.000 HD
ENDBRANCH   1  12
BRANCH   6  16
ATOM     16  C   UNL     1       3.345   3.511  18.856  0.00  0.00    +0.000 A 
ATOM     17  C   UNL     1       2.042   4.101  18.957  0.00  0.00    +0.000 A 
ATOM     18  C   UNL     1       1.572   5.300  19.693  0.00  0.00    +0.000 C 
ATOM     19  N   UNL     1       1.132   3.408  18.264  0.00  0.00    +0.000 NA
ATOM     20  O   UNL     1       1.783   2.298  17.787  0.00  0.00    +0.000 OA
ATOM     21  C   UNL     1       3.082   2.329  18.175  0.00  0.00    +0.000 A 
ATOM     22  C   UNL     1       3.874   1.141  17.799  0.00  0.00    +0.000 C 
ENDBRANCH   6  16
TORSDOF 2
ENDMDL
MODEL 3
REMARK VINA RESULT:      -8.0      0.825      1.710
REMARK  Name = 
REMARK  5 active torsions:
REMARK  status: ('A' for Active; 'I' for Inactive)
REMARK    1  A    between atoms: C_1  and  C_2
REMARK    2  A    between atoms: C_4  and  C_5
REMARK    3  A    between atoms: C_10  and  C_12
REMARK    4  A    between atoms: C_13  and  C_14
REMARK    5  A    between atoms: C_17  and  C_18
REMARK                            x       y       z     vdW  Elec       q    Type
REMARK                         _______ _______ _______ _____ _____    ______ ____
ROOT
ATOM      1  C   UNL     1       6.242   6.572  16.990  0.00  0.00    +0.000 C 
ATOM      2  C   UNL     1       7.598   6.761  17.668  0.00  0.00    +0.000 C 
ATOM      3  C   UNL     1       7.936   5.709  18.709  0.00  0.00    +0.000 C 
ATOM      4  C   UNL     1       6.780   5.475  19.681  0.00  0.00    +0.000 C 
ATOM      5  N   UNL     1       5.548   5.151  18.967  0.00  0.00    +0.000 N 
ATOM      6  C   UNL     1       4.772   4.062  19.401  0.00  0.00    +0.000 C 
ATOM      7  O   UNL     1       5.215   3.268  20.233  0.00  0.00    +0.000 OA
ATOM      8  C   UNL     1       5.148   6.132  17.962  0.00  0.00    +0.000 C 
ENDROOT
BRANCH   1  12
ATOM      9  C   UNL     1       5.240   3.555  12.959  0.00  0.00    +0.000 C 
ATOM     10  C   UNL     1       5.783   4.425  14.022  0.00  0.00    +0.000 A 
ATOM     11  C   UNL     1       5.187   5.123  15.047  0.00  0.00    +0.000 A 
ATOM     12  C   UNL     1       6.258   5.691  15.776  0.00  0.00    +0.000 A 
ATOM     13  N   UNL     1       7.437   5.420  15.200  0.00  0.00    +0.000 NA
ATOM     14  N   UNL     1       7.122   4.671  14.137  0.00  0.00    +0.000 N 
ATOM     15  H   UNL     1       7.875   4.350  13.535  0.00  0.00    +0.000 HD
ENDBRANCH   1  12
BRANCH   6  16
ATOM     16  C   UNL     1       3.448   3.827  18.824  0.00  0.00    +0.000 A 
ATOM     17  C   UNL     1       2.980   3.076  17.696  0.00  0.00    +0.000 A 
ATOM     18  C   UNL     1       3.718   2.289  16.678  0.00  0.00    +0.000 C 
ATOM     19  N   UNL     1       1.649   3.137  17.579  0.00  0.00    +0.000 NA
ATOM     20  O   UNL     1       1.225   4.010  18.550  0.00  0.00    +0.000 OA
ATOM     21  C   UNL     1       2.289   4.459  19.258  0.00  0.00    +0.000 A 
ATOM     22  C   UNL     1       1.975   5.477  20.281  0.00  0.00    +0.000 C 
ENDBRANCH   6  16
TORSDOF 2
ENDMDL
MODEL 4
REMARK VINA RESULT:      -7.9      2.504      4.493
REMARK  Name = 
REMARK  5 active torsions:
REMARK  status: ('A' for Active; 'I' for Inactive)
REMARK    1  A    between atoms: C_1  and  C_2
REMARK    2  A    between atoms: C_4  and  C_5
REMARK    3  A    between atoms: C_10  and  C_12
REMARK    4  A    between atoms: C_13  and  C_14
REMARK    5  A    between atoms: C_17  and  C_18
REMARK                            x       y       z     vdW  Elec       q    Type
REMARK                         _______ _______ _______ _____ _____    ______ ____
ROOT
ATOM      1  C   UNL     1       5.072   5.996  18.028  0.00  0.00    +0.000 C 
ATOM      2  C   UNL     1       5.464   5.881  16.556  0.00  0.00    +0.000 C 
ATOM      3  C   UNL     1       4.777   4.754  15.805  0.00  0.00    +0.000 C 
ATOM      4  C   UNL     1       4.841   3.434  16.571  0.00  0.00    +0.000 C 
ATOM      5  N   UNL     1       4.310   3.584  17.924  0.00  0.00    +0.000 N 
ATOM      6  C   UNL     1       3.398   2.630  18.410  0.00  0.00    +0.000 C 
ATOM      7  O   UNL     1       2.895   1.800  17.651  0.00  0.00    +0.000 OA
ATOM      8  C   UNL     1       4.939   4.637  18.714  0.00  0.00    +0.000 C 
ENDROOT
BRANCH   1  12
ATOM      9  C   UNL     1       1.207   9.374  18.028  0.00  0.00    +0.000 C 
ATOM     10  C   UNL     1       2.189   8.291  18.241  0.00  0.00    +0.000 A 
ATOM     11  C   UNL     1       3.285   7.876  17.521  0.00  0.00    +0.000 A 
ATOM     12  C   UNL     1       3.866   6.846  18.297  0.00  0.00    +0.000 A 
ATOM     13  N   UNL     1       3.139   6.593  19.393  0.00  0.00    +0.000 NA
ATOM     14  N   UNL     1       2.125   7.465  19.327  0.00  0.00    +0.000 N 
ATOM     15  H   UNL     1       1.429   7.449  20.066  0.00  0.00    +0.000 HD
ENDBRANCH   1  12
BRANCH   6  16
ATOM     16  C   UNL     1       2.993   2.652  19.816  0.00  0.00    +0.000 A 
ATOM     17  C   UNL     1       1.893   3.245  20.519  0.00  0.00    +0.000 A 
ATOM     18  C   UNL     1       0.781   4.101  20.039  0.00  0.00    +0.000 C 
ATOM     19  N   UNL     1       1.930   2.960  21.825  0.00  0.00    +0.000 NA
ATOM     20  O   UNL     1       3.101   2.273  22.028  0.00  0.00    +0.000 OA
ATOM     21  C   UNL     1       3.757   2.129  20.851  0.00  0.00    +0.000 A 
ATOM     22  C   UNL     1       5.081   1.480  20.949  0.00  0.00    +0.000 C 
ENDBRANCH   6  16
TORSDOF 2
ENDMDL
MODEL 5
REMARK VINA RESULT:      -7.5      2.392      5.560
REMARK  Name = 
REMARK  5 active torsions:
REMARK  status: ('A' for Active; 'I' for Inactive)
REMARK    1  A    between atoms: C_1  and  C_2
REMARK    2  A    between atoms: C_4  and  C_5
REMARK    3  A    between atoms: C_10  and  C_12
REMARK    4  A    between atoms: C_13  and  C_14
REMARK    5  A    between atoms: C_17  and  C_18
REMARK                            x       y       z     vdW  Elec       q    Type
REMARK                         _______ _______ _______ _____ _____    ______ ____
ROOT
ATOM      1  C   UNL     1       2.268   5.263  17.922  0.00  0.00    +0.000 C 
ATOM      2  C   UNL     1       1.710   4.644  19.203  0.00  0.00    +0.000 C 
ATOM      3  C   UNL     1       2.747   4.375  20.279  0.00  0.00    +0.000 C 
ATOM      4  C   UNL     1       3.974   3.655  19.722  0.00  0.00    +0.000 C 
ATOM      5  N   UNL     1       4.545   4.382  18.592  0.00  0.00    +0.000 N 
ATOM      6  C   UNL     1       5.934   4.598  18.548  0.00  0.00    +0.000 C 
ATOM      7  O   UNL     1       6.636   4.362  19.533  0.00  0.00    +0.000 OA
ATOM      8  C   UNL     1       3.609   4.660  17.507  0.00  0.00    +0.000 C 
ENDROOT
BRANCH   1  12
ATOM      9  C   UNL     1       1.516  10.327  18.305  0.00  0.00    +0.000 C 
ATOM     10  C   UNL     1       1.991   8.938  18.141  0.00  0.00    +0.000 A 
ATOM     11  C   UNL     1       1.390   7.719  18.353  0.00  0.00    +0.000 A 
ATOM     12  C   UNL     1       2.338   6.762  17.922  0.00  0.00    +0.000 A 
ATOM     13  N   UNL     1       3.479   7.347  17.533  0.00  0.00    +0.000 NA
ATOM     14  N   UNL     1       3.250   8.656  17.690  0.00  0.00    +0.000 N 
ATOM     15  H   UNL     1       3.996   9.305  17.458  0.00  0.00    +0.000 HD
ENDBRANCH   1  12
BRANCH   6  16
ATOM     16  C   UNL     1       6.553   5.160  17.347  0.00  0.00    +0.000 A 
ATOM     17  C   UNL     1       6.605   4.745  15.976  0.00  0.00    +0.000 A 
ATOM     18  C   UNL     1       6.061   3.541  15.302  0.00  0.00    +0.000 C 
ATOM     19  N   UNL     1       7.280   5.620  15.221  0.00  0.00    +0.000 NA
ATOM     20  O   UNL     1       7.777   6.562  16.087  0.00  0.00    +0.000 OA
ATOM     21  C   UNL     1       7.390   6.268  17.352  0.00  0.00    +0.000 A 
ATOM     22  C   UNL     1       7.935   7.162  18.395  0.00  0.00    +0.000 C 
ENDBRANCH   6  16
TORSDOF 2
ENDMDL
MODEL 6
REMARK VINA RESULT:      -7.5      2.534      4.649
REMARK  Name = 
REMARK  5 active torsions:
REMARK  status: ('A' for Active; 'I' for Inactive)
REMARK    1  A    between atoms: C_1  and  C_2
REMARK    2  A    between atoms: C_4  and  C_5
REMARK    3  A    between atoms: C_10  and  C_12
REMARK    4  A    between atoms: C_13  and  C_14
REMARK    5  A    between atoms: C_17  and  C_18
REMARK                            x       y       z     vdW  Elec       q    Type
REMARK                         _______ _______ _______ _____ _____    ______ ____
ROOT
ATOM      1  C   UNL     1       5.156   6.089  17.955  0.00  0.00    +0.000 C 
ATOM      2  C   UNL     1       5.575   6.024  16.487  0.00  0.00    +0.000 C 
ATOM      3  C   UNL     1       4.938   4.894  15.698  0.00  0.00    +0.000 C 
ATOM      4  C   UNL     1       5.035   3.558  16.433  0.00  0.00    +0.000 C 
ATOM      5  N   UNL     1       4.478   3.656  17.780  0.00  0.00    +0.000 N 
ATOM      6  C   UNL     1       3.592   2.661  18.229  0.00  0.00    +0.000 C 
ATOM      7  O   UNL     1       3.129   1.833  17.442  0.00  0.00    +0.000 OA
ATOM      8  C   UNL     1       5.059   4.711  18.606  0.00  0.00    +0.000 C 
ENDROOT
BRANCH   1  12
ATOM      9  C   UNL     1       1.200   9.360  17.995  0.00  0.00    +0.000 C 
ATOM     10  C   UNL     1       2.204   8.293  18.184  0.00  0.00    +0.000 A 
ATOM     11  C   UNL     1       3.337   7.947  17.484  0.00  0.00    +0.000 A 
ATOM     12  C   UNL     1       3.918   6.891  18.225  0.00  0.00    +0.000 A 
ATOM     13  N   UNL     1       3.159   6.559  19.277  0.00  0.00    +0.000 NA
ATOM     14  N   UNL     1       2.124   7.407  19.221  0.00  0.00    +0.000 N 
ATOM     15  H   UNL     1       1.403   7.331  19.931  0.00  0.00    +0.000 HD
ENDBRANCH   1  12
BRANCH   6  16
ATOM     16  C   UNL     1       3.164   2.634  19.627  0.00  0.00    +0.000 A 
ATOM     17  C   UNL     1       3.765   2.150  20.836  0.00  0.00    +0.000 A 
ATOM     18  C   UNL     1       5.052   1.452  21.070  0.00  0.00    +0.000 C 
ATOM     19  N   UNL     1       2.987   2.379  21.900  0.00  0.00    +0.000 NA
ATOM     20  O   UNL     1       1.822   2.913  21.408  0.00  0.00    +0.000 OA
ATOM     21  C   UNL     1       1.902   3.022  20.060  0.00  0.00    +0.000 A 
ATOM     22  C   UNL     1       0.673   3.504  19.398  0.00  0.00    +0.000 C 
ENDBRANCH   6  16
TORSDOF 2
ENDMDL
MODEL 7
REMARK VINA RESULT:      -7.4      1.260      1.381
REMARK  Name = 
REMARK  5 active torsions:
REMARK  status: ('A' for Active; 'I' for Inactive)
REMARK    1  A    between atoms: C_1  and  C_2
REMARK    2  A    between atoms: C_4  and  C_5
REMARK    3  A    between atoms: C_10  and  C_12
REMARK    4  A    between atoms: C_13  and  C_14
REMARK    5  A    between atoms: C_17  and  C_18
REMARK                            x       y       z     vdW  Elec       q    Type
REMARK                         _______ _______ _______ _____ _____    ______ ____
ROOT
ATOM      1  C   UNL     1       6.244   6.775  17.408  0.00  0.00    +0.000 C 
ATOM      2  C   UNL     1       7.633   6.794  18.046  0.00  0.00    +0.000 C 
ATOM      3  C   UNL     1       7.967   5.565  18.871  0.00  0.00    +0.000 C 
ATOM      4  C   UNL     1       6.842   5.204  19.839  0.00  0.00    +0.000 C 
ATOM      5  N   UNL     1       5.570   5.054  19.138  0.00  0.00    +0.000 N 
ATOM      6  C   UNL     1       4.766   3.933  19.411  0.00  0.00    +0.000 C 
ATOM      7  O   UNL     1       5.208   2.991  20.071  0.00  0.00    +0.000 OA
ATOM      8  C   UNL     1       5.173   6.209  18.338  0.00  0.00    +0.000 C 
ENDROOT
BRANCH   1  12
ATOM      9  C   UNL     1       6.799   3.927  13.173  0.00  0.00    +0.000 C 
ATOM     10  C   UNL     1       6.417   4.844  14.267  0.00  0.00    +0.000 A 
ATOM     11  C   UNL     1       6.904   5.025  15.541  0.00  0.00    +0.000 A 
ATOM     12  C   UNL     1       6.176   6.121  16.060  0.00  0.00    +0.000 A 
ATOM     13  N   UNL     1       5.251   6.548  15.190  0.00  0.00    +0.000 NA
ATOM     14  N   UNL     1       5.406   5.752  14.125  0.00  0.00    +0.000 N 
ATOM     15  H   UNL     1       4.792   5.892  13.328  0.00  0.00    +0.000 HD
ENDBRANCH   1  12
BRANCH   6  16
ATOM     16  C   UNL     1       3.412   3.849  18.863  0.00  0.00    +0.000 A 
ATOM     17  C   UNL     1       2.104   3.934  19.444  0.00  0.00    +0.000 A 
ATOM     18  C   UNL     1       1.674   4.100  20.854  0.00  0.00    +0.000 C 
ATOM     19  N   UNL     1       1.145   3.826  18.518  0.00  0.00    +0.000 NA
ATOM     20  O   UNL     1       1.789   3.560  17.336  0.00  0.00    +0.000 OA
ATOM     21  C   UNL     1       3.128   3.525  17.543  0.00  0.00    +0.000 A 
ATOM     22  C   UNL     1       3.934   3.159  16.360  0.00  0.00    +0.000 C 
ENDBRANCH   6  16
TORSDOF 2
ENDMDL
MODEL 8
REMARK VINA RESULT:      -7.4      2.378      5.480
REMARK  Name = 
REMARK  5 active torsions:
REMARK  status: ('A' for Active; 'I' for Inactive)
REMARK    1  A    between atoms: C_1  and  C_2
REMARK    2  A    between atoms: C_4  and  C_5
REMARK    3  A    between atoms: C_10  and  C_12
REMARK    4  A    between atoms: C_13  and  C_14
REMARK    5  A    between atoms: C_17  and  C_18
REMARK                            x       y       z     vdW  Elec       q    Type
REMARK                         _______ _______ _______ _____ _____    ______ ____
ROOT
ATOM      1  C   UNL     1       3.192   6.037  19.628  0.00  0.00    +0.000 C 
ATOM      2  C   UNL     1       2.131   7.115  19.412  0.00  0.00    +0.000 C 
ATOM      3  C   UNL     1       2.083   7.683  18.005  0.00  0.00    +0.000 C 
ATOM      4  C   UNL     1       3.472   8.065  17.496  0.00  0.00    +0.000 C 
ATOM      5  N   UNL     1       4.397   6.940  17.592  0.00  0.00    +0.000 N 
ATOM      6  C   UNL     1       5.212   6.627  16.489  0.00  0.00    +0.000 C 
ATOM      7  O   UNL     1       5.012   7.153  15.393  0.00  0.00    +0.000 OA
ATOM      8  C   UNL     1       4.511   6.354  18.924  0.00  0.00    +0.000 C 
ENDROOT
BRANCH   1  12
ATOM      9  C   UNL     1       0.696   1.635  18.768  0.00  0.00    +0.000 C 
ATOM     10  C   UNL     1       1.630   2.770  18.912  0.00  0.00    +0.000 A 
ATOM     11  C   UNL     1       1.447   4.084  19.276  0.00  0.00    +0.000 A 
ATOM     12  C   UNL     1       2.747   4.640  19.314  0.00  0.00    +0.000 A 
ATOM     13  N   UNL     1       3.670   3.746  18.932  0.00  0.00    +0.000 NA
ATOM     14  N   UNL     1       2.969   2.634  18.680  0.00  0.00    +0.000 N 
ATOM     15  H   UNL     1       3.473   1.811  18.362  0.00  0.00    +0.000 HD
ENDBRANCH   1  12
BRANCH   6  16
ATOM     16  C   UNL     1       6.271   5.626  16.619  0.00  0.00    +0.000 A 
ATOM     17  C   UNL     1       7.370   5.462  17.525  0.00  0.00    +0.000 A 
ATOM     18  C   UNL     1       7.836   6.306  18.652  0.00  0.00    +0.000 C 
ATOM     19  N   UNL     1       8.067   4.351  17.260  0.00  0.00    +0.000 NA
ATOM     20  O   UNL     1       7.517   3.824  16.118  0.00  0.00    +0.000 OA
ATOM     21  C   UNL     1       6.485   4.600  15.707  0.00  0.00    +0.000 A 
ATOM     22  C   UNL     1       5.862   4.188  14.433  0.00  0.00    +0.000 C 
ENDBRANCH   6  16
TORSDOF 2
ENDMDL
MODEL 9
REMARK VINA RESULT:      -7.2      2.461      4.315
REMARK  Name = 
REMARK  5 active torsions:
REMARK  status: ('A' for Active; 'I' for Inactive)
REMARK    1  A    between atoms: C_1  and  C_2
REMARK    2  A    between atoms: C_4  and  C_5
REMARK    3  A    between atoms: C_10  and  C_12
REMARK    4  A    between atoms: C_13  and  C_14
REMARK    5  A    between atoms: C_17  and  C_18
REMARK                            x       y       z     vdW  Elec       q    Type
REMARK                         _______ _______ _______ _____ _____    ______ ____
ROOT
ATOM      1  C   UNL     1       7.076   5.098  18.176  0.00  0.00    +0.000 C 
ATOM      2  C   UNL     1       7.471   4.221  16.988  0.00  0.00    +0.000 C 
ATOM      3  C   UNL     1       6.351   3.954  15.999  0.00  0.00    +0.000 C 
ATOM      4  C   UNL     1       5.065   3.514  16.696  0.00  0.00    +0.000 C 
ATOM      5  N   UNL     1       4.664   4.478  17.718  0.00  0.00    +0.000 N 
ATOM      6  C   UNL     1       3.324   4.902  17.770  0.00  0.00    +0.000 C 
ATOM      7  O   UNL     1       2.545   4.631  16.855  0.00  0.00    +0.000 OA
ATOM      8  C   UNL     1       5.686   4.769  18.719  0.00  0.00    +0.000 C 
ENDROOT
BRANCH   1  12
ATOM      9  C   UNL     1       8.401  10.056  18.059  0.00  0.00    +0.000 C 
ATOM     10  C   UNL     1       7.848   8.697  17.891  0.00  0.00    +0.000 A 
ATOM     11  C   UNL     1       8.192   7.479  18.433  0.00  0.00    +0.000 A 
ATOM     12  C   UNL     1       7.220   6.573  17.948  0.00  0.00    +0.000 A 
ATOM     13  N   UNL     1       6.370   7.175  17.105  0.00  0.00    +0.000 NA
ATOM     14  N   UNL     1       6.780   8.449  17.076  0.00  0.00    +0.000 N 
ATOM     15  H   UNL     1       6.276   9.102  16.483  0.00  0.00    +0.000 HD
ENDBRANCH   1  12
BRANCH   6  16
ATOM     16  C   UNL     1       2.856   5.720  18.889  0.00  0.00    +0.000 A 
ATOM     17  C   UNL     1       2.370   5.414  20.202  0.00  0.00    +0.000 A 
ATOM     18  C   UNL     1       2.134   4.112  20.873  0.00  0.00    +0.000 C 
ATOM     19  N   UNL     1       2.083   6.523  20.894  0.00  0.00    +0.000 NA
ATOM     20  O   UNL     1       2.266   7.568  20.024  0.00  0.00    +0.000 OA
ATOM     21  C   UNL     1       2.678   7.096  18.822  0.00  0.00    +0.000 A 
ATOM     22  C   UNL     1       2.827   8.119  17.767  0.00  0.00    +0.000 C 
ENDBRANCH   6  16
TORSDOF 2
ENDMDL
