MODEL 1
REMARK VINA RESULT:      -8.1      0.000      0.000
REMARK  Name = 
REMARK  4 active torsions:
REMARK  status: ('A' for Active; 'I' for Inactive)
REMARK    1  A    between atoms: C_2  and  C_3
REMARK    2  A    between atoms: C_4  and  C_5
REMARK    3  A    between atoms: N_12  and  N_13
REMARK    4  A    between atoms: C_14  and  C_16
REMARK                            x       y       z     vdW  Elec       q    Type
REMARK                         _______ _______ _______ _____ _____    ______ ____
ROOT
ATOM      1  N   UNL     1       6.225   6.717  17.430  0.00  0.00    +0.000 N 
ATOM      2  C   UNL     1       4.868   6.864  17.651  0.00  0.00    +0.000 C 
ATOM      3  O   UNL     1       4.329   7.965  17.736  0.00  0.00    +0.000 OA
ATOM      4  H   UNL     1       6.683   5.839  17.190  0.00  0.00    +0.000 HD
ENDROOT
BRANCH   2   5
ATOM      5  C   UNL     1       4.061   5.621  17.760  0.00  0.00    +0.000 A 
ATOM      6  C   UNL     1       4.281   4.598  16.825  0.00  0.00    +0.000 A 
ATOM      7  C   UNL     1       3.528   3.421  16.875  0.00  0.00    +0.000 A 
ATOM      8  C   UNL     1       2.540   3.273  17.845  0.00  0.00    +0.000 A 
ATOM      9  C   UNL     1       2.317   4.292  18.778  0.00  0.00    +0.000 A 
ATOM     10  C   UNL     1       3.066   5.470  18.732  0.00  0.00    +0.000 A 
ATOM     11  O   UNL     1       1.363   4.212  19.760  0.00  0.00    +0.000 OA
ATOM     12  C   UNL     1       0.903   2.867  19.938  0.00  0.00    +0.000 C 
ATOM     13  C   UNL     1       0.627   2.204  18.599  0.00  0.00    +0.000 C 
ATOM     14  O   UNL     1       1.826   2.104  17.822  0.00  0.00    +0.000 OA
ENDBRANCH   2   5
BRANCH   1  17
ATOM     15  O   UNL     1       8.487   7.312  18.918  0.00  0.00    +0.000 OA
ATOM     16  C   UNL     1       8.065   8.117  18.096  0.00  0.00    +0.000 C 
ATOM     17  N   UNL     1       6.980   7.888  17.281  0.00  0.00    +0.000 N 
ATOM     18  H   UNL     1       6.600   8.575  16.632  0.00  0.00    +0.000 HD
BRANCH  16  19
ATOM     19  C   UNL     1       8.657   9.466  17.889  0.00  0.00    +0.000 C 
ATOM     20  C   UNL     1       9.185  10.156  18.912  0.00  0.00    +0.000 C 
BRANCH  20  21
ATOM     21  C   UNL     1       9.714  11.516  18.734  0.00  0.00    +0.000 A 
ATOM     22  C   UNL     1      10.238  11.850  17.474  0.00  0.00    +0.000 A 
ATOM     23  C   UNL     1      10.757  13.123  17.227  0.00  0.00    +0.000 A 
ATOM     24  C   UNL     1      10.758  14.084  18.237  0.00  0.00    +0.000 A 
ATOM     25  C   UNL     1      10.244  13.769  19.494  0.00  0.00    +0.000 A 
ATOM     26  C   UNL     1       9.726  12.491  19.744  0.00  0.00    +0.000 A 
ATOM     27 BR   UNL     1       9.060  12.143  21.489  0.00  0.00    +0.000 Br
ENDBRANCH  20  21
ENDBRANCH  16  19
ENDBRANCH   1  17
TORSDOF 4
ENDMDL
MODEL 2
REMARK VINA RESULT:      -7.9      1.341      1.389
REMARK  Name = 
REMARK  4 active torsions:
REMARK  status: ('A' for Active; 'I' for Inactive)
REMARK    1  A    between atoms: C_2  and  C_3
REMARK    2  A    between atoms: C_4  and  C_5
REMARK    3  A    between atoms: N_12  and  N_13
REMARK    4  A    between atoms: C_14  and  C_16
REMARK                            x       y       z     vdW  Elec       q    Type
REMARK                         _______ _______ _______ _____ _____    ______ ____
ROOT
ATOM      1  N   UNL     1       6.008   7.157  17.728  0.00  0.00    +0.000 N 
ATOM      2  C   UNL     1       5.341   6.486  16.720  0.00  0.00    +0.000 C 
ATOM      3  O   UNL     1       5.483   6.771  15.533  0.00  0.00    +0.000 OA
ATOM      4  H   UNL     1       6.050   6.852  18.700  0.00  0.00    +0.000 HD
ENDROOT
BRANCH   2   5
ATOM      5  C   UNL     1       4.446   5.370  17.124  0.00  0.00    +0.000 A 
ATOM      6  C   UNL     1       4.613   4.123  16.503  0.00  0.00    +0.000 A 
ATOM      7  C   UNL     1       3.779   3.052  16.835  0.00  0.00    +0.000 A 
ATOM      8  C   UNL     1       2.764   3.229  17.772  0.00  0.00    +0.000 A 
ATOM      9  C   UNL     1       2.596   4.471  18.394  0.00  0.00    +0.000 A 
ATOM     10  C   UNL     1       3.426   5.546  18.065  0.00  0.00    +0.000 A 
ATOM     11  O   UNL     1       1.620   4.716  19.326  0.00  0.00    +0.000 OA
ATOM     12  C   UNL     1       1.064   3.499  19.837  0.00  0.00    +0.000 C 
ATOM     13  C   UNL     1       0.768   2.521  18.711  0.00  0.00    +0.000 C 
ATOM     14  O   UNL     1       1.972   2.143  18.034  0.00  0.00    +0.000 OA
ENDBRANCH   2   5
BRANCH   1  17
ATOM     15  O   UNL     1       8.510   7.560  18.851  0.00  0.00    +0.000 OA
ATOM     16  C   UNL     1       8.093   8.327  17.991  0.00  0.00    +0.000 C 
ATOM     17  N   UNL     1       6.887   8.178  17.345  0.00  0.00    +0.000 N 
ATOM     18  H   UNL     1       6.519   8.841  16.664  0.00  0.00    +0.000 HD
BRANCH  16  19
ATOM     19  C   UNL     1       8.829   9.542  17.546  0.00  0.00    +0.000 C 
ATOM     20  C   UNL     1       9.240  10.465  18.430  0.00  0.00    +0.000 C 
BRANCH  20  21
ATOM     21  C   UNL     1       9.910  11.700  17.999  0.00  0.00    +0.000 A 
ATOM     22  C   UNL     1      11.314  11.717  18.010  0.00  0.00    +0.000 A 
ATOM     23  C   UNL     1      12.022  12.854  17.613  0.00  0.00    +0.000 A 
ATOM     24  C   UNL     1      11.335  13.993  17.195  0.00  0.00    +0.000 A 
ATOM     25  C   UNL     1       9.941  13.996  17.181  0.00  0.00    +0.000 A 
ATOM     26  C   UNL     1       9.230  12.856  17.583  0.00  0.00    +0.000 A 
ATOM     27 BR   UNL     1       7.332  12.952  17.546  0.00  0.00    +0.000 Br
ENDBRANCH  20  21
ENDBRANCH  16  19
ENDBRANCH   1  17
TORSDOF 4
ENDMDL
MODEL 3
REMARK VINA RESULT:      -7.7      5.964      8.617
REMARK  Name = 
REMARK  4 active torsions:
REMARK  status: ('A' for Active; 'I' for Inactive)
REMARK    1  A    between atoms: C_2  and  C_3
REMARK    2  A    between atoms: C_4  and  C_5
REMARK    3  A    between atoms: N_12  and  N_13
REMARK    4  A    between atoms: C_14  and  C_16
REMARK                            x       y       z     vdW  Elec       q    Type
REMARK                         _______ _______ _______ _____ _____    ______ ____
ROOT
ATOM      1  N   UNL     1       1.541   8.104  20.535  0.00  0.00    +0.000 N 
ATOM      2  C   UNL     1       0.915   9.216  20.004  0.00  0.00    +0.000 C 
ATOM      3  O   UNL     1       1.014   9.525  18.818  0.00  0.00    +0.000 OA
ATOM      4  H   UNL     1       1.356   7.719  21.460  0.00  0.00    +0.000 HD
ENDROOT
BRANCH   2   5
ATOM      5  C   UNL     1       0.078  10.028  20.925  0.00  0.00    +0.000 A 
ATOM      6  C   UNL     1      -0.047   9.608  22.258  0.00  0.00    +0.000 A 
ATOM      7  C   UNL     1      -0.842  10.328  23.154  0.00  0.00    +0.000 A 
ATOM      8  C   UNL     1      -1.531  11.456  22.715  0.00  0.00    +0.000 A 
ATOM      9  C   UNL     1      -1.408  11.878  21.386  0.00  0.00    +0.000 A 
ATOM     10  C   UNL     1      -0.615  11.161  20.487  0.00  0.00    +0.000 A 
ATOM     11  O   UNL     1      -2.055  12.979  20.887  0.00  0.00    +0.000 OA
ATOM     12  C   UNL     1      -2.548  13.820  21.937  0.00  0.00    +0.000 C 
ATOM     13  C   UNL     1      -3.234  12.999  23.017  0.00  0.00    +0.000 C 
ATOM     14  O   UNL     1      -2.308  12.101  23.641  0.00  0.00    +0.000 OA
ENDBRANCH   2   5
BRANCH   1  17
ATOM     15  O   UNL     1       1.788   5.351  20.746  0.00  0.00    +0.000 OA
ATOM     16  C   UNL     1       2.392   5.955  19.867  0.00  0.00    +0.000 C 
ATOM     17  N   UNL     1       2.292   7.311  19.657  0.00  0.00    +0.000 N 
ATOM     18  H   UNL     1       2.829   7.820  18.957  0.00  0.00    +0.000 HD
BRANCH  16  19
ATOM     19  C   UNL     1       3.337   5.301  18.921  0.00  0.00    +0.000 C 
ATOM     20  C   UNL     1       4.352   5.986  18.373  0.00  0.00    +0.000 C 
BRANCH  20  21
ATOM     21  C   UNL     1       5.254   5.371  17.388  0.00  0.00    +0.000 A 
ATOM     22  C   UNL     1       4.691   4.927  16.180  0.00  0.00    +0.000 A 
ATOM     23  C   UNL     1       5.484   4.334  15.194  0.00  0.00    +0.000 A 
ATOM     24  C   UNL     1       6.854   4.178  15.401  0.00  0.00    +0.000 A 
ATOM     25  C   UNL     1       7.429   4.609  16.595  0.00  0.00    +0.000 A 
ATOM     26  C   UNL     1       6.634   5.202  17.586  0.00  0.00    +0.000 A 
ATOM     27 BR   UNL     1       7.496   5.748  19.189  0.00  0.00    +0.000 Br
ENDBRANCH  20  21
ENDBRANCH  16  19
ENDBRANCH   1  17
TORSDOF 4
ENDMDL
MODEL 4
REMARK VINA RESULT:      -7.6      7.355      9.799
REMARK  Name = 
REMARK  4 active torsions:
REMARK  status: ('A' for Active; 'I' for Inactive)
REMARK    1  A    between atoms: C_2  and  C_3
REMARK    2  A    between atoms: C_4  and  C_5
REMARK    3  A    between atoms: N_12  and  N_13
REMARK    4  A    between atoms: C_14  and  C_16
REMARK                            x       y       z     vdW  Elec       q    Type
REMARK                         _______ _______ _______ _____ _____    ______ ____
ROOT
ATOM      1  N   UNL     1       0.285  10.265  19.953  0.00  0.00    +0.000 N 
ATOM      2  C   UNL     1       0.477  10.500  21.301  0.00  0.00    +0.000 C 
ATOM      3  O   UNL     1       1.310   9.887  21.966  0.00  0.00    +0.000 OA
ATOM      4  H   UNL     1      -0.268  10.855  19.333  0.00  0.00    +0.000 HD
ENDROOT
BRANCH   2   5
ATOM      5  C   UNL     1      -0.356  11.558  21.931  0.00  0.00    +0.000 A 
ATOM      6  C   UNL     1       0.070  12.891  21.831  0.00  0.00    +0.000 A 
ATOM      7  C   UNL     1      -0.669  13.915  22.427  0.00  0.00    +0.000 A 
ATOM      8  C   UNL     1      -1.824  13.609  23.143  0.00  0.00    +0.000 A 
ATOM      9  C   UNL     1      -2.252  12.281  23.244  0.00  0.00    +0.000 A 
ATOM     10  C   UNL     1      -1.516  11.252  22.651  0.00  0.00    +0.000 A 
ATOM     11  O   UNL     1      -3.379  11.908  23.931  0.00  0.00    +0.000 OA
ATOM     12  C   UNL     1      -4.228  13.031  24.198  0.00  0.00    +0.000 C 
ATOM     13  C   UNL     1      -3.422  14.214  24.708  0.00  0.00    +0.000 C 
ATOM     14  O   UNL     1      -2.488  14.660  23.719  0.00  0.00    +0.000 OA
ENDBRANCH   2   5
BRANCH   1  17
ATOM     15  O   UNL     1       2.049  10.795  17.882  0.00  0.00    +0.000 OA
ATOM     16  C   UNL     1       1.917   9.650  18.296  0.00  0.00    +0.000 C 
ATOM     17  N   UNL     1       1.102   9.300  19.349  0.00  0.00    +0.000 N 
ATOM     18  H   UNL     1       0.956   8.342  19.663  0.00  0.00    +0.000 HD
BRANCH  16  19
ATOM     19  C   UNL     1       2.604   8.474  17.694  0.00  0.00    +0.000 C 
ATOM     20  C   UNL     1       2.750   7.331  18.382  0.00  0.00    +0.000 C 
BRANCH  20  21
ATOM     21  C   UNL     1       3.484   6.185  17.825  0.00  0.00    +0.000 A 
ATOM     22  C   UNL     1       4.536   6.457  16.935  0.00  0.00    +0.000 A 
ATOM     23  C   UNL     1       5.280   5.420  16.366  0.00  0.00    +0.000 A 
ATOM     24  C   UNL     1       4.985   4.095  16.681  0.00  0.00    +0.000 A 
ATOM     25  C   UNL     1       3.942   3.807  17.560  0.00  0.00    +0.000 A 
ATOM     26  C   UNL     1       3.192   4.845  18.129  0.00  0.00    +0.000 A 
ATOM     27 BR   UNL     1       1.780   4.363  19.305  0.00  0.00    +0.000 Br
ENDBRANCH  20  21
ENDBRANCH  16  19
ENDBRANCH   1  17
TORSDOF 4
ENDMDL
MODEL 5
REMARK VINA RESULT:      -7.6      1.611      1.810
REMARK  Name = 
REMARK  4 active torsions:
REMARK  status: ('A' for Active; 'I' for Inactive)
REMARK    1  A    between atoms: C_2  and  C_3
REMARK    2  A    between atoms: C_4  and  C_5
REMARK    3  A    between atoms: N_12  and  N_13
REMARK    4  A    between atoms: C_14  and  C_16
REMARK                            x       y       z     vdW  Elec       q    Type
REMARK                         _______ _______ _______ _____ _____    ______ ____
ROOT
ATOM      1  N   UNL     1       6.534   7.794  17.630  0.00  0.00    +0.000 N 
ATOM      2  C   UNL     1       6.674   6.585  16.976  0.00  0.00    +0.000 C 
ATOM      3  O   UNL     1       7.546   6.389  16.132  0.00  0.00    +0.000 OA
ATOM      4  H   UNL     1       5.942   7.949  18.445  0.00  0.00    +0.000 HD
ENDROOT
BRANCH   2   5
ATOM      5  C   UNL     1       5.732   5.498  17.351  0.00  0.00    +0.000 A 
ATOM      6  C   UNL     1       5.522   4.453  16.439  0.00  0.00    +0.000 A 
ATOM      7  C   UNL     1       4.628   3.422  16.740  0.00  0.00    +0.000 A 
ATOM      8  C   UNL     1       3.925   3.444  17.942  0.00  0.00    +0.000 A 
ATOM      9  C   UNL     1       4.133   4.485  18.854  0.00  0.00    +0.000 A 
ATOM     10  C   UNL     1       5.025   5.519  18.558  0.00  0.00    +0.000 A 
ATOM     11  O   UNL     1       3.478   4.569  20.057  0.00  0.00    +0.000 OA
ATOM     12  C   UNL     1       2.868   3.322  20.411  0.00  0.00    +0.000 C 
ATOM     13  C   UNL     1       2.137   2.717  19.224  0.00  0.00    +0.000 C 
ATOM     14  O   UNL     1       3.050   2.414  18.163  0.00  0.00    +0.000 OA
ENDBRANCH   2   5
BRANCH   1  17
ATOM     15  O   UNL     1       8.709   8.479  19.208  0.00  0.00    +0.000 OA
ATOM     16  C   UNL     1       8.477   9.103  18.179  0.00  0.00    +0.000 C 
ATOM     17  N   UNL     1       7.452   8.804  17.311  0.00  0.00    +0.000 N 
ATOM     18  H   UNL     1       7.230   9.351  16.481  0.00  0.00    +0.000 HD
BRANCH  16  19
ATOM     19  C   UNL     1       9.264  10.289  17.743  0.00  0.00    +0.000 C 
ATOM     20  C   UNL     1       9.329  11.394  18.501  0.00  0.00    +0.000 C 
BRANCH  20  21
ATOM     21  C   UNL     1      10.048  12.595  18.053  0.00  0.00    +0.000 A 
ATOM     22  C   UNL     1      11.243  12.409  17.338  0.00  0.00    +0.000 A 
ATOM     23  C   UNL     1      11.981  13.502  16.878  0.00  0.00    +0.000 A 
ATOM     24  C   UNL     1      11.534  14.800  17.122  0.00  0.00    +0.000 A 
ATOM     25  C   UNL     1      10.351  15.003  17.832  0.00  0.00    +0.000 A 
ATOM     26  C   UNL     1       9.611  13.907  18.297  0.00  0.00    +0.000 A 
ATOM     27 BR   UNL     1       8.019  14.275  19.268  0.00  0.00    +0.000 Br
ENDBRANCH  20  21
ENDBRANCH  16  19
ENDBRANCH   1  17
TORSDOF 4
ENDMDL
MODEL 6
REMARK VINA RESULT:      -7.6      7.900      9.906
REMARK  Name = 
REMARK  4 active torsions:
REMARK  status: ('A' for Active; 'I' for Inactive)
REMARK    1  A    between atoms: C_2  and  C_3
REMARK    2  A    between atoms: C_4  and  C_5
REMARK    3  A    between atoms: N_12  and  N_13
REMARK    4  A    between atoms: C_14  and  C_16
REMARK                            x       y       z     vdW  Elec       q    Type
REMARK                         _______ _______ _______ _____ _____    ______ ____
ROOT
ATOM      1  N   UNL     1      -0.619  10.663  18.225  0.00  0.00    +0.000 N 
ATOM      2  C   UNL     1      -1.910  10.398  17.809  0.00  0.00    +0.000 C 
ATOM      3  O   UNL     1      -2.180   9.477  17.040  0.00  0.00    +0.000 OA
ATOM      4  H   UNL     1      -0.371  11.300  18.981  0.00  0.00    +0.000 HD
ENDROOT
BRANCH   2   5
ATOM      5  C   UNL     1      -2.989  11.264  18.352  0.00  0.00    +0.000 A 
ATOM      6  C   UNL     1      -2.698  12.079  19.457  0.00  0.00    +0.000 A 
ATOM      7  C   UNL     1      -3.688  12.892  20.015  0.00  0.00    +0.000 A 
ATOM      8  C   UNL     1      -4.976  12.878  19.485  0.00  0.00    +0.000 A 
ATOM      9  C   UNL     1      -5.269  12.067  18.382  0.00  0.00    +0.000 A 
ATOM     10  C   UNL     1      -4.283  11.251  17.821  0.00  0.00    +0.000 A 
ATOM     11  O   UNL     1      -6.513  12.005  17.808  0.00  0.00    +0.000 OA
ATOM     12  C   UNL     1      -7.337  13.103  18.219  0.00  0.00    +0.000 C 
ATOM     13  C   UNL     1      -7.237  13.327  19.719  0.00  0.00    +0.000 C 
ATOM     14  O   UNL     1      -5.901  13.683  20.094  0.00  0.00    +0.000 OA
ENDBRANCH   2   5
BRANCH   1  17
ATOM     15  O   UNL     1       1.042   9.155  19.854  0.00  0.00    +0.000 OA
ATOM     16  C   UNL     1       1.197   9.139  18.639  0.00  0.00    +0.000 C 
ATOM     17  N   UNL     1       0.393   9.817  17.751  0.00  0.00    +0.000 N 
ATOM     18  H   UNL     1       0.549   9.842  16.745  0.00  0.00    +0.000 HD
BRANCH  16  19
ATOM     19  C   UNL     1       2.298   8.403  17.960  0.00  0.00    +0.000 C 
ATOM     20  C   UNL     1       2.526   7.106  18.219  0.00  0.00    +0.000 C 
BRANCH  20  21
ATOM     21  C   UNL     1       3.649   6.383  17.606  0.00  0.00    +0.000 A 
ATOM     22  C   UNL     1       4.778   7.132  17.233  0.00  0.00    +0.000 A 
ATOM     23  C   UNL     1       5.886   6.515  16.646  0.00  0.00    +0.000 A 
ATOM     24  C   UNL     1       5.884   5.139  16.425  0.00  0.00    +0.000 A 
ATOM     25  C   UNL     1       4.771   4.381  16.786  0.00  0.00    +0.000 A 
ATOM     26  C   UNL     1       3.657   4.998  17.372  0.00  0.00    +0.000 A 
ATOM     27 BR   UNL     1       2.178   3.893  17.820  0.00  0.00    +0.000 Br
ENDBRANCH  20  21
ENDBRANCH  16  19
ENDBRANCH   1  17
TORSDOF 4
ENDMDL
MODEL 7
REMARK VINA RESULT:      -7.6      3.372     10.485
REMARK  Name = 
REMARK  4 active torsions:
REMARK  status: ('A' for Active; 'I' for Inactive)
REMARK    1  A    between atoms: C_2  and  C_3
REMARK    2  A    between atoms: C_4  and  C_5
REMARK    3  A    between atoms: N_12  and  N_13
REMARK    4  A    between atoms: C_14  and  C_16
REMARK                            x       y       z     vdW  Elec       q    Type
REMARK                         _______ _______ _______ _____ _____    ______ ____
ROOT
ATOM      1  N   UNL     1       8.734   9.561  18.040  0.00  0.00    +0.000 N 
ATOM      2  C   UNL     1       9.181  10.490  18.960  0.00  0.00    +0.000 C 
ATOM      3  O   UNL     1       8.975  10.375  20.167  0.00  0.00    +0.000 OA
ATOM      4  H   UNL     1       9.020   9.528  17.062  0.00  0.00    +0.000 HD
ENDROOT
BRANCH   2   5
ATOM      5  C   UNL     1       9.956  11.645  18.437  0.00  0.00    +0.000 A 
ATOM      6  C   UNL     1      11.287  11.435  18.049  0.00  0.00    +0.000 A 
ATOM      7  C   UNL     1      12.061  12.497  17.573  0.00  0.00    +0.000 A 
ATOM      8  C   UNL     1      11.513  13.775  17.504  0.00  0.00    +0.000 A 
ATOM      9  C   UNL     1      10.185  13.989  17.890  0.00  0.00    +0.000 A 
ATOM     10  C   UNL     1       9.407  12.931  18.367  0.00  0.00    +0.000 A 
ATOM     11  O   UNL     1       9.581  15.219  17.846  0.00  0.00    +0.000 OA
ATOM     12  C   UNL     1      10.323  16.141  17.039  0.00  0.00    +0.000 C 
ATOM     13  C   UNL     1      11.808  16.069  17.356  0.00  0.00    +0.000 C 
ATOM     14  O   UNL     1      12.333  14.773  17.047  0.00  0.00    +0.000 OA
ENDBRANCH   2   5
BRANCH   1  17
ATOM     15  O   UNL     1       7.965   7.389  16.498  0.00  0.00    +0.000 OA
ATOM     16  C   UNL     1       7.665   7.435  17.686  0.00  0.00    +0.000 C 
ATOM     17  N   UNL     1       8.044   8.447  18.538  0.00  0.00    +0.000 N 
ATOM     18  H   UNL     1       7.756   8.509  19.512  0.00  0.00    +0.000 HD
BRANCH  16  19
ATOM     19  C   UNL     1       6.826   6.408  18.361  0.00  0.00    +0.000 C 
ATOM     20  C   UNL     1       5.579   6.146  17.939  0.00  0.00    +0.000 C 
BRANCH  20  21
ATOM     21  C   UNL     1       4.716   5.182  18.637  0.00  0.00    +0.000 A 
ATOM     22  C   UNL     1       5.243   3.906  18.895  0.00  0.00    +0.000 A 
ATOM     23  C   UNL     1       4.483   2.936  19.555  0.00  0.00    +0.000 A 
ATOM     24  C   UNL     1       3.186   3.229  19.971  0.00  0.00    +0.000 A 
ATOM     25  C   UNL     1       2.646   4.490  19.721  0.00  0.00    +0.000 A 
ATOM     26  C   UNL     1       3.405   5.463  19.055  0.00  0.00    +0.000 A 
ATOM     27 BR   UNL     1       2.587   7.149  18.743  0.00  0.00    +0.000 Br
ENDBRANCH  20  21
ENDBRANCH  16  19
ENDBRANCH   1  17
TORSDOF 4
ENDMDL
MODEL 8
REMARK VINA RESULT:      -7.5      1.033      1.076
REMARK  Name = 
REMARK  4 active torsions:
REMARK  status: ('A' for Active; 'I' for Inactive)
REMARK    1  A    between atoms: C_2  and  C_3
REMARK    2  A    between atoms: C_4  and  C_5
REMARK    3  A    between atoms: N_12  and  N_13
REMARK    4  A    between atoms: C_14  and  C_16
REMARK                            x       y       z     vdW  Elec       q    Type
REMARK                         _______ _______ _______ _____ _____    ______ ____
ROOT
ATOM      1  N   UNL     1       6.252   6.934  17.441  0.00  0.00    +0.000 N 
ATOM      2  C   UNL     1       4.875   7.001  17.544  0.00  0.00    +0.000 C 
ATOM      3  O   UNL     1       4.258   8.061  17.462  0.00  0.00    +0.000 OA
ATOM      4  H   UNL     1       6.786   6.073  17.337  0.00  0.00    +0.000 HD
ENDROOT
BRANCH   2   5
ATOM      5  C   UNL     1       4.147   5.720  17.736  0.00  0.00    +0.000 A 
ATOM      6  C   UNL     1       4.490   4.629  16.923  0.00  0.00    +0.000 A 
ATOM      7  C   UNL     1       3.816   3.412  17.053  0.00  0.00    +0.000 A 
ATOM      8  C   UNL     1       2.783   3.288  17.979  0.00  0.00    +0.000 A 
ATOM      9  C   UNL     1       2.438   4.375  18.791  0.00  0.00    +0.000 A 
ATOM     10  C   UNL     1       3.109   5.594  18.665  0.00  0.00    +0.000 A 
ATOM     11  O   UNL     1       1.434   4.323  19.725  0.00  0.00    +0.000 OA
ATOM     12  C   UNL     1       1.054   2.973  20.014  0.00  0.00    +0.000 C 
ATOM     13  C   UNL     1       0.903   2.163  18.737  0.00  0.00    +0.000 C 
ATOM     14  O   UNL     1       2.151   2.074  18.039  0.00  0.00    +0.000 OA
ENDBRANCH   2   5
BRANCH   1  17
ATOM     15  O   UNL     1       8.562   7.688  18.775  0.00  0.00    +0.000 OA
ATOM     16  C   UNL     1       8.053   8.444  17.956  0.00  0.00    +0.000 C 
ATOM     17  N   UNL     1       6.936   8.136  17.213  0.00  0.00    +0.000 N 
ATOM     18  H   UNL     1       6.485   8.782  16.568  0.00  0.00    +0.000 HD
BRANCH  16  19
ATOM     19  C   UNL     1       8.563   9.814  17.675  0.00  0.00    +0.000 C 
ATOM     20  C   UNL     1       8.882  10.653  18.672  0.00  0.00    +0.000 C 
BRANCH  20  21
ATOM     21  C   UNL     1       9.324  12.030  18.410  0.00  0.00    +0.000 A 
ATOM     22  C   UNL     1       8.410  12.900  17.793  0.00  0.00    +0.000 A 
ATOM     23  C   UNL     1       8.757  14.224  17.513  0.00  0.00    +0.000 A 
ATOM     24  C   UNL     1      10.024  14.700  17.848  0.00  0.00    +0.000 A 
ATOM     25  C   UNL     1      10.945  13.849  18.458  0.00  0.00    +0.000 A 
ATOM     26  C   UNL     1      10.599  12.520  18.737  0.00  0.00    +0.000 A 
ATOM     27 BR   UNL     1      11.920  11.426  19.556  0.00  0.00    +0.000 Br
ENDBRANCH  20  21
ENDBRANCH  16  19
ENDBRANCH   1  17
TORSDOF 4
ENDMDL
MODEL 9
REMARK VINA RESULT:      -7.5      7.283      9.110
REMARK  Name = 
REMARK  4 active torsions:
REMARK  status: ('A' for Active; 'I' for Inactive)
REMARK    1  A    between atoms: C_2  and  C_3
REMARK    2  A    between atoms: C_4  and  C_5
REMARK    3  A    between atoms: N_12  and  N_13
REMARK    4  A    between atoms: C_14  and  C_16
REMARK                            x       y       z     vdW  Elec       q    Type
REMARK                         _______ _______ _______ _____ _____    ______ ____
ROOT
ATOM      1  N   UNL     1       0.724   8.474  20.865  0.00  0.00    +0.000 N 
ATOM      2  C   UNL     1       1.246   8.727  19.610  0.00  0.00    +0.000 C 
ATOM      3  O   UNL     1       0.937   9.720  18.955  0.00  0.00    +0.000 OA
ATOM      4  H   UNL     1       1.071   7.762  21.506  0.00  0.00    +0.000 HD
ENDROOT
BRANCH   2   5
ATOM      5  C   UNL     1       2.232   7.751  19.077  0.00  0.00    +0.000 A 
ATOM      6  C   UNL     1       2.912   8.069  17.892  0.00  0.00    +0.000 A 
ATOM      7  C   UNL     1       3.831   7.172  17.342  0.00  0.00    +0.000 A 
ATOM      8  C   UNL     1       4.057   5.945  17.962  0.00  0.00    +0.000 A 
ATOM      9  C   UNL     1       3.380   5.625  19.144  0.00  0.00    +0.000 A 
ATOM     10  C   UNL     1       2.460   6.518  19.698  0.00  0.00    +0.000 A 
ATOM     11  O   UNL     1       3.555   4.437  19.809  0.00  0.00    +0.000 OA
ATOM     12  C   UNL     1       4.738   3.759  19.370  0.00  0.00    +0.000 C 
ATOM     13  C   UNL     1       4.841   3.767  17.854  0.00  0.00    +0.000 C 
ATOM     14  O   UNL     1       4.955   5.106  17.357  0.00  0.00    +0.000 OA
ENDBRANCH   2   5
BRANCH   1  17
ATOM     15  O   UNL     1       0.948   9.602  23.387  0.00  0.00    +0.000 OA
ATOM     16  C   UNL     1      -0.002   9.890  22.669  0.00  0.00    +0.000 C 
ATOM     17  N   UNL     1      -0.171   9.418  21.387  0.00  0.00    +0.000 N 
ATOM     18  H   UNL     1      -0.983   9.620  20.808  0.00  0.00    +0.000 HD
BRANCH  16  19
ATOM     19  C   UNL     1      -1.119  10.774  23.101  0.00  0.00    +0.000 C 
ATOM     20  C   UNL     1      -1.109  12.087  22.824  0.00  0.00    +0.000 C 
BRANCH  20  21
ATOM     21  C   UNL     1      -2.173  12.983  23.301  0.00  0.00    +0.000 A 
ATOM     22  C   UNL     1      -3.389  12.399  23.691  0.00  0.00    +0.000 A 
ATOM     23  C   UNL     1      -4.446  13.185  24.156  0.00  0.00    +0.000 A 
ATOM     24  C   UNL     1      -4.302  14.569  24.241  0.00  0.00    +0.000 A 
ATOM     25  C   UNL     1      -3.103  15.166  23.856  0.00  0.00    +0.000 A 
ATOM     26  C   UNL     1      -2.043  14.379  23.386  0.00  0.00    +0.000 A 
ATOM     27 BR   UNL     1      -0.449  15.276  22.868  0.00  0.00    +0.000 Br
ENDBRANCH  20  21
ENDBRANCH  16  19
ENDBRANCH   1  17
TORSDOF 4
ENDMDL
