MODEL 1
REMARK VINA RESULT:      -8.2      0.000      0.000
REMARK  Name = 
REMARK  5 active torsions:
REMARK  status: ('A' for Active; 'I' for Inactive)
REMARK    1  A    between atoms: C_1  and  C_2
REMARK    2  A    between atoms: C_2  and  C_4
REMARK    3  A    between atoms: C_5  and  O_6
REMARK    4  A    between atoms: C_9  and  C_10
REMARK    5  A    between atoms: C_13  and  C_14
REMARK                            x       y       z     vdW  Elec       q    Type
REMARK                         _______ _______ _______ _____ _____    ______ ____
ROOT
ATOM      1  C   UNL     1       5.738   5.096  16.925  0.00  0.00    +0.000 C 
ATOM      2  C   UNL     1       5.261   4.527  18.046  0.00  0.00    +0.000 C 
ATOM      3  S   UNL     1       3.794   5.181  18.695  0.00  0.00    +0.000 S 
ATOM      4  C   UNL     1       3.845   6.462  17.542  0.00  0.00    +0.000 C 
ATOM      5  C   UNL     1       3.202   7.635  17.594  0.00  0.00    +0.000 C 
ATOM      6  C   UNL     1       4.860   6.197  16.498  0.00  0.00    +0.000 C 
ATOM      7  O   UNL     1       4.987   6.832  15.461  0.00  0.00    +0.000 OA
ENDROOT
BRANCH   5   8
ATOM      8  C   UNL     1       2.360   8.060  18.712  0.00  0.00    +0.000 A 
ATOM      9  C   UNL     1       1.621   9.242  18.599  0.00  0.00    +0.000 A 
ATOM     10  C   UNL     1       0.807   9.669  19.649  0.00  0.00    +0.000 A 
ATOM     11  C   UNL     1       0.720   8.914  20.827  0.00  0.00    +0.000 A 
ATOM     12  C   UNL     1       1.483   7.741  20.942  0.00  0.00    +0.000 A 
ATOM     13  C   UNL     1       2.300   7.315  19.891  0.00  0.00    +0.000 A 
BRANCH  11  14
ATOM     14  C   UNL     1      -0.188   9.336  21.956  0.00  0.00    +0.000 C 
ATOM     15  F   UNL     1      -0.946  10.431  21.668  0.00  0.00    +0.000 F 
ATOM     16  F   UNL     1      -1.069   8.356  22.301  0.00  0.00    +0.000 F 
ATOM     17  F   UNL     1       0.495   9.643  23.092  0.00  0.00    +0.000 F 
ENDBRANCH  11  14
ENDBRANCH   5   8
BRANCH   1  19
ATOM     18  C   UNL     1       7.126   4.639  14.811  0.00  0.00    +0.000 C 
ATOM     19  C   UNL     1       7.016   4.694  16.310  0.00  0.00    +0.000 C 
ATOM     20  O   UNL     1       7.973   4.415  17.038  0.00  0.00    +0.000 OA
ENDBRANCH   1  19
BRANCH   2  21
ATOM     21  O   UNL     1       5.870   3.508  18.740  0.00  0.00    +0.000 OA
ATOM     22  H   UNL     1       5.476   3.472  19.640  0.00  0.00    +0.000 HD
ENDBRANCH   2  21
TORSDOF 4
ENDMDL
MODEL 2
REMARK VINA RESULT:      -8.1      0.140      1.064
REMARK  Name = 
REMARK  5 active torsions:
REMARK  status: ('A' for Active; 'I' for Inactive)
REMARK    1  A    between atoms: C_1  and  C_2
REMARK    2  A    between atoms: C_2  and  C_4
REMARK    3  A    between atoms: C_5  and  O_6
REMARK    4  A    between atoms: C_9  and  C_10
REMARK    5  A    between atoms: C_13  and  C_14
REMARK                            x       y       z     vdW  Elec       q    Type
REMARK                         _______ _______ _______ _____ _____    ______ ____
ROOT
ATOM      1  C   UNL     1       5.676   5.102  17.061  0.00  0.00    +0.000 C 
ATOM      2  C   UNL     1       5.162   4.549  18.173  0.00  0.00    +0.000 C 
ATOM      3  S   UNL     1       3.690   5.232  18.779  0.00  0.00    +0.000 S 
ATOM      4  C   UNL     1       3.791   6.504  17.620  0.00  0.00    +0.000 C 
ATOM      5  C   UNL     1       3.166   7.687  17.648  0.00  0.00    +0.000 C 
ATOM      6  C   UNL     1       4.828   6.215  16.604  0.00  0.00    +0.000 C 
ATOM      7  O   UNL     1       4.992   6.840  15.566  0.00  0.00    +0.000 OA
ENDROOT
BRANCH   5   8
ATOM      8  C   UNL     1       2.303   8.133  18.741  0.00  0.00    +0.000 A 
ATOM      9  C   UNL     1       2.227   7.364  19.908  0.00  0.00    +0.000 A 
ATOM     10  C   UNL     1       1.415   7.769  20.968  0.00  0.00    +0.000 A 
ATOM     11  C   UNL     1       0.669   8.952  20.875  0.00  0.00    +0.000 A 
ATOM     12  C   UNL     1       0.733   9.706  19.691  0.00  0.00    +0.000 A 
ATOM     13  C   UNL     1       1.545   9.298  18.629  0.00  0.00    +0.000 A 
BRANCH  11  14
ATOM     14  C   UNL     1      -0.181   9.429  22.026  0.00  0.00    +0.000 C 
ATOM     15  F   UNL     1      -0.943  10.519  21.728  0.00  0.00    +0.000 F 
ATOM     16  F   UNL     1      -1.053   8.473  22.452  0.00  0.00    +0.000 F 
ATOM     17  F   UNL     1       0.557   9.775  23.116  0.00  0.00    +0.000 F 
ENDBRANCH  11  14
ENDBRANCH   5   8
BRANCH   1  19
ATOM     18  C   UNL     1       7.080   4.509  14.992  0.00  0.00    +0.000 C 
ATOM     19  C   UNL     1       6.963   4.675  16.482  0.00  0.00    +0.000 C 
ATOM     20  O   UNL     1       7.921   4.467  17.231  0.00  0.00    +0.000 OA
ENDBRANCH   1  19
BRANCH   2  21
ATOM     21  O   UNL     1       5.736   3.525  18.889  0.00  0.00    +0.000 OA
ATOM     22  H   UNL     1       5.343   2.679  18.581  0.00  0.00    +0.000 HD
ENDBRANCH   2  21
TORSDOF 4
ENDMDL
MODEL 3
REMARK VINA RESULT:      -8.0      5.335      8.037
REMARK  Name = 
REMARK  5 active torsions:
REMARK  status: ('A' for Active; 'I' for Inactive)
REMARK    1  A    between atoms: C_1  and  C_2
REMARK    2  A    between atoms: C_2  and  C_4
REMARK    3  A    between atoms: C_5  and  O_6
REMARK    4  A    between atoms: C_9  and  C_10
REMARK    5  A    between atoms: C_13  and  C_14
REMARK                            x       y       z     vdW  Elec       q    Type
REMARK                         _______ _______ _______ _____ _____    ______ ____
ROOT
ATOM      1  C   UNL     1       1.037   9.854  20.092  0.00  0.00    +0.000 C 
ATOM      2  C   UNL     1       1.202  10.105  18.782  0.00  0.00    +0.000 C 
ATOM      3  S   UNL     1       1.726   8.785  17.791  0.00  0.00    +0.000 S 
ATOM      4  C   UNL     1       1.962   7.812  19.195  0.00  0.00    +0.000 C 
ATOM      5  C   UNL     1       2.699   6.702  19.306  0.00  0.00    +0.000 C 
ATOM      6  C   UNL     1       1.363   8.451  20.389  0.00  0.00    +0.000 C 
ATOM      7  O   UNL     1       1.212   7.911  21.476  0.00  0.00    +0.000 OA
ENDROOT
BRANCH   5   8
ATOM      8  C   UNL     1       3.505   6.141  18.222  0.00  0.00    +0.000 A 
ATOM      9  C   UNL     1       3.375   4.783  17.907  0.00  0.00    +0.000 A 
ATOM     10  C   UNL     1       4.129   4.223  16.875  0.00  0.00    +0.000 A 
ATOM     11  C   UNL     1       5.022   5.016  16.141  0.00  0.00    +0.000 A 
ATOM     12  C   UNL     1       5.164   6.372  16.479  0.00  0.00    +0.000 A 
ATOM     13  C   UNL     1       4.410   6.932  17.515  0.00  0.00    +0.000 A 
BRANCH  11  14
ATOM     14  C   UNL     1       5.813   4.439  14.994  0.00  0.00    +0.000 C 
ATOM     15  F   UNL     1       5.098   4.324  13.840  0.00  0.00    +0.000 F 
ATOM     16  F   UNL     1       6.899   5.200  14.683  0.00  0.00    +0.000 F 
ATOM     17  F   UNL     1       6.294   3.194  15.262  0.00  0.00    +0.000 F 
ENDBRANCH  11  14
ENDBRANCH   5   8
BRANCH   1  19
ATOM     18  C   UNL     1      -0.553  10.720  21.917  0.00  0.00    +0.000 C 
ATOM     19  C   UNL     1       0.672  10.902  21.063  0.00  0.00    +0.000 C 
ATOM     20  O   UNL     1       1.382  11.906  21.161  0.00  0.00    +0.000 OA
ENDBRANCH   1  19
BRANCH   2  21
ATOM     21  O   UNL     1       1.037  11.331  18.181  0.00  0.00    +0.000 OA
ATOM     22  H   UNL     1       0.086  11.436  17.956  0.00  0.00    +0.000 HD
ENDBRANCH   2  21
TORSDOF 4
ENDMDL
MODEL 4
REMARK VINA RESULT:      -7.9      5.337      7.977
REMARK  Name = 
REMARK  5 active torsions:
REMARK  status: ('A' for Active; 'I' for Inactive)
REMARK    1  A    between atoms: C_1  and  C_2
REMARK    2  A    between atoms: C_2  and  C_4
REMARK    3  A    between atoms: C_5  and  O_6
REMARK    4  A    between atoms: C_9  and  C_10
REMARK    5  A    between atoms: C_13  and  C_14
REMARK                            x       y       z     vdW  Elec       q    Type
REMARK                         _______ _______ _______ _____ _____    ______ ____
ROOT
ATOM      1  C   UNL     1       1.035  10.003  20.079  0.00  0.00    +0.000 C 
ATOM      2  C   UNL     1       1.190  10.216  18.761  0.00  0.00    +0.000 C 
ATOM      3  S   UNL     1       1.681   8.861  17.801  0.00  0.00    +0.000 S 
ATOM      4  C   UNL     1       1.916   7.923  19.228  0.00  0.00    +0.000 C 
ATOM      5  C   UNL     1       2.637   6.803  19.361  0.00  0.00    +0.000 C 
ATOM      6  C   UNL     1       1.342   8.603  20.410  0.00  0.00    +0.000 C 
ATOM      7  O   UNL     1       1.194   8.096  21.513  0.00  0.00    +0.000 OA
ENDROOT
BRANCH   5   8
ATOM      8  C   UNL     1       3.421   6.199  18.284  0.00  0.00    +0.000 A 
ATOM      9  C   UNL     1       4.282   7.007  17.532  0.00  0.00    +0.000 A 
ATOM     10  C   UNL     1       5.044   6.456  16.501  0.00  0.00    +0.000 A 
ATOM     11  C   UNL     1       4.958   5.087  16.212  0.00  0.00    +0.000 A 
ATOM     12  C   UNL     1       4.074   4.288  16.956  0.00  0.00    +0.000 A 
ATOM     13  C   UNL     1       3.308   4.841  17.987  0.00  0.00    +0.000 A 
BRANCH  11  14
ATOM     14  C   UNL     1       5.806   4.465  15.130  0.00  0.00    +0.000 C 
ATOM     15  F   UNL     1       6.983   5.117  14.915  0.00  0.00    +0.000 F 
ATOM     16  F   UNL     1       6.143   3.177  15.418  0.00  0.00    +0.000 F 
ATOM     17  F   UNL     1       5.175   4.426  13.925  0.00  0.00    +0.000 F 
ENDBRANCH  11  14
ENDBRANCH   5   8
BRANCH   1  19
ATOM     18  C   UNL     1      -0.583  11.002  21.809  0.00  0.00    +0.000 C 
ATOM     19  C   UNL     1       0.699  11.083  21.025  0.00  0.00    +0.000 C 
ATOM     20  O   UNL     1       1.478  12.030  21.160  0.00  0.00    +0.000 OA
ENDBRANCH   1  19
BRANCH   2  21
ATOM     21  O   UNL     1       1.038  11.427  18.129  0.00  0.00    +0.000 OA
ATOM     22  H   UNL     1       1.286  11.313  17.185  0.00  0.00    +0.000 HD
ENDBRANCH   2  21
TORSDOF 4
ENDMDL
MODEL 5
REMARK VINA RESULT:      -7.8      1.607      2.221
REMARK  Name = 
REMARK  5 active torsions:
REMARK  status: ('A' for Active; 'I' for Inactive)
REMARK    1  A    between atoms: C_1  and  C_2
REMARK    2  A    between atoms: C_2  and  C_4
REMARK    3  A    between atoms: C_5  and  O_6
REMARK    4  A    between atoms: C_9  and  C_10
REMARK    5  A    between atoms: C_13  and  C_14
REMARK                            x       y       z     vdW  Elec       q    Type
REMARK                         _______ _______ _______ _____ _____    ______ ____
ROOT
ATOM      1  C   UNL     1       6.230   5.155  15.815  0.00  0.00    +0.000 C 
ATOM      2  C   UNL     1       6.660   6.115  16.651  0.00  0.00    +0.000 C 
ATOM      3  S   UNL     1       5.690   6.426  18.052  0.00  0.00    +0.000 S 
ATOM      4  C   UNL     1       4.473   5.359  17.458  0.00  0.00    +0.000 C 
ATOM      5  C   UNL     1       3.188   5.299  17.826  0.00  0.00    +0.000 C 
ATOM      6  C   UNL     1       4.972   4.572  16.309  0.00  0.00    +0.000 C 
ATOM      7  O   UNL     1       4.400   3.614  15.808  0.00  0.00    +0.000 OA
ENDROOT
BRANCH   5   8
ATOM      8  C   UNL     1       2.569   6.204  18.794  0.00  0.00    +0.000 A 
ATOM      9  C   UNL     1       2.398   7.552  18.456  0.00  0.00    +0.000 A 
ATOM     10  C   UNL     1       1.807   8.436  19.359  0.00  0.00    +0.000 A 
ATOM     11  C   UNL     1       1.375   7.982  20.613  0.00  0.00    +0.000 A 
ATOM     12  C   UNL     1       1.571   6.633  20.953  0.00  0.00    +0.000 A 
ATOM     13  C   UNL     1       2.165   5.749  20.049  0.00  0.00    +0.000 A 
BRANCH  11  14
ATOM     14  C   UNL     1       0.694   8.913  21.585  0.00  0.00    +0.000 C 
ATOM     15  F   UNL     1       1.422   9.153  22.712  0.00  0.00    +0.000 F 
ATOM     16  F   UNL     1       0.444  10.135  21.039  0.00  0.00    +0.000 F 
ATOM     17  F   UNL     1      -0.509   8.440  22.011  0.00  0.00    +0.000 F 
ENDBRANCH  11  14
ENDBRANCH   5   8
BRANCH   1  19
ATOM     18  C   UNL     1       6.264   3.891  13.577  0.00  0.00    +0.000 C 
ATOM     19  C   UNL     1       6.912   4.841  14.546  0.00  0.00    +0.000 C 
ATOM     20  O   UNL     1       8.000   5.369  14.300  0.00  0.00    +0.000 OA
ENDBRANCH   1  19
BRANCH   2  21
ATOM     21  O   UNL     1       7.774   6.897  16.457  0.00  0.00    +0.000 OA
ATOM     22  H   UNL     1       8.184   6.639  15.602  0.00  0.00    +0.000 HD
ENDBRANCH   2  21
TORSDOF 4
ENDMDL
MODEL 6
REMARK VINA RESULT:      -7.8      1.616      2.392
REMARK  Name = 
REMARK  5 active torsions:
REMARK  status: ('A' for Active; 'I' for Inactive)
REMARK    1  A    between atoms: C_1  and  C_2
REMARK    2  A    between atoms: C_2  and  C_4
REMARK    3  A    between atoms: C_5  and  O_6
REMARK    4  A    between atoms: C_9  and  C_10
REMARK    5  A    between atoms: C_13  and  C_14
REMARK                            x       y       z     vdW  Elec       q    Type
REMARK                         _______ _______ _______ _____ _____    ______ ____
ROOT
ATOM      1  C   UNL     1       6.199   5.165  15.788  0.00  0.00    +0.000 C 
ATOM      2  C   UNL     1       6.645   6.122  16.621  0.00  0.00    +0.000 C 
ATOM      3  S   UNL     1       5.675   6.461  18.016  0.00  0.00    +0.000 S 
ATOM      4  C   UNL     1       4.439   5.415  17.422  0.00  0.00    +0.000 C 
ATOM      5  C   UNL     1       3.152   5.384  17.785  0.00  0.00    +0.000 C 
ATOM      6  C   UNL     1       4.928   4.611  16.280  0.00  0.00    +0.000 C 
ATOM      7  O   UNL     1       4.339   3.661  15.783  0.00  0.00    +0.000 OA
ENDROOT
BRANCH   5   8
ATOM      8  C   UNL     1       2.546   6.307  18.744  0.00  0.00    +0.000 A 
ATOM      9  C   UNL     1       2.188   5.836  20.012  0.00  0.00    +0.000 A 
ATOM     10  C   UNL     1       1.613   6.697  20.947  0.00  0.00    +0.000 A 
ATOM     11  C   UNL     1       1.390   8.043  20.627  0.00  0.00    +0.000 A 
ATOM     12  C   UNL     1       1.731   8.502  19.343  0.00  0.00    +0.000 A 
ATOM     13  C   UNL     1       2.305   7.639  18.406  0.00  0.00    +0.000 A 
BRANCH  11  14
ATOM     14  C   UNL     1       0.809   8.998  21.639  0.00  0.00    +0.000 C 
ATOM     15  F   UNL     1      -0.429   8.641  22.081  0.00  0.00    +0.000 F 
ATOM     16  F   UNL     1       1.585   9.101  22.754  0.00  0.00    +0.000 F 
ATOM     17  F   UNL     1       0.682  10.264  21.154  0.00  0.00    +0.000 F 
ENDBRANCH  11  14
ENDBRANCH   5   8
BRANCH   1  19
ATOM     18  C   UNL     1       6.227   3.871  13.568  0.00  0.00    +0.000 C 
ATOM     19  C   UNL     1       6.881   4.830  14.525  0.00  0.00    +0.000 C 
ATOM     20  O   UNL     1       7.973   5.346  14.274  0.00  0.00    +0.000 OA
ENDBRANCH   1  19
BRANCH   2  21
ATOM     21  O   UNL     1       7.775   6.880  16.427  0.00  0.00    +0.000 OA
ATOM     22  H   UNL     1       7.995   7.325  17.275  0.00  0.00    +0.000 HD
ENDBRANCH   2  21
TORSDOF 4
ENDMDL
MODEL 7
REMARK VINA RESULT:      -7.7      4.918      7.395
REMARK  Name = 
REMARK  5 active torsions:
REMARK  status: ('A' for Active; 'I' for Inactive)
REMARK    1  A    between atoms: C_1  and  C_2
REMARK    2  A    between atoms: C_2  and  C_4
REMARK    3  A    between atoms: C_5  and  O_6
REMARK    4  A    between atoms: C_9  and  C_10
REMARK    5  A    between atoms: C_13  and  C_14
REMARK                            x       y       z     vdW  Elec       q    Type
REMARK                         _______ _______ _______ _____ _____    ______ ____
ROOT
ATOM      1  C   UNL     1       0.627  10.267  19.448  0.00  0.00    +0.000 C 
ATOM      2  C   UNL     1       0.520   9.431  20.496  0.00  0.00    +0.000 C 
ATOM      3  S   UNL     1       1.525   8.021  20.479  0.00  0.00    +0.000 S 
ATOM      4  C   UNL     1       2.032   8.390  18.874  0.00  0.00    +0.000 C 
ATOM      5  C   UNL     1       2.592   7.562  17.983  0.00  0.00    +0.000 C 
ATOM      6  C   UNL     1       1.616   9.756  18.486  0.00  0.00    +0.000 C 
ATOM      7  O   UNL     1       1.995  10.352  17.488  0.00  0.00    +0.000 OA
ENDROOT
BRANCH   5   8
ATOM      8  C   UNL     1       2.822   6.137  18.219  0.00  0.00    +0.000 A 
ATOM      9  C   UNL     1       1.836   5.216  17.849  0.00  0.00    +0.000 A 
ATOM     10  C   UNL     1       2.031   3.851  18.059  0.00  0.00    +0.000 A 
ATOM     11  C   UNL     1       3.220   3.388  18.640  0.00  0.00    +0.000 A 
ATOM     12  C   UNL     1       4.195   4.321  19.030  0.00  0.00    +0.000 A 
ATOM     13  C   UNL     1       3.998   5.689  18.822  0.00  0.00    +0.000 A 
BRANCH  11  14
ATOM     14  C   UNL     1       3.468   1.913  18.835  0.00  0.00    +0.000 C 
ATOM     15  F   UNL     1       3.885   1.274  17.706  0.00  0.00    +0.000 F 
ATOM     16  F   UNL     1       4.426   1.672  19.772  0.00  0.00    +0.000 F 
ATOM     17  F   UNL     1       2.359   1.245  19.254  0.00  0.00    +0.000 F 
ENDBRANCH  11  14
ENDBRANCH   5   8
BRANCH   1  19
ATOM     18  C   UNL     1      -1.319  11.456  18.262  0.00  0.00    +0.000 C 
ATOM     19  C   UNL     1      -0.223  11.461  19.293  0.00  0.00    +0.000 C 
ATOM     20  O   UNL     1      -0.024  12.441  20.016  0.00  0.00    +0.000 OA
ENDBRANCH   1  19
BRANCH   2  21
ATOM     21  O   UNL     1      -0.355   9.583  21.546  0.00  0.00    +0.000 OA
ATOM     22  H   UNL     1      -0.580  10.536  21.622  0.00  0.00    +0.000 HD
ENDBRANCH   2  21
TORSDOF 4
ENDMDL
MODEL 8
REMARK VINA RESULT:      -7.7      4.870      7.426
REMARK  Name = 
REMARK  5 active torsions:
REMARK  status: ('A' for Active; 'I' for Inactive)
REMARK    1  A    between atoms: C_1  and  C_2
REMARK    2  A    between atoms: C_2  and  C_4
REMARK    3  A    between atoms: C_5  and  O_6
REMARK    4  A    between atoms: C_9  and  C_10
REMARK    5  A    between atoms: C_13  and  C_14
REMARK                            x       y       z     vdW  Elec       q    Type
REMARK                         _______ _______ _______ _____ _____    ______ ____
ROOT
ATOM      1  C   UNL     1       0.653  10.270  19.461  0.00  0.00    +0.000 C 
ATOM      2  C   UNL     1       0.525   9.414  20.489  0.00  0.00    +0.000 C 
ATOM      3  S   UNL     1       1.514   7.992  20.453  0.00  0.00    +0.000 S 
ATOM      4  C   UNL     1       2.041   8.388  18.860  0.00  0.00    +0.000 C 
ATOM      5  C   UNL     1       2.600   7.573  17.958  0.00  0.00    +0.000 C 
ATOM      6  C   UNL     1       1.645   9.767  18.497  0.00  0.00    +0.000 C 
ATOM      7  O   UNL     1       2.040  10.379  17.515  0.00  0.00    +0.000 OA
ENDROOT
BRANCH   5   8
ATOM      8  C   UNL     1       2.811   6.141  18.166  0.00  0.00    +0.000 A 
ATOM      9  C   UNL     1       4.031   5.700  18.689  0.00  0.00    +0.000 A 
ATOM     10  C   UNL     1       4.257   4.339  18.901  0.00  0.00    +0.000 A 
ATOM     11  C   UNL     1       3.262   3.401  18.594  0.00  0.00    +0.000 A 
ATOM     12  C   UNL     1       2.049   3.850  18.047  0.00  0.00    +0.000 A 
ATOM     13  C   UNL     1       1.824   5.213  17.833  0.00  0.00    +0.000 A 
BRANCH  11  14
ATOM     14  C   UNL     1       3.471   1.930  18.856  0.00  0.00    +0.000 C 
ATOM     15  F   UNL     1       3.844   1.225  17.751  0.00  0.00    +0.000 F 
ATOM     16  F   UNL     1       4.443   1.706  19.784  0.00  0.00    +0.000 F 
ATOM     17  F   UNL     1       2.353   1.317  19.331  0.00  0.00    +0.000 F 
ENDBRANCH  11  14
ENDBRANCH   5   8
BRANCH   1  19
ATOM     18  C   UNL     1       0.481  12.826  19.256  0.00  0.00    +0.000 C 
ATOM     19  C   UNL     1      -0.182  11.477  19.322  0.00  0.00    +0.000 C 
ATOM     20  O   UNL     1      -1.408  11.358  19.256  0.00  0.00    +0.000 OA
ENDBRANCH   1  19
BRANCH   2  21
ATOM     21  O   UNL     1      -0.358   9.554  21.534  0.00  0.00    +0.000 OA
ATOM     22  H   UNL     1       0.014   9.086  22.314  0.00  0.00    +0.000 HD
ENDBRANCH   2  21
TORSDOF 4
ENDMDL
MODEL 9
REMARK VINA RESULT:      -7.7      4.903      7.395
REMARK  Name = 
REMARK  5 active torsions:
REMARK  status: ('A' for Active; 'I' for Inactive)
REMARK    1  A    between atoms: C_1  and  C_2
REMARK    2  A    between atoms: C_2  and  C_4
REMARK    3  A    between atoms: C_5  and  O_6
REMARK    4  A    between atoms: C_9  and  C_10
REMARK    5  A    between atoms: C_13  and  C_14
REMARK                            x       y       z     vdW  Elec       q    Type
REMARK                         _______ _______ _______ _____ _____    ______ ____
ROOT
ATOM      1  C   UNL     1       0.644  10.286  19.386  0.00  0.00    +0.000 C 
ATOM      2  C   UNL     1       0.513   9.455  20.434  0.00  0.00    +0.000 C 
ATOM      3  S   UNL     1       1.514   8.040  20.443  0.00  0.00    +0.000 S 
ATOM      4  C   UNL     1       2.054   8.402  18.846  0.00  0.00    +0.000 C 
ATOM      5  C   UNL     1       2.629   7.569  17.970  0.00  0.00    +0.000 C 
ATOM      6  C   UNL     1       1.651   9.768  18.446  0.00  0.00    +0.000 C 
ATOM      7  O   UNL     1       2.051  10.359  17.453  0.00  0.00    +0.000 OA
ENDROOT
BRANCH   5   8
ATOM      8  C   UNL     1       2.849   6.144  18.215  0.00  0.00    +0.000 A 
ATOM      9  C   UNL     1       1.863   5.226  17.837  0.00  0.00    +0.000 A 
ATOM     10  C   UNL     1       2.049   3.861  18.056  0.00  0.00    +0.000 A 
ATOM     11  C   UNL     1       3.228   3.395  18.654  0.00  0.00    +0.000 A 
ATOM     12  C   UNL     1       4.203   4.325  19.052  0.00  0.00    +0.000 A 
ATOM     13  C   UNL     1       4.014   5.693  18.834  0.00  0.00    +0.000 A 
BRANCH  11  14
ATOM     14  C   UNL     1       3.466   1.920  18.859  0.00  0.00    +0.000 C 
ATOM     15  F   UNL     1       4.440   1.645  19.772  0.00  0.00    +0.000 F 
ATOM     16  F   UNL     1       2.351   1.275  19.302  0.00  0.00    +0.000 F 
ATOM     17  F   UNL     1       3.836   1.283  17.714  0.00  0.00    +0.000 F 
ENDBRANCH  11  14
ENDBRANCH   5   8
BRANCH   1  19
ATOM     18  C   UNL     1       0.452  12.838  19.148  0.00  0.00    +0.000 C 
ATOM     19  C   UNL     1      -0.198  11.483  19.209  0.00  0.00    +0.000 C 
ATOM     20  O   UNL     1      -1.421  11.349  19.109  0.00  0.00    +0.000 OA
ENDBRANCH   1  19
BRANCH   2  21
ATOM     21  O   UNL     1      -0.381   9.613  21.466  0.00  0.00    +0.000 OA
ATOM     22  H   UNL     1      -1.287   9.639  21.085  0.00  0.00    +0.000 HD
ENDBRANCH   2  21
TORSDOF 4
ENDMDL
