MODEL 1
REMARK VINA RESULT:      -6.7      0.000      0.000
REMARK  Name = 
REMARK  1 active torsions:
REMARK  status: ('A' for Active; 'I' for Inactive)
REMARK    1  A    between atoms: C_2  and  C_3
REMARK                            x       y       z     vdW  Elec       q    Type
REMARK                         _______ _______ _______ _____ _____    ______ ____
ROOT
ATOM      1  C   UNL     1       3.014   5.913  18.391  0.00  0.00    +0.000 A 
ATOM      2  C   UNL     1       2.730   5.345  19.642  0.00  0.00    +0.000 A 
ATOM      3  C   UNL     1       2.057   6.077  20.629  0.00  0.00    +0.000 A 
ATOM      4  C   UNL     1       1.699   7.396  20.328  0.00  0.00    +0.000 A 
ATOM      5  S   UNL     1       0.929   8.609  21.281  0.00  0.00    +0.000 S 
ATOM      6  N   UNL     1       0.990   9.755  20.065  0.00  0.00    +0.000 NA
ATOM      7  N   UNL     1       1.528   9.295  18.950  0.00  0.00    +0.000 NA
ATOM      8  C   UNL     1       1.939   7.974  19.078  0.00  0.00    +0.000 A 
ATOM      9  C   UNL     1       2.560   7.199  18.083  0.00  0.00    +0.000 A 
ENDROOT
BRANCH   1  11
ATOM     10  O   UNL     1       3.322   3.965  17.156  0.00  0.00    +0.000 OA
ATOM     11  C   UNL     1       3.752   5.096  17.387  0.00  0.00    +0.000 C 
ATOM     12  N   UNL     1       4.869   5.624  16.744  0.00  0.00    +0.000 N 
ATOM     13  C   UNL     1       5.423   4.923  15.582  0.00  0.00    +0.000 C 
ATOM     14  C   UNL     1       6.929   4.696  15.743  0.00  0.00    +0.000 C 
ATOM     15  O   UNL     1       7.612   5.933  16.009  0.00  0.00    +0.000 OA
ATOM     16  C   UNL     1       7.125   6.523  17.220  0.00  0.00    +0.000 C 
ATOM     17  C   UNL     1       5.626   6.823  17.128  0.00  0.00    +0.000 C 
ENDBRANCH   1  11
TORSDOF 1
ENDMDL
MODEL 2
REMARK VINA RESULT:      -6.6      2.913      4.081
REMARK  Name = 
REMARK  1 active torsions:
REMARK  status: ('A' for Active; 'I' for Inactive)
REMARK    1  A    between atoms: C_2  and  C_3
REMARK                            x       y       z     vdW  Elec       q    Type
REMARK                         _______ _______ _______ _____ _____    ______ ____
ROOT
ATOM      1  C   UNL     1       2.730   6.827  19.261  0.00  0.00    +0.000 A 
ATOM      2  C   UNL     1       2.778   7.488  18.026  0.00  0.00    +0.000 A 
ATOM      3  C   UNL     1       2.078   8.684  17.820  0.00  0.00    +0.000 A 
ATOM      4  C   UNL     1       1.313   9.179  18.883  0.00  0.00    +0.000 A 
ATOM      5  S   UNL     1       0.287  10.560  18.997  0.00  0.00    +0.000 S 
ATOM      6  N   UNL     1      -0.138  10.245  20.584  0.00  0.00    +0.000 NA
ATOM      7  N   UNL     1       0.460   9.176  21.076  0.00  0.00    +0.000 NA
ATOM      8  C   UNL     1       1.275   8.557  20.135  0.00  0.00    +0.000 A 
ATOM      9  C   UNL     1       2.036   7.394  20.336  0.00  0.00    +0.000 A 
ENDROOT
BRANCH   1  11
ATOM     10  O   UNL     1       4.707   5.605  19.373  0.00  0.00    +0.000 OA
ATOM     11  C   UNL     1       3.476   5.547  19.417  0.00  0.00    +0.000 C 
ATOM     12  N   UNL     1       2.784   4.355  19.615  0.00  0.00    +0.000 N 
ATOM     13  C   UNL     1       3.524   3.158  20.024  0.00  0.00    +0.000 C 
ATOM     14  C   UNL     1       3.200   1.971  19.113  0.00  0.00    +0.000 C 
ATOM     15  O   UNL     1       1.783   1.739  19.051  0.00  0.00    +0.000 OA
ATOM     16  C   UNL     1       1.110   2.891  18.527  0.00  0.00    +0.000 C 
ATOM     17  C   UNL     1       1.349   4.122  19.409  0.00  0.00    +0.000 C 
ENDBRANCH   1  11
TORSDOF 1
ENDMDL
MODEL 3
REMARK VINA RESULT:      -6.6      3.703      5.681
REMARK  Name = 
REMARK  1 active torsions:
REMARK  status: ('A' for Active; 'I' for Inactive)
REMARK    1  A    between atoms: C_2  and  C_3
REMARK                            x       y       z     vdW  Elec       q    Type
REMARK                         _______ _______ _______ _____ _____    ______ ____
ROOT
ATOM      1  C   UNL     1       4.848   4.655  17.845  0.00  0.00    +0.000 A 
ATOM      2  C   UNL     1       4.519   5.585  16.849  0.00  0.00    +0.000 A 
ATOM      3  C   UNL     1       5.328   6.704  16.612  0.00  0.00    +0.000 A 
ATOM      4  C   UNL     1       6.459   6.869  17.420  0.00  0.00    +0.000 A 
ATOM      5  S   UNL     1       7.643   8.121  17.474  0.00  0.00    +0.000 S 
ATOM      6  N   UNL     1       8.492   7.411  18.728  0.00  0.00    +0.000 NA
ATOM      7  N   UNL     1       7.975   6.259  19.113  0.00  0.00    +0.000 NA
ATOM      8  C   UNL     1       6.828   5.938  18.396  0.00  0.00    +0.000 A 
ATOM      9  C   UNL     1       6.035   4.792  18.572  0.00  0.00    +0.000 A 
ENDROOT
BRANCH   1  11
ATOM     10  O   UNL     1       3.936   2.610  17.210  0.00  0.00    +0.000 OA
ATOM     11  C   UNL     1       3.940   3.494  18.067  0.00  0.00    +0.000 C 
ATOM     12  N   UNL     1       3.150   3.436  19.213  0.00  0.00    +0.000 N 
ATOM     13  C   UNL     1       2.466   2.184  19.548  0.00  0.00    +0.000 C 
ATOM     14  C   UNL     1       0.976   2.421  19.806  0.00  0.00    +0.000 C 
ATOM     15  O   UNL     1       0.780   3.433  20.809  0.00  0.00    +0.000 OA
ATOM     16  C   UNL     1       1.356   4.674  20.387  0.00  0.00    +0.000 C 
ATOM     17  C   UNL     1       2.863   4.534  20.146  0.00  0.00    +0.000 C 
ENDBRANCH   1  11
TORSDOF 1
ENDMDL
MODEL 4
REMARK VINA RESULT:      -6.6      1.213      1.797
REMARK  Name = 
REMARK  1 active torsions:
REMARK  status: ('A' for Active; 'I' for Inactive)
REMARK    1  A    between atoms: C_2  and  C_3
REMARK                            x       y       z     vdW  Elec       q    Type
REMARK                         _______ _______ _______ _____ _____    ______ ____
ROOT
ATOM      1  C   UNL     1       2.790   6.880  18.262  0.00  0.00    +0.000 A 
ATOM      2  C   UNL     1       2.536   8.001  17.459  0.00  0.00    +0.000 A 
ATOM      3  C   UNL     1       1.878   9.125  17.977  0.00  0.00    +0.000 A 
ATOM      4  C   UNL     1       1.466   9.076  19.315  0.00  0.00    +0.000 A 
ATOM      5  S   UNL     1       0.596  10.211  20.276  0.00  0.00    +0.000 S 
ATOM      6  N   UNL     1       0.605   9.232  21.632  0.00  0.00    +0.000 NA
ATOM      7  N   UNL     1       1.251   8.096  21.443  0.00  0.00    +0.000 NA
ATOM      8  C   UNL     1       1.738   7.985  20.146  0.00  0.00    +0.000 A 
ATOM      9  C   UNL     1       2.454   6.896  19.620  0.00  0.00    +0.000 A 
ENDROOT
BRANCH   1  11
ATOM     10  O   UNL     1       2.883   4.624  17.700  0.00  0.00    +0.000 OA
ATOM     11  C   UNL     1       3.473   5.705  17.653  0.00  0.00    +0.000 C 
ATOM     12  N   UNL     1       4.720   5.857  17.052  0.00  0.00    +0.000 N 
ATOM     13  C   UNL     1       5.259   4.765  16.235  0.00  0.00    +0.000 C 
ATOM     14  C   UNL     1       6.682   4.403  16.668  0.00  0.00    +0.000 C 
ATOM     15  O   UNL     1       7.535   5.560  16.661  0.00  0.00    +0.000 OA
ATOM     16  C   UNL     1       7.040   6.553  17.566  0.00  0.00    +0.000 C 
ATOM     17  C   UNL     1       5.628   7.005  17.178  0.00  0.00    +0.000 C 
ENDBRANCH   1  11
TORSDOF 1
ENDMDL
MODEL 5
REMARK VINA RESULT:      -6.5      3.245      5.914
REMARK  Name = 
REMARK  1 active torsions:
REMARK  status: ('A' for Active; 'I' for Inactive)
REMARK    1  A    between atoms: C_2  and  C_3
REMARK                            x       y       z     vdW  Elec       q    Type
REMARK                         _______ _______ _______ _____ _____    ______ ____
ROOT
ATOM      1  C   UNL     1       3.530   5.701  18.292  0.00  0.00    +0.000 A 
ATOM      2  C   UNL     1       3.118   4.499  17.700  0.00  0.00    +0.000 A 
ATOM      3  C   UNL     1       3.882   3.891  16.695  0.00  0.00    +0.000 A 
ATOM      4  C   UNL     1       5.055   4.539  16.290  0.00  0.00    +0.000 A 
ATOM      5  S   UNL     1       6.207   4.145  15.070  0.00  0.00    +0.000 S 
ATOM      6  N   UNL     1       7.147   5.495  15.371  0.00  0.00    +0.000 NA
ATOM      7  N   UNL     1       6.684   6.236  16.361  0.00  0.00    +0.000 NA
ATOM      8  C   UNL     1       5.506   5.721  16.888  0.00  0.00    +0.000 A 
ATOM      9  C   UNL     1       4.754   6.277  17.937  0.00  0.00    +0.000 A 
ENDROOT
BRANCH   1  11
ATOM     10  O   UNL     1       2.283   5.580  20.253  0.00  0.00    +0.000 OA
ATOM     11  C   UNL     1       2.667   6.314  19.340  0.00  0.00    +0.000 C 
ATOM     12  N   UNL     1       2.337   7.665  19.270  0.00  0.00    +0.000 N 
ATOM     13  C   UNL     1       1.714   8.310  20.430  0.00  0.00    +0.000 C 
ATOM     14  C   UNL     1       0.440   9.058  20.028  0.00  0.00    +0.000 C 
ATOM     15  O   UNL     1       0.701   9.988  18.963  0.00  0.00    +0.000 OA
ATOM     16  C   UNL     1       1.191   9.299  17.806  0.00  0.00    +0.000 C 
ATOM     17  C   UNL     1       2.495   8.555  18.112  0.00  0.00    +0.000 C 
ENDBRANCH   1  11
TORSDOF 1
ENDMDL
MODEL 6
REMARK VINA RESULT:      -6.3      2.966      3.972
REMARK  Name = 
REMARK  1 active torsions:
REMARK  status: ('A' for Active; 'I' for Inactive)
REMARK    1  A    between atoms: C_2  and  C_3
REMARK                            x       y       z     vdW  Elec       q    Type
REMARK                         _______ _______ _______ _____ _____    ______ ____
ROOT
ATOM      1  C   UNL     1       2.612   6.628  19.638  0.00  0.00    +0.000 A 
ATOM      2  C   UNL     1       1.894   6.926  20.804  0.00  0.00    +0.000 A 
ATOM      3  C   UNL     1       1.168   8.119  20.919  0.00  0.00    +0.000 A 
ATOM      4  C   UNL     1       1.204   9.007  19.837  0.00  0.00    +0.000 A 
ATOM      5  S   UNL     1       0.502  10.567  19.625  0.00  0.00    +0.000 S 
ATOM      6  N   UNL     1       1.132  10.759  18.088  0.00  0.00    +0.000 NA
ATOM      7  N   UNL     1       1.824   9.712  17.680  0.00  0.00    +0.000 NA
ATOM      8  C   UNL     1       1.883   8.718  18.649  0.00  0.00    +0.000 A 
ATOM      9  C   UNL     1       2.552   7.487  18.535  0.00  0.00    +0.000 A 
ENDROOT
BRANCH   1  11
ATOM     10  O   UNL     1       4.605   5.444  19.427  0.00  0.00    +0.000 OA
ATOM     11  C   UNL     1       3.385   5.356  19.579  0.00  0.00    +0.000 C 
ATOM     12  N   UNL     1       2.728   4.134  19.707  0.00  0.00    +0.000 N 
ATOM     13  C   UNL     1       3.518   2.916  19.910  0.00  0.00    +0.000 C 
ATOM     14  C   UNL     1       3.122   1.829  18.906  0.00  0.00    +0.000 C 
ATOM     15  O   UNL     1       1.708   1.575  18.951  0.00  0.00    +0.000 OA
ATOM     16  C   UNL     1       0.975   2.762  18.625  0.00  0.00    +0.000 C 
ATOM     17  C   UNL     1       1.283   3.893  19.612  0.00  0.00    +0.000 C 
ENDBRANCH   1  11
TORSDOF 1
ENDMDL
MODEL 7
REMARK VINA RESULT:      -6.3      3.608      6.062
REMARK  Name = 
REMARK  1 active torsions:
REMARK  status: ('A' for Active; 'I' for Inactive)
REMARK    1  A    between atoms: C_2  and  C_3
REMARK                            x       y       z     vdW  Elec       q    Type
REMARK                         _______ _______ _______ _____ _____    ______ ____
ROOT
ATOM      1  C   UNL     1       2.576   6.782  18.564  0.00  0.00    +0.000 A 
ATOM      2  C   UNL     1       3.815   6.501  19.157  0.00  0.00    +0.000 A 
ATOM      3  C   UNL     1       4.298   5.187  19.230  0.00  0.00    +0.000 A 
ATOM      4  C   UNL     1       3.489   4.169  18.710  0.00  0.00    +0.000 A 
ATOM      5  S   UNL     1       3.705   2.460  18.667  0.00  0.00    +0.000 S 
ATOM      6  N   UNL     1       2.244   2.188  17.900  0.00  0.00    +0.000 NA
ATOM      7  N   UNL     1       1.588   3.301  17.630  0.00  0.00    +0.000 NA
ATOM      8  C   UNL     1       2.267   4.427  18.082  0.00  0.00    +0.000 A 
ATOM      9  C   UNL     1       1.834   5.758  17.966  0.00  0.00    +0.000 A 
ENDROOT
BRANCH   1  11
ATOM     10  O   UNL     1       2.387   8.862  17.538  0.00  0.00    +0.000 OA
ATOM     11  C   UNL     1       2.102   8.194  18.533  0.00  0.00    +0.000 C 
ATOM     12  N   UNL     1       1.359   8.704  19.595  0.00  0.00    +0.000 N 
ATOM     13  C   UNL     1       0.683   9.995  19.440  0.00  0.00    +0.000 C 
ATOM     14  C   UNL     1       1.021  10.937  20.599  0.00  0.00    +0.000 C 
ATOM     15  O   UNL     1       0.735  10.322  21.866  0.00  0.00    +0.000 OA
ATOM     16  C   UNL     1       1.511   9.129  22.029  0.00  0.00    +0.000 C 
ATOM     17  C   UNL     1       1.200   8.109  20.929  0.00  0.00    +0.000 C 
ENDBRANCH   1  11
TORSDOF 1
ENDMDL
MODEL 8
REMARK VINA RESULT:      -6.2      3.285      3.911
REMARK  Name = 
REMARK  1 active torsions:
REMARK  status: ('A' for Active; 'I' for Inactive)
REMARK    1  A    between atoms: C_2  and  C_3
REMARK                            x       y       z     vdW  Elec       q    Type
REMARK                         _______ _______ _______ _____ _____    ______ ____
ROOT
ATOM      1  C   UNL     1       4.550   5.067  18.107  0.00  0.00    +0.000 A 
ATOM      2  C   UNL     1       3.348   5.734  17.834  0.00  0.00    +0.000 A 
ATOM      3  C   UNL     1       2.168   5.402  18.514  0.00  0.00    +0.000 A 
ATOM      4  C   UNL     1       2.232   4.368  19.455  0.00  0.00    +0.000 A 
ATOM      5  S   UNL     1       1.008   3.646  20.432  0.00  0.00    +0.000 S 
ATOM      6  N   UNL     1       2.064   2.558  21.138  0.00  0.00    +0.000 NA
ATOM      7  N   UNL     1       3.309   2.703  20.722  0.00  0.00    +0.000 NA
ATOM      8  C   UNL     1       3.425   3.710  19.771  0.00  0.00    +0.000 A 
ATOM      9  C   UNL     1       4.607   4.104  19.121  0.00  0.00    +0.000 A 
ENDROOT
BRANCH   1  11
ATOM     10  O   UNL     1       6.410   6.418  17.744  0.00  0.00    +0.000 OA
ATOM     11  C   UNL     1       5.769   5.446  17.339  0.00  0.00    +0.000 C 
ATOM     12  N   UNL     1       6.149   4.704  16.223  0.00  0.00    +0.000 N 
ATOM     13  C   UNL     1       7.476   4.922  15.638  0.00  0.00    +0.000 C 
ATOM     14  C   UNL     1       7.379   5.173  14.131  0.00  0.00    +0.000 C 
ATOM     15  O   UNL     1       6.662   4.113  13.475  0.00  0.00    +0.000 OA
ATOM     16  C   UNL     1       5.329   4.017  13.991  0.00  0.00    +0.000 C 
ATOM     17  C   UNL     1       5.335   3.723  15.495  0.00  0.00    +0.000 C 
ENDBRANCH   1  11
TORSDOF 1
ENDMDL
MODEL 9
REMARK VINA RESULT:      -6.2      3.845      6.046
REMARK  Name = 
REMARK  1 active torsions:
REMARK  status: ('A' for Active; 'I' for Inactive)
REMARK    1  A    between atoms: C_2  and  C_3
REMARK                            x       y       z     vdW  Elec       q    Type
REMARK                         _______ _______ _______ _____ _____    ______ ____
ROOT
ATOM      1  C   UNL     1       3.406   4.712  17.521  0.00  0.00    +0.000 A 
ATOM      2  C   UNL     1       3.567   6.078  17.792  0.00  0.00    +0.000 A 
ATOM      3  C   UNL     1       4.720   6.763  17.386  0.00  0.00    +0.000 A 
ATOM      4  C   UNL     1       5.710   6.030  16.722  0.00  0.00    +0.000 A 
ATOM      5  S   UNL     1       7.261   6.493  16.130  0.00  0.00    +0.000 S 
ATOM      6  N   UNL     1       7.622   4.961  15.565  0.00  0.00    +0.000 NA
ATOM      7  N   UNL     1       6.641   4.098  15.754  0.00  0.00    +0.000 NA
ATOM      8  C   UNL     1       5.559   4.675  16.408  0.00  0.00    +0.000 A 
ATOM      9  C   UNL     1       4.367   4.026  16.771  0.00  0.00    +0.000 A 
ENDROOT
BRANCH   1  11
ATOM     10  O   UNL     1       1.158   4.151  17.302  0.00  0.00    +0.000 OA
ATOM     11  C   UNL     1       2.170   4.029  17.995  0.00  0.00    +0.000 C 
ATOM     12  N   UNL     1       2.193   3.282  19.170  0.00  0.00    +0.000 N 
ATOM     13  C   UNL     1       1.057   2.410  19.486  0.00  0.00    +0.000 C 
ATOM     14  C   UNL     1       0.540   2.670  20.903  0.00  0.00    +0.000 C 
ATOM     15  O   UNL     1       1.599   2.555  21.869  0.00  0.00    +0.000 OA
ATOM     16  C   UNL     1       2.631   3.510  21.596  0.00  0.00    +0.000 C 
ATOM     17  C   UNL     1       3.235   3.293  20.205  0.00  0.00    +0.000 C 
ENDBRANCH   1  11
TORSDOF 1
ENDMDL
