MODEL 1
REMARK VINA RESULT:      -7.2      0.000      0.000
REMARK  Name = 
REMARK  10 active torsions:
REMARK  status: ('A' for Active; 'I' for Inactive)
REMARK    1  A    between atoms: C_1  and  O_2
REMARK    2  A    between atoms: O_2  and  C_3
REMARK    3  A    between atoms: C_4  and  C_5
REMARK    4  A    between atoms: C_5  and  C_6
REMARK    5  A    between atoms: C_11  and  O_12
REMARK    6  A    between atoms: C_13  and  O_14
REMARK    7  A    between atoms: C_17  and  C_18
REMARK    8  A    between atoms: C_18  and  C_19
REMARK    9  A    between atoms: C_24  and  O_25
REMARK   10  A    between atoms: C_27  and  C_28
REMARK                            x       y       z     vdW  Elec       q    Type
REMARK                         _______ _______ _______ _____ _____    ______ ____
ROOT
ATOM      1  C   UNL     1      -2.585  12.993  20.871  0.00  0.00    +0.000 A 
ATOM      2  C   UNL     1      -2.745  12.806  22.273  0.00  0.00    +0.000 A 
ATOM      3  C   UNL     1      -2.025  11.777  22.906  0.00  0.00    +0.000 A 
ATOM      4  C   UNL     1      -1.056  11.054  22.215  0.00  0.00    +0.000 A 
ATOM      5  C   UNL     1      -0.844  11.290  20.855  0.00  0.00    +0.000 A 
ATOM      6  C   UNL     1      -1.633  12.232  20.143  0.00  0.00    +0.000 A 
ATOM      7  O   UNL     1       0.102  10.611  20.125  0.00  0.00    +0.000 OA
ATOM      8  C   UNL     1       0.984   9.705  20.804  0.00  0.00    +0.000 C 
ATOM      9  C   UNL     1       0.298   8.969  21.937  0.00  0.00    +0.000 C 
ATOM     10  C   UNL     1      -0.255   9.989  22.863  0.00  0.00    +0.000 C 
ATOM     11  O   UNL     1      -0.059   9.920  24.076  0.00  0.00    +0.000 OA
ENDROOT
BRANCH   8  12
ATOM     12  C   UNL     1       1.527   8.694  19.791  0.00  0.00    +0.000 A 
ATOM     13  C   UNL     1       1.891   7.391  20.174  0.00  0.00    +0.000 A 
ATOM     14  C   UNL     1       2.440   6.498  19.250  0.00  0.00    +0.000 A 
ATOM     15  C   UNL     1       2.635   6.890  17.929  0.00  0.00    +0.000 A 
ATOM     16  C   UNL     1       2.263   8.168  17.526  0.00  0.00    +0.000 A 
ATOM     17  C   UNL     1       1.703   9.058  18.445  0.00  0.00    +0.000 A 
ENDBRANCH   8  12
BRANCH   1  19
ATOM     18  C   UNL     1      -2.759  15.335  20.467  0.00  0.00    +0.000 C 
ATOM     19  O   UNL     1      -3.317  14.033  20.347  0.00  0.00    +0.000 OA
ENDBRANCH   1  19
BRANCH   3  20
ATOM     20  O   UNL     1      -2.266  11.450  24.207  0.00  0.00    +0.000 OA
ATOM     21  H   UNL     1      -3.230  11.423  24.364  0.00  0.00    +0.000 HD
ENDBRANCH   3  20
BRANCH   2  22
ATOM     22  C   UNL     1      -3.641  13.724  23.101  0.00  0.00    +0.000 C 
BRANCH  22  23
ATOM     23  C   UNL     1      -5.092  13.296  23.173  0.00  0.00    +0.000 A 
ATOM     24  C   UNL     1      -5.950  13.593  22.104  0.00  0.00    +0.000 A 
ATOM     25  C   UNL     1      -7.259  13.114  22.082  0.00  0.00    +0.000 A 
ATOM     26  C   UNL     1      -7.740  12.348  23.142  0.00  0.00    +0.000 A 
ATOM     27  C   UNL     1      -6.923  12.095  24.242  0.00  0.00    +0.000 A 
ATOM     28  C   UNL     1      -5.611  12.571  24.252  0.00  0.00    +0.000 A 
BRANCH  28  29
ATOM     29  O   UNL     1      -4.815  12.310  25.330  0.00  0.00    +0.000 OA
ATOM     30  H   UNL     1      -4.768  13.109  25.887  0.00  0.00    +0.000 HD
ENDBRANCH  28  29
ENDBRANCH  22  23
ENDBRANCH   2  22
BRANCH   6  31
ATOM     31  C   UNL     1      -1.383  12.382  18.640  0.00  0.00    +0.000 C 
BRANCH  31  32
ATOM     32  C   UNL     1      -2.155  11.466  17.691  0.00  0.00    +0.000 A 
ATOM     33  C   UNL     1      -1.466  10.447  17.005  0.00  0.00    +0.000 A 
ATOM     34  C   UNL     1      -2.125   9.594  16.107  0.00  0.00    +0.000 A 
ATOM     35  C   UNL     1      -3.496   9.721  15.904  0.00  0.00    +0.000 A 
ATOM     36  C   UNL     1      -4.204  10.699  16.597  0.00  0.00    +0.000 A 
ATOM     37  C   UNL     1      -3.541  11.552  17.480  0.00  0.00    +0.000 A 
BRANCH  37  38
ATOM     38  O   UNL     1      -4.278  12.500  18.122  0.00  0.00    +0.000 OA
ATOM     39  H   UNL     1      -5.218  12.305  17.993  0.00  0.00    +0.000 HD
ENDBRANCH  37  38
ENDBRANCH  31  32
ENDBRANCH   6  31
TORSDOF 9
ENDMDL
MODEL 2
REMARK VINA RESULT:      -6.9      1.771      8.189
REMARK  Name = 
REMARK  10 active torsions:
REMARK  status: ('A' for Active; 'I' for Inactive)
REMARK    1  A    between atoms: C_1  and  O_2
REMARK    2  A    between atoms: O_2  and  C_3
REMARK    3  A    between atoms: C_4  and  C_5
REMARK    4  A    between atoms: C_5  and  C_6
REMARK    5  A    between atoms: C_11  and  O_12
REMARK    6  A    between atoms: C_13  and  O_14
REMARK    7  A    between atoms: C_17  and  C_18
REMARK    8  A    between atoms: C_18  and  C_19
REMARK    9  A    between atoms: C_24  and  O_25
REMARK   10  A    between atoms: C_27  and  C_28
REMARK                            x       y       z     vdW  Elec       q    Type
REMARK                         _______ _______ _______ _____ _____    ______ ____
ROOT
ATOM      1  C   UNL     1       0.112  11.789  19.858  0.00  0.00    +0.000 A 
ATOM      2  C   UNL     1       0.105  10.860  18.780  0.00  0.00    +0.000 A 
ATOM      3  C   UNL     1      -1.123  10.531  18.177  0.00  0.00    +0.000 A 
ATOM      4  C   UNL     1      -2.290  11.214  18.515  0.00  0.00    +0.000 A 
ATOM      5  C   UNL     1      -2.267  12.182  19.520  0.00  0.00    +0.000 A 
ATOM      6  C   UNL     1      -1.077  12.460  20.245  0.00  0.00    +0.000 A 
ATOM      7  O   UNL     1      -3.385  12.890  19.891  0.00  0.00    +0.000 OA
ATOM      8  C   UNL     1      -4.598  12.712  19.144  0.00  0.00    +0.000 C 
ATOM      9  C   UNL     1      -4.785  11.284  18.674  0.00  0.00    +0.000 C 
ATOM     10  C   UNL     1      -3.591  10.917  17.872  0.00  0.00    +0.000 C 
ATOM     11  O   UNL     1      -3.705  10.393  16.764  0.00  0.00    +0.000 OA
ENDROOT
BRANCH   8  12
ATOM     12  C   UNL     1      -5.782  13.121  20.023  0.00  0.00    +0.000 A 
ATOM     13  C   UNL     1      -6.299  14.428  20.003  0.00  0.00    +0.000 A 
ATOM     14  C   UNL     1      -7.342  14.802  20.854  0.00  0.00    +0.000 A 
ATOM     15  C   UNL     1      -7.887  13.879  21.741  0.00  0.00    +0.000 A 
ATOM     16  C   UNL     1      -7.403  12.574  21.763  0.00  0.00    +0.000 A 
ATOM     17  C   UNL     1      -6.369  12.195  20.904  0.00  0.00    +0.000 A 
ENDBRANCH   8  12
BRANCH   1  19
ATOM     18  C   UNL     1       2.000  13.242  19.914  0.00  0.00    +0.000 C 
ATOM     19  O   UNL     1       1.361  12.058  20.370  0.00  0.00    +0.000 OA
ENDBRANCH   1  19
BRANCH   3  20
ATOM     20  O   UNL     1      -1.208   9.529  17.258  0.00  0.00    +0.000 OA
ATOM     21  H   UNL     1      -1.200   8.665  17.715  0.00  0.00    +0.000 HD
ENDBRANCH   3  20
BRANCH   2  22
ATOM     22  C   UNL     1       1.399  10.253  18.242  0.00  0.00    +0.000 C 
BRANCH  22  23
ATOM     23  C   UNL     1       1.764   8.911  18.839  0.00  0.00    +0.000 A 
ATOM     24  C   UNL     1       1.345   8.599  20.140  0.00  0.00    +0.000 A 
ATOM     25  C   UNL     1       1.560   7.332  20.679  0.00  0.00    +0.000 A 
ATOM     26  C   UNL     1       2.222   6.359  19.932  0.00  0.00    +0.000 A 
ATOM     27  C   UNL     1       2.702   6.668  18.660  0.00  0.00    +0.000 A 
ATOM     28  C   UNL     1       2.474   7.936  18.126  0.00  0.00    +0.000 A 
BRANCH  28  29
ATOM     29  O   UNL     1       2.940   8.228  16.876  0.00  0.00    +0.000 OA
ATOM     30  H   UNL     1       2.675   9.138  16.645  0.00  0.00    +0.000 HD
ENDBRANCH  28  29
ENDBRANCH  22  23
ENDBRANCH   2  22
BRANCH   6  31
ATOM     31  C   UNL     1      -1.153  13.487  21.378  0.00  0.00    +0.000 C 
BRANCH  31  32
ATOM     32  C   UNL     1      -2.347  13.415  22.329  0.00  0.00    +0.000 A 
ATOM     33  C   UNL     1      -3.256  14.491  22.378  0.00  0.00    +0.000 A 
ATOM     34  C   UNL     1      -4.354  14.483  23.250  0.00  0.00    +0.000 A 
ATOM     35  C   UNL     1      -4.588  13.380  24.066  0.00  0.00    +0.000 A 
ATOM     36  C   UNL     1      -3.723  12.290  24.010  0.00  0.00    +0.000 A 
ATOM     37  C   UNL     1      -2.625  12.309  23.150  0.00  0.00    +0.000 A 
BRANCH  37  38
ATOM     38  O   UNL     1      -1.804  11.224  23.144  0.00  0.00    +0.000 OA
ATOM     39  H   UNL     1      -1.760  10.869  22.243  0.00  0.00    +0.000 HD
ENDBRANCH  37  38
ENDBRANCH  31  32
ENDBRANCH   6  31
TORSDOF 9
ENDMDL
MODEL 3
REMARK VINA RESULT:      -6.8      2.003      8.131
REMARK  Name = 
REMARK  10 active torsions:
REMARK  status: ('A' for Active; 'I' for Inactive)
REMARK    1  A    between atoms: C_1  and  O_2
REMARK    2  A    between atoms: O_2  and  C_3
REMARK    3  A    between atoms: C_4  and  C_5
REMARK    4  A    between atoms: C_5  and  C_6
REMARK    5  A    between atoms: C_11  and  O_12
REMARK    6  A    between atoms: C_13  and  O_14
REMARK    7  A    between atoms: C_17  and  C_18
REMARK    8  A    between atoms: C_18  and  C_19
REMARK    9  A    between atoms: C_24  and  O_25
REMARK   10  A    between atoms: C_27  and  C_28
REMARK                            x       y       z     vdW  Elec       q    Type
REMARK                         _______ _______ _______ _____ _____    ______ ____
ROOT
ATOM      1  C   UNL     1       0.140  11.796  20.202  0.00  0.00    +0.000 A 
ATOM      2  C   UNL     1       0.175  10.916  19.083  0.00  0.00    +0.000 A 
ATOM      3  C   UNL     1      -1.025  10.638  18.403  0.00  0.00    +0.000 A 
ATOM      4  C   UNL     1      -2.196  11.325  18.710  0.00  0.00    +0.000 A 
ATOM      5  C   UNL     1      -2.212  12.247  19.759  0.00  0.00    +0.000 A 
ATOM      6  C   UNL     1      -1.058  12.470  20.557  0.00  0.00    +0.000 A 
ATOM      7  O   UNL     1      -3.337  12.958  20.103  0.00  0.00    +0.000 OA
ATOM      8  C   UNL     1      -4.511  12.835  19.286  0.00  0.00    +0.000 C 
ATOM      9  C   UNL     1      -4.695  11.433  18.742  0.00  0.00    +0.000 C 
ATOM     10  C   UNL     1      -3.466  11.082  17.988  0.00  0.00    +0.000 C 
ATOM     11  O   UNL     1      -3.530  10.610  16.852  0.00  0.00    +0.000 OA
ENDROOT
BRANCH   8  12
ATOM     12  C   UNL     1      -5.734  13.225  20.120  0.00  0.00    +0.000 A 
ATOM     13  C   UNL     1      -6.187  14.554  20.186  0.00  0.00    +0.000 A 
ATOM     14  C   UNL     1      -7.269  14.905  20.998  0.00  0.00    +0.000 A 
ATOM     15  C   UNL     1      -7.915  13.936  21.760  0.00  0.00    +0.000 A 
ATOM     16  C   UNL     1      -7.494  12.612  21.693  0.00  0.00    +0.000 A 
ATOM     17  C   UNL     1      -6.421  12.257  20.873  0.00  0.00    +0.000 A 
ENDBRANCH   8  12
BRANCH   1  19
ATOM     18  C   UNL     1       2.061  13.193  20.396  0.00  0.00    +0.000 C 
ATOM     19  O   UNL     1       1.364  12.018  20.791  0.00  0.00    +0.000 OA
ENDBRANCH   1  19
BRANCH   3  20
ATOM     20  O   UNL     1      -1.076   9.679  17.436  0.00  0.00    +0.000 OA
ATOM     21  H   UNL     1      -0.555   9.967  16.661  0.00  0.00    +0.000 HD
ENDBRANCH   3  20
BRANCH   2  22
ATOM     22  C   UNL     1       1.486  10.311  18.587  0.00  0.00    +0.000 C 
BRANCH  22  23
ATOM     23  C   UNL     1       1.769   8.912  19.092  0.00  0.00    +0.000 A 
ATOM     24  C   UNL     1       1.325   8.539  20.369  0.00  0.00    +0.000 A 
ATOM     25  C   UNL     1       1.463   7.228  20.821  0.00  0.00    +0.000 A 
ATOM     26  C   UNL     1       2.070   6.270  20.011  0.00  0.00    +0.000 A 
ATOM     27  C   UNL     1       2.575   6.635  18.764  0.00  0.00    +0.000 A 
ATOM     28  C   UNL     1       2.424   7.948  18.316  0.00  0.00    +0.000 A 
BRANCH  28  29
ATOM     29  O   UNL     1       2.913   8.295  17.089  0.00  0.00    +0.000 OA
ATOM     30  H   UNL     1       2.691   9.229  16.914  0.00  0.00    +0.000 HD
ENDBRANCH  28  29
ENDBRANCH  22  23
ENDBRANCH   2  22
BRANCH   6  31
ATOM     31  C   UNL     1      -1.178  13.446  21.730  0.00  0.00    +0.000 C 
BRANCH  31  32
ATOM     32  C   UNL     1      -2.438  13.376  22.592  0.00  0.00    +0.000 A 
ATOM     33  C   UNL     1      -2.672  12.230  23.378  0.00  0.00    +0.000 A 
ATOM     34  C   UNL     1      -3.823  12.107  24.170  0.00  0.00    +0.000 A 
ATOM     35  C   UNL     1      -4.747  13.146  24.219  0.00  0.00    +0.000 A 
ATOM     36  C   UNL     1      -4.520  14.302  23.478  0.00  0.00    +0.000 A 
ATOM     37  C   UNL     1      -3.380  14.413  22.683  0.00  0.00    +0.000 A 
BRANCH  37  38
ATOM     38  O   UNL     1      -3.212  15.560  21.968  0.00  0.00    +0.000 OA
ATOM     39  H   UNL     1      -3.188  16.310  22.581  0.00  0.00    +0.000 HD
ENDBRANCH  37  38
ENDBRANCH  31  32
ENDBRANCH   6  31
TORSDOF 9
ENDMDL
MODEL 4
REMARK VINA RESULT:      -6.8      1.691      8.055
REMARK  Name = 
REMARK  10 active torsions:
REMARK  status: ('A' for Active; 'I' for Inactive)
REMARK    1  A    between atoms: C_1  and  O_2
REMARK    2  A    between atoms: O_2  and  C_3
REMARK    3  A    between atoms: C_4  and  C_5
REMARK    4  A    between atoms: C_5  and  C_6
REMARK    5  A    between atoms: C_11  and  O_12
REMARK    6  A    between atoms: C_13  and  O_14
REMARK    7  A    between atoms: C_17  and  C_18
REMARK    8  A    between atoms: C_18  and  C_19
REMARK    9  A    between atoms: C_24  and  O_25
REMARK   10  A    between atoms: C_27  and  C_28
REMARK                            x       y       z     vdW  Elec       q    Type
REMARK                         _______ _______ _______ _____ _____    ______ ____
ROOT
ATOM      1  C   UNL     1       0.185  11.874  20.094  0.00  0.00    +0.000 A 
ATOM      2  C   UNL     1       0.238  10.997  18.975  0.00  0.00    +0.000 A 
ATOM      3  C   UNL     1      -0.958  10.683  18.304  0.00  0.00    +0.000 A 
ATOM      4  C   UNL     1      -2.147  11.335  18.620  0.00  0.00    +0.000 A 
ATOM      5  C   UNL     1      -2.182  12.255  19.670  0.00  0.00    +0.000 A 
ATOM      6  C   UNL     1      -1.029  12.512  20.459  0.00  0.00    +0.000 A 
ATOM      7  O   UNL     1      -3.325  12.932  20.023  0.00  0.00    +0.000 OA
ATOM      8  C   UNL     1      -4.501  12.775  19.216  0.00  0.00    +0.000 C 
ATOM      9  C   UNL     1      -4.648  11.369  18.672  0.00  0.00    +0.000 C 
ATOM     10  C   UNL     1      -3.414  11.054  17.908  0.00  0.00    +0.000 C 
ATOM     11  O   UNL     1      -3.473  10.582  16.772  0.00  0.00    +0.000 OA
ENDROOT
BRANCH   8  12
ATOM     12  C   UNL     1      -5.728  13.128  20.060  0.00  0.00    +0.000 A 
ATOM     13  C   UNL     1      -6.269  14.426  20.067  0.00  0.00    +0.000 A 
ATOM     14  C   UNL     1      -7.354  14.748  20.888  0.00  0.00    +0.000 A 
ATOM     15  C   UNL     1      -7.916  13.781  21.716  0.00  0.00    +0.000 A 
ATOM     16  C   UNL     1      -7.408  12.486  21.708  0.00  0.00    +0.000 A 
ATOM     17  C   UNL     1      -6.332  12.159  20.880  0.00  0.00    +0.000 A 
ENDBRANCH   8  12
BRANCH   1  19
ATOM     18  C   UNL     1       2.053  13.340  20.295  0.00  0.00    +0.000 C 
ATOM     19  O   UNL     1       1.407  12.132  20.674  0.00  0.00    +0.000 OA
ENDBRANCH   1  19
BRANCH   3  20
ATOM     20  O   UNL     1      -0.988   9.724  17.336  0.00  0.00    +0.000 OA
ATOM     21  H   UNL     1      -0.515  10.044  16.543  0.00  0.00    +0.000 HD
ENDBRANCH   3  20
BRANCH   2  22
ATOM     22  C   UNL     1       1.562  10.431  18.467  0.00  0.00    +0.000 C 
BRANCH  22  23
ATOM     23  C   UNL     1       1.784   8.965  18.773  0.00  0.00    +0.000 A 
ATOM     24  C   UNL     1       2.188   8.102  17.744  0.00  0.00    +0.000 A 
ATOM     25  C   UNL     1       2.515   6.773  18.010  0.00  0.00    +0.000 A 
ATOM     26  C   UNL     1       2.420   6.277  19.309  0.00  0.00    +0.000 A 
ATOM     27  C   UNL     1       1.960   7.102  20.335  0.00  0.00    +0.000 A 
ATOM     28  C   UNL     1       1.643   8.433  20.061  0.00  0.00    +0.000 A 
BRANCH  28  29
ATOM     29  O   UNL     1       1.203   9.236  21.073  0.00  0.00    +0.000 OA
ATOM     30  H   UNL     1       0.507   9.826  20.726  0.00  0.00    +0.000 HD
ENDBRANCH  28  29
ENDBRANCH  22  23
ENDBRANCH   2  22
BRANCH   6  31
ATOM     31  C   UNL     1      -1.169  13.483  21.634  0.00  0.00    +0.000 C 
BRANCH  31  32
ATOM     32  C   UNL     1      -2.393  13.340  22.538  0.00  0.00    +0.000 A 
ATOM     33  C   UNL     1      -3.332  14.389  22.597  0.00  0.00    +0.000 A 
ATOM     34  C   UNL     1      -4.460  14.316  23.427  0.00  0.00    +0.000 A 
ATOM     35  C   UNL     1      -4.691  13.175  24.190  0.00  0.00    +0.000 A 
ATOM     36  C   UNL     1      -3.794  12.112  24.121  0.00  0.00    +0.000 A 
ATOM     37  C   UNL     1      -2.668  12.195  23.303  0.00  0.00    +0.000 A 
BRANCH  37  38
ATOM     38  O   UNL     1      -1.816  11.133  23.284  0.00  0.00    +0.000 OA
ATOM     39  H   UNL     1      -1.882  10.664  24.128  0.00  0.00    +0.000 HD
ENDBRANCH  37  38
ENDBRANCH  31  32
ENDBRANCH   6  31
TORSDOF 9
ENDMDL
MODEL 5
REMARK VINA RESULT:      -6.8      0.708      1.461
REMARK  Name = 
REMARK  10 active torsions:
REMARK  status: ('A' for Active; 'I' for Inactive)
REMARK    1  A    between atoms: C_1  and  O_2
REMARK    2  A    between atoms: O_2  and  C_3
REMARK    3  A    between atoms: C_4  and  C_5
REMARK    4  A    between atoms: C_5  and  C_6
REMARK    5  A    between atoms: C_11  and  O_12
REMARK    6  A    between atoms: C_13  and  O_14
REMARK    7  A    between atoms: C_17  and  C_18
REMARK    8  A    between atoms: C_18  and  C_19
REMARK    9  A    between atoms: C_24  and  O_25
REMARK   10  A    between atoms: C_27  and  C_28
REMARK                            x       y       z     vdW  Elec       q    Type
REMARK                         _______ _______ _______ _____ _____    ______ ____
ROOT
ATOM      1  C   UNL     1      -2.176  12.778  20.815  0.00  0.00    +0.000 A 
ATOM      2  C   UNL     1      -2.343  12.646  22.222  0.00  0.00    +0.000 A 
ATOM      3  C   UNL     1      -1.669  11.606  22.890  0.00  0.00    +0.000 A 
ATOM      4  C   UNL     1      -0.734  10.818  22.224  0.00  0.00    +0.000 A 
ATOM      5  C   UNL     1      -0.513  11.000  20.857  0.00  0.00    +0.000 A 
ATOM      6  C   UNL     1      -1.260  11.952  20.113  0.00  0.00    +0.000 A 
ATOM      7  O   UNL     1       0.401  10.255  20.150  0.00  0.00    +0.000 OA
ATOM      8  C   UNL     1       1.242   9.334  20.859  0.00  0.00    +0.000 C 
ATOM      9  C   UNL     1       0.525   8.667  22.016  0.00  0.00    +0.000 C 
ATOM     10  C   UNL     1       0.019   9.741  22.907  0.00  0.00    +0.000 C 
ATOM     11  O   UNL     1       0.213   9.704  24.122  0.00  0.00    +0.000 OA
ENDROOT
BRANCH   8  12
ATOM     12  C   UNL     1       1.738   8.266  19.881  0.00  0.00    +0.000 A 
ATOM     13  C   UNL     1       2.070   8.582  18.552  0.00  0.00    +0.000 A 
ATOM     14  C   UNL     1       2.464   7.587  17.654  0.00  0.00    +0.000 A 
ATOM     15  C   UNL     1       2.534   6.260  18.066  0.00  0.00    +0.000 A 
ATOM     16  C   UNL     1       2.229   5.929  19.382  0.00  0.00    +0.000 A 
ATOM     17  C   UNL     1       1.846   6.924  20.285  0.00  0.00    +0.000 A 
ENDBRANCH   8  12
BRANCH   1  19
ATOM     18  C   UNL     1      -2.223  15.102  20.288  0.00  0.00    +0.000 C 
ATOM     19  O   UNL     1      -2.862  13.832  20.256  0.00  0.00    +0.000 OA
ENDBRANCH   1  19
BRANCH   3  20
ATOM     20  O   UNL     1      -1.923  11.334  24.201  0.00  0.00    +0.000 OA
ATOM     21  H   UNL     1      -2.267  10.423  24.285  0.00  0.00    +0.000 HD
ENDBRANCH   3  20
BRANCH   2  22
ATOM     22  C   UNL     1      -3.196  13.630  23.019  0.00  0.00    +0.000 C 
BRANCH  22  23
ATOM     23  C   UNL     1      -4.659  13.254  23.131  0.00  0.00    +0.000 A 
ATOM     24  C   UNL     1      -5.504  13.444  22.028  0.00  0.00    +0.000 A 
ATOM     25  C   UNL     1      -6.826  13.002  22.053  0.00  0.00    +0.000 A 
ATOM     26  C   UNL     1      -7.333  12.382  23.193  0.00  0.00    +0.000 A 
ATOM     27  C   UNL     1      -6.528  12.239  24.322  0.00  0.00    +0.000 A 
ATOM     28  C   UNL     1      -5.203  12.676  24.284  0.00  0.00    +0.000 A 
BRANCH  28  29
ATOM     29  O   UNL     1      -4.419  12.524  25.392  0.00  0.00    +0.000 OA
ATOM     30  H   UNL     1      -4.200  13.406  25.746  0.00  0.00    +0.000 HD
ENDBRANCH  28  29
ENDBRANCH  22  23
ENDBRANCH   2  22
BRANCH   6  31
ATOM     31  C   UNL     1      -1.005  12.041  18.606  0.00  0.00    +0.000 C 
BRANCH  31  32
ATOM     32  C   UNL     1      -1.975  11.317  17.673  0.00  0.00    +0.000 A 
ATOM     33  C   UNL     1      -3.253  11.867  17.447  0.00  0.00    +0.000 A 
ATOM     34  C   UNL     1      -4.187  11.231  16.616  0.00  0.00    +0.000 A 
ATOM     35  C   UNL     1      -3.849  10.048  15.966  0.00  0.00    +0.000 A 
ATOM     36  C   UNL     1      -2.580   9.504  16.147  0.00  0.00    +0.000 A 
ATOM     37  C   UNL     1      -1.659  10.135  16.984  0.00  0.00    +0.000 A 
BRANCH  37  38
ATOM     38  O   UNL     1      -0.437   9.555  17.136  0.00  0.00    +0.000 OA
ATOM     39  H   UNL     1       0.174   9.938  16.490  0.00  0.00    +0.000 HD
ENDBRANCH  37  38
ENDBRANCH  31  32
ENDBRANCH   6  31
TORSDOF 9
ENDMDL
MODEL 6
REMARK VINA RESULT:      -6.8      2.108      3.377
REMARK  Name = 
REMARK  10 active torsions:
REMARK  status: ('A' for Active; 'I' for Inactive)
REMARK    1  A    between atoms: C_1  and  O_2
REMARK    2  A    between atoms: O_2  and  C_3
REMARK    3  A    between atoms: C_4  and  C_5
REMARK    4  A    between atoms: C_5  and  C_6
REMARK    5  A    between atoms: C_11  and  O_12
REMARK    6  A    between atoms: C_13  and  O_14
REMARK    7  A    between atoms: C_17  and  C_18
REMARK    8  A    between atoms: C_18  and  C_19
REMARK    9  A    between atoms: C_24  and  O_25
REMARK   10  A    between atoms: C_27  and  C_28
REMARK                            x       y       z     vdW  Elec       q    Type
REMARK                         _______ _______ _______ _____ _____    ______ ____
ROOT
ATOM      1  C   UNL     1      -1.653  13.554  20.699  0.00  0.00    +0.000 A 
ATOM      2  C   UNL     1      -2.178  13.234  21.983  0.00  0.00    +0.000 A 
ATOM      3  C   UNL     1      -1.829  12.004  22.570  0.00  0.00    +0.000 A 
ATOM      4  C   UNL     1      -0.866  11.182  21.988  0.00  0.00    +0.000 A 
ATOM      5  C   UNL     1      -0.293  11.535  20.765  0.00  0.00    +0.000 A 
ATOM      6  C   UNL     1      -0.705  12.705  20.071  0.00  0.00    +0.000 A 
ATOM      7  O   UNL     1       0.665  10.766  20.147  0.00  0.00    +0.000 OA
ATOM      8  C   UNL     1       1.179   9.616  20.834  0.00  0.00    +0.000 C 
ATOM      9  C   UNL     1       0.120   8.908  21.654  0.00  0.00    +0.000 C 
ATOM     10  C   UNL     1      -0.450   9.900  22.600  0.00  0.00    +0.000 C 
ATOM     11  O   UNL     1      -0.569   9.641  23.798  0.00  0.00    +0.000 OA
ENDROOT
BRANCH   8  12
ATOM     12  C   UNL     1       1.761   8.646  19.803  0.00  0.00    +0.000 A 
ATOM     13  C   UNL     1       1.955   9.025  18.463  0.00  0.00    +0.000 A 
ATOM     14  C   UNL     1       2.431   8.111  17.520  0.00  0.00    +0.000 A 
ATOM     15  C   UNL     1       2.722   6.803  17.897  0.00  0.00    +0.000 A 
ATOM     16  C   UNL     1       2.556   6.414  19.222  0.00  0.00    +0.000 A 
ATOM     17  C   UNL     1       2.091   7.330  20.169  0.00  0.00    +0.000 A 
ENDBRANCH   8  12
BRANCH   1  19
ATOM     18  C   UNL     1      -1.407  15.923  20.785  0.00  0.00    +0.000 C 
ATOM     19  O   UNL     1      -2.038  14.784  20.216  0.00  0.00    +0.000 OA
ENDBRANCH   1  19
BRANCH   3  20
ATOM     20  O   UNL     1      -2.432  11.577  23.715  0.00  0.00    +0.000 OA
ATOM     21  H   UNL     1      -3.265  11.117  23.495  0.00  0.00    +0.000 HD
ENDBRANCH   3  20
BRANCH   2  22
ATOM     22  C   UNL     1      -3.069  14.212  22.745  0.00  0.00    +0.000 C 
BRANCH  22  23
ATOM     23  C   UNL     1      -4.545  13.878  22.716  0.00  0.00    +0.000 A 
ATOM     24  C   UNL     1      -5.273  14.079  21.535  0.00  0.00    +0.000 A 
ATOM     25  C   UNL     1      -6.603  13.675  21.434  0.00  0.00    +0.000 A 
ATOM     26  C   UNL     1      -7.237  13.081  22.524  0.00  0.00    +0.000 A 
ATOM     27  C   UNL     1      -6.550  12.929  23.728  0.00  0.00    +0.000 A 
ATOM     28  C   UNL     1      -5.216  13.329  23.816  0.00  0.00    +0.000 A 
BRANCH  28  29
ATOM     29  O   UNL     1      -4.548  13.167  24.996  0.00  0.00    +0.000 OA
ATOM     30  H   UNL     1      -4.607  13.996  25.507  0.00  0.00    +0.000 HD
ENDBRANCH  28  29
ENDBRANCH  22  23
ENDBRANCH   2  22
BRANCH   6  31
ATOM     31  C   UNL     1      -0.076  12.983  18.704  0.00  0.00    +0.000 C 
BRANCH  31  32
ATOM     32  C   UNL     1       1.251  13.741  18.668  0.00  0.00    +0.000 A 
ATOM     33  C   UNL     1       1.355  14.980  19.331  0.00  0.00    +0.000 A 
ATOM     34  C   UNL     1       2.544  15.724  19.310  0.00  0.00    +0.000 A 
ATOM     35  C   UNL     1       3.666  15.226  18.654  0.00  0.00    +0.000 A 
ATOM     36  C   UNL     1       3.597  13.988  18.021  0.00  0.00    +0.000 A 
ATOM     37  C   UNL     1       2.408  13.258  18.035  0.00  0.00    +0.000 A 
BRANCH  37  38
ATOM     38  O   UNL     1       2.390  12.059  17.390  0.00  0.00    +0.000 OA
ATOM     39  H   UNL     1       2.452  12.216  16.436  0.00  0.00    +0.000 HD
ENDBRANCH  37  38
ENDBRANCH  31  32
ENDBRANCH   6  31
TORSDOF 9
ENDMDL
MODEL 7
REMARK VINA RESULT:      -6.6      3.174      7.408
REMARK  Name = 
REMARK  10 active torsions:
REMARK  status: ('A' for Active; 'I' for Inactive)
REMARK    1  A    between atoms: C_1  and  O_2
REMARK    2  A    between atoms: O_2  and  C_3
REMARK    3  A    between atoms: C_4  and  C_5
REMARK    4  A    between atoms: C_5  and  C_6
REMARK    5  A    between atoms: C_11  and  O_12
REMARK    6  A    between atoms: C_13  and  O_14
REMARK    7  A    between atoms: C_17  and  C_18
REMARK    8  A    between atoms: C_18  and  C_19
REMARK    9  A    between atoms: C_24  and  O_25
REMARK   10  A    between atoms: C_27  and  C_28
REMARK                            x       y       z     vdW  Elec       q    Type
REMARK                         _______ _______ _______ _____ _____    ______ ____
ROOT
ATOM      1  C   UNL     1      -0.317  13.383  19.030  0.00  0.00    +0.000 A 
ATOM      2  C   UNL     1       0.097  14.716  19.310  0.00  0.00    +0.000 A 
ATOM      3  C   UNL     1      -0.700  15.508  20.156  0.00  0.00    +0.000 A 
ATOM      4  C   UNL     1      -1.785  14.960  20.836  0.00  0.00    +0.000 A 
ATOM      5  C   UNL     1      -2.144  13.628  20.620  0.00  0.00    +0.000 A 
ATOM      6  C   UNL     1      -1.448  12.823  19.680  0.00  0.00    +0.000 A 
ATOM      7  O   UNL     1      -3.201  13.033  21.267  0.00  0.00    +0.000 OA
ATOM      8  C   UNL     1      -3.894  13.769  22.286  0.00  0.00    +0.000 C 
ATOM      9  C   UNL     1      -3.998  15.246  21.964  0.00  0.00    +0.000 C 
ATOM     10  C   UNL     1      -2.620  15.758  21.763  0.00  0.00    +0.000 C 
ATOM     11  O   UNL     1      -2.233  16.783  22.326  0.00  0.00    +0.000 OA
ENDROOT
BRANCH   8  12
ATOM     12  C   UNL     1      -5.298  13.181  22.450  0.00  0.00    +0.000 A 
ATOM     13  C   UNL     1      -5.926  13.115  23.706  0.00  0.00    +0.000 A 
ATOM     14  C   UNL     1      -7.183  12.521  23.850  0.00  0.00    +0.000 A 
ATOM     15  C   UNL     1      -7.834  11.983  22.743  0.00  0.00    +0.000 A 
ATOM     16  C   UNL     1      -7.237  12.057  21.489  0.00  0.00    +0.000 A 
ATOM     17  C   UNL     1      -5.986  12.660  21.341  0.00  0.00    +0.000 A 
ENDBRANCH   8  12
BRANCH   1  19
ATOM     18  C   UNL     1       1.316  11.661  18.810  0.00  0.00    +0.000 C 
ATOM     19  O   UNL     1       0.534  12.683  18.206  0.00  0.00    +0.000 OA
ENDBRANCH   1  19
BRANCH   3  20
ATOM     20  O   UNL     1      -0.440  16.836  20.323  0.00  0.00    +0.000 OA
ATOM     21  H   UNL     1      -1.103  17.363  19.837  0.00  0.00    +0.000 HD
ENDBRANCH   3  20
BRANCH   2  22
ATOM     22  C   UNL     1       1.400  15.279  18.749  0.00  0.00    +0.000 C 
BRANCH  22  23
ATOM     23  C   UNL     1       2.495  15.482  19.774  0.00  0.00    +0.000 A 
ATOM     24  C   UNL     1       3.052  14.366  20.416  0.00  0.00    +0.000 A 
ATOM     25  C   UNL     1       4.140  14.503  21.276  0.00  0.00    +0.000 A 
ATOM     26  C   UNL     1       4.676  15.764  21.529  0.00  0.00    +0.000 A 
ATOM     27  C   UNL     1       4.098  16.893  20.951  0.00  0.00    +0.000 A 
ATOM     28  C   UNL     1       3.015  16.745  20.084  0.00  0.00    +0.000 A 
BRANCH  28  29
ATOM     29  O   UNL     1       2.460  17.856  19.514  0.00  0.00    +0.000 OA
ATOM     30  H   UNL     1       1.799  17.574  18.855  0.00  0.00    +0.000 HD
ENDBRANCH  28  29
ENDBRANCH  22  23
ENDBRANCH   2  22
BRANCH   6  31
ATOM     31  C   UNL     1      -1.949  11.394  19.453  0.00  0.00    +0.000 C 
BRANCH  31  32
ATOM     32  C   UNL     1      -2.573  11.062  18.097  0.00  0.00    +0.000 A 
ATOM     33  C   UNL     1      -1.910  10.167  17.234  0.00  0.00    +0.000 A 
ATOM     34  C   UNL     1      -2.430   9.847  15.971  0.00  0.00    +0.000 A 
ATOM     35  C   UNL     1      -3.644  10.389  15.560  0.00  0.00    +0.000 A 
ATOM     36  C   UNL     1      -4.333  11.249  16.410  0.00  0.00    +0.000 A 
ATOM     37  C   UNL     1      -3.805  11.574  17.660  0.00  0.00    +0.000 A 
BRANCH  37  38
ATOM     38  O   UNL     1      -4.514  12.430  18.447  0.00  0.00    +0.000 OA
ATOM     39  H   UNL     1      -3.897  12.918  19.012  0.00  0.00    +0.000 HD
ENDBRANCH  37  38
ENDBRANCH  31  32
ENDBRANCH   6  31
TORSDOF 9
ENDMDL
MODEL 8
REMARK VINA RESULT:      -6.6      3.046      7.528
REMARK  Name = 
REMARK  10 active torsions:
REMARK  status: ('A' for Active; 'I' for Inactive)
REMARK    1  A    between atoms: C_1  and  O_2
REMARK    2  A    between atoms: O_2  and  C_3
REMARK    3  A    between atoms: C_4  and  C_5
REMARK    4  A    between atoms: C_5  and  C_6
REMARK    5  A    between atoms: C_11  and  O_12
REMARK    6  A    between atoms: C_13  and  O_14
REMARK    7  A    between atoms: C_17  and  C_18
REMARK    8  A    between atoms: C_18  and  C_19
REMARK    9  A    between atoms: C_24  and  O_25
REMARK   10  A    between atoms: C_27  and  C_28
REMARK                            x       y       z     vdW  Elec       q    Type
REMARK                         _______ _______ _______ _____ _____    ______ ____
ROOT
ATOM      1  C   UNL     1      -0.476  13.699  18.995  0.00  0.00    +0.000 A 
ATOM      2  C   UNL     1      -0.169  15.069  19.228  0.00  0.00    +0.000 A 
ATOM      3  C   UNL     1      -1.013  15.819  20.067  0.00  0.00    +0.000 A 
ATOM      4  C   UNL     1      -2.036  15.204  20.785  0.00  0.00    +0.000 A 
ATOM      5  C   UNL     1      -2.289  13.842  20.614  0.00  0.00    +0.000 A 
ATOM      6  C   UNL     1      -1.545  13.068  19.683  0.00  0.00    +0.000 A 
ATOM      7  O   UNL     1      -3.282  13.182  21.298  0.00  0.00    +0.000 OA
ATOM      8  C   UNL     1      -4.015  13.889  22.310  0.00  0.00    +0.000 C 
ATOM      9  C   UNL     1      -4.246  15.342  21.948  0.00  0.00    +0.000 C 
ATOM     10  C   UNL     1      -2.918  15.959  21.704  0.00  0.00    +0.000 C 
ATOM     11  O   UNL     1      -2.607  17.028  22.230  0.00  0.00    +0.000 OA
ENDROOT
BRANCH   8  12
ATOM     12  C   UNL     1      -5.362  13.193  22.519  0.00  0.00    +0.000 A 
ATOM     13  C   UNL     1      -6.064  12.611  21.449  0.00  0.00    +0.000 A 
ATOM     14  C   UNL     1      -7.320  12.031  21.645  0.00  0.00    +0.000 A 
ATOM     15  C   UNL     1      -7.898  12.023  22.911  0.00  0.00    +0.000 A 
ATOM     16  C   UNL     1      -7.210  12.576  23.987  0.00  0.00    +0.000 A 
ATOM     17  C   UNL     1      -5.949  13.145  23.795  0.00  0.00    +0.000 A 
ENDBRANCH   8  12
BRANCH   1  19
ATOM     18  C   UNL     1       1.302  12.124  18.795  0.00  0.00    +0.000 C 
ATOM     19  O   UNL     1       0.416  13.046  18.174  0.00  0.00    +0.000 OA
ENDBRANCH   1  19
BRANCH   3  20
ATOM     20  O   UNL     1      -0.860  17.167  20.191  0.00  0.00    +0.000 OA
ATOM     21  H   UNL     1      -1.604  17.535  20.708  0.00  0.00    +0.000 HD
ENDBRANCH   3  20
BRANCH   2  22
ATOM     22  C   UNL     1       1.074  15.720  18.626  0.00  0.00    +0.000 C 
BRANCH  22  23
ATOM     23  C   UNL     1       2.353  15.482  19.400  0.00  0.00    +0.000 A 
ATOM     24  C   UNL     1       2.334  15.563  20.800  0.00  0.00    +0.000 A 
ATOM     25  C   UNL     1       3.461  15.235  21.553  0.00  0.00    +0.000 A 
ATOM     26  C   UNL     1       4.636  14.842  20.915  0.00  0.00    +0.000 A 
ATOM     27  C   UNL     1       4.694  14.815  19.522  0.00  0.00    +0.000 A 
ATOM     28  C   UNL     1       3.559  15.137  18.778  0.00  0.00    +0.000 A 
BRANCH  28  29
ATOM     29  O   UNL     1       3.622  15.099  17.414  0.00  0.00    +0.000 OA
ATOM     30  H   UNL     1       3.331  15.961  17.062  0.00  0.00    +0.000 HD
ENDBRANCH  28  29
ENDBRANCH  22  23
ENDBRANCH   2  22
BRANCH   6  31
ATOM     31  C   UNL     1      -1.930  11.597  19.507  0.00  0.00    +0.000 C 
BRANCH  31  32
ATOM     32  C   UNL     1      -2.546  11.174  18.174  0.00  0.00    +0.000 A 
ATOM     33  C   UNL     1      -1.838  10.289  17.337  0.00  0.00    +0.000 A 
ATOM     34  C   UNL     1      -2.350   9.888  16.094  0.00  0.00    +0.000 A 
ATOM     35  C   UNL     1      -3.600  10.337  15.679  0.00  0.00    +0.000 A 
ATOM     36  C   UNL     1      -4.333  11.185  16.504  0.00  0.00    +0.000 A 
ATOM     37  C   UNL     1      -3.813  11.590  17.733  0.00  0.00    +0.000 A 
BRANCH  37  38
ATOM     38  O   UNL     1      -4.566  12.430  18.495  0.00  0.00    +0.000 OA
ATOM     39  H   UNL     1      -4.436  13.338  18.183  0.00  0.00    +0.000 HD
ENDBRANCH  37  38
ENDBRANCH  31  32
ENDBRANCH   6  31
TORSDOF 9
ENDMDL
MODEL 9
REMARK VINA RESULT:      -6.5      2.832      4.889
REMARK  Name = 
REMARK  10 active torsions:
REMARK  status: ('A' for Active; 'I' for Inactive)
REMARK    1  A    between atoms: C_1  and  O_2
REMARK    2  A    between atoms: O_2  and  C_3
REMARK    3  A    between atoms: C_4  and  C_5
REMARK    4  A    between atoms: C_5  and  C_6
REMARK    5  A    between atoms: C_11  and  O_12
REMARK    6  A    between atoms: C_13  and  O_14
REMARK    7  A    between atoms: C_17  and  C_18
REMARK    8  A    between atoms: C_18  and  C_19
REMARK    9  A    between atoms: C_24  and  O_25
REMARK   10  A    between atoms: C_27  and  C_28
REMARK                            x       y       z     vdW  Elec       q    Type
REMARK                         _______ _______ _______ _____ _____    ______ ____
ROOT
ATOM      1  C   UNL     1      -5.750  13.514  19.739  0.00  0.00    +0.000 A 
ATOM      2  C   UNL     1      -5.605  14.824  20.278  0.00  0.00    +0.000 A 
ATOM      3  C   UNL     1      -4.429  15.139  20.983  0.00  0.00    +0.000 A 
ATOM      4  C   UNL     1      -3.359  14.248  21.022  0.00  0.00    +0.000 A 
ATOM      5  C   UNL     1      -3.474  12.991  20.425  0.00  0.00    +0.000 A 
ATOM      6  C   UNL     1      -4.686  12.578  19.810  0.00  0.00    +0.000 A 
ATOM      7  O   UNL     1      -2.449  12.075  20.428  0.00  0.00    +0.000 OA
ATOM      8  C   UNL     1      -1.174  12.461  20.963  0.00  0.00    +0.000 C 
ATOM      9  C   UNL     1      -1.303  13.386  22.156  0.00  0.00    +0.000 C 
ATOM     10  C   UNL     1      -2.094  14.565  21.724  0.00  0.00    +0.000 C 
ATOM     11  O   UNL     1      -1.709  15.711  21.960  0.00  0.00    +0.000 OA
ENDROOT
BRANCH   8  12
ATOM     12  C   UNL     1      -0.410  11.200  21.374  0.00  0.00    +0.000 A 
ATOM     13  C   UNL     1       0.375  10.483  20.454  0.00  0.00    +0.000 A 
ATOM     14  C   UNL     1       1.020   9.300  20.829  0.00  0.00    +0.000 A 
ATOM     15  C   UNL     1       0.890   8.813  22.126  0.00  0.00    +0.000 A 
ATOM     16  C   UNL     1       0.134   9.519  23.056  0.00  0.00    +0.000 A 
ATOM     17  C   UNL     1      -0.501  10.707  22.687  0.00  0.00    +0.000 A 
ENDBRANCH   8  12
BRANCH   1  19
ATOM     18  C   UNL     1      -7.914  12.517  19.700  0.00  0.00    +0.000 C 
ATOM     19  O   UNL     1      -6.926  13.307  19.054  0.00  0.00    +0.000 OA
ENDBRANCH   1  19
BRANCH   3  20
ATOM     20  O   UNL     1      -4.311  16.317  21.658  0.00  0.00    +0.000 OA
ATOM     21  H   UNL     1      -4.758  17.027  21.158  0.00  0.00    +0.000 HD
ENDBRANCH   3  20
BRANCH   2  22
ATOM     22  C   UNL     1      -6.672  15.895  20.067  0.00  0.00    +0.000 C 
BRANCH  22  23
ATOM     23  C   UNL     1      -6.557  16.656  18.763  0.00  0.00    +0.000 A 
ATOM     24  C   UNL     1      -7.226  16.178  17.627  0.00  0.00    +0.000 A 
ATOM     25  C   UNL     1      -7.240  16.912  16.442  0.00  0.00    +0.000 A 
ATOM     26  C   UNL     1      -6.564  18.128  16.366  0.00  0.00    +0.000 A 
ATOM     27  C   UNL     1      -5.841  18.591  17.465  0.00  0.00    +0.000 A 
ATOM     28  C   UNL     1      -5.840  17.853  18.649  0.00  0.00    +0.000 A 
BRANCH  28  29
ATOM     29  O   UNL     1      -5.137  18.318  19.724  0.00  0.00    +0.000 OA
ATOM     30  H   UNL     1      -5.758  18.488  20.457  0.00  0.00    +0.000 HD
ENDBRANCH  28  29
ENDBRANCH  22  23
ENDBRANCH   2  22
BRANCH   6  31
ATOM     31  C   UNL     1      -4.751  11.159  19.240  0.00  0.00    +0.000 C 
BRANCH  31  32
ATOM     32  C   UNL     1      -4.059  10.893  17.903  0.00  0.00    +0.000 A 
ATOM     33  C   UNL     1      -2.837  10.192  17.887  0.00  0.00    +0.000 A 
ATOM     34  C   UNL     1      -2.152   9.942  16.689  0.00  0.00    +0.000 A 
ATOM     35  C   UNL     1      -2.694  10.358  15.477  0.00  0.00    +0.000 A 
ATOM     36  C   UNL     1      -3.916  11.023  15.465  0.00  0.00    +0.000 A 
ATOM     37  C   UNL     1      -4.587  11.280  16.661  0.00  0.00    +0.000 A 
BRANCH  37  38
ATOM     38  O   UNL     1      -5.773  11.945  16.594  0.00  0.00    +0.000 OA
ATOM     39  H   UNL     1      -6.307  11.562  15.882  0.00  0.00    +0.000 HD
ENDBRANCH  37  38
ENDBRANCH  31  32
ENDBRANCH   6  31
TORSDOF 9
ENDMDL
