MODEL 1
REMARK VINA RESULT:      -8.0      0.000      0.000
REMARK  Name = 
REMARK  9 active torsions:
REMARK  status: ('A' for Active; 'I' for Inactive)
REMARK    1  A    between atoms: C_1  and  O_2
REMARK    2  A    between atoms: O_2  and  C_3
REMARK    3  A    between atoms: C_6  and  C_7
REMARK    4  A    between atoms: C_16  and  C_17
REMARK    5  A    between atoms: C_17  and  O_19
REMARK    6  A    between atoms: N_20  and  C_21
REMARK    7  A    between atoms: C_21  and  C_22
REMARK    8  A    between atoms: C_33  and  O_34
REMARK    9  A    between atoms: O_34  and  C_35
REMARK                            x       y       z     vdW  Elec       q    Type
REMARK                         _______ _______ _______ _____ _____    ______ ____
ROOT
ATOM      1  C   UNL     1      -3.749  11.158  17.239  0.00  0.00    +0.000 A 
ATOM      2  C   UNL     1      -3.293  11.899  18.349  0.00  0.00    +0.000 A 
ATOM      3  C   UNL     1      -1.953  11.797  18.802  0.00  0.00    +0.000 A 
ATOM      4  C   UNL     1      -1.242  12.309  19.934  0.00  0.00    +0.000 A 
ATOM      5  C   UNL     1       0.098  11.924  19.831  0.00  0.00    +0.000 A 
ATOM      6  N   UNL     1       0.156  11.083  18.721  0.00  0.00    +0.000 N 
ATOM      7  C   UNL     1      -1.095  10.942  18.137  0.00  0.00    +0.000 A 
ATOM      8  C   UNL     1      -1.553  10.120  17.092  0.00  0.00    +0.000 A 
ATOM      9  C   UNL     1      -2.884  10.236  16.644  0.00  0.00    +0.000 A 
ENDROOT
BRANCH   4  10
ATOM     10  C   UNL     1      -1.873  12.869  21.122  0.00  0.00    +0.000 A 
ATOM     11  C   UNL     1      -2.074  14.243  21.339  0.00  0.00    +0.000 A 
ATOM     12  C   UNL     1      -2.719  14.694  22.505  0.00  0.00    +0.000 A 
ATOM     13  C   UNL     1      -3.204  13.750  23.379  0.00  0.00    +0.000 A 
ATOM     14  C   UNL     1      -3.012  12.411  23.162  0.00  0.00    +0.000 A 
ATOM     15  C   UNL     1      -2.328  11.942  22.070  0.00  0.00    +0.000 A 
ATOM     16  O   UNL     1      -3.612  11.629  24.101  0.00  0.00    +0.000 OA
ATOM     17  C   UNL     1      -4.371  12.631  24.799  0.00  0.00    +0.000 C 
ATOM     18  O   UNL     1      -3.934  13.976  24.504  0.00  0.00    +0.000 OA
ENDBRANCH   4  10
BRANCH   1  20
ATOM     19  C   UNL     1      -5.850  12.258  17.451  0.00  0.00    +0.000 C 
ATOM     20  O   UNL     1      -5.032  11.285  16.791  0.00  0.00    +0.000 OA
ENDBRANCH   1  20
BRANCH   5  21
ATOM     21  C   UNL     1       1.198  12.350  20.687  0.00  0.00    +0.000 C 
ATOM     22  O   UNL     1       1.880  13.353  20.543  0.00  0.00    +0.000 OA
BRANCH  21  23
ATOM     23  O   UNL     1       1.465  11.491  21.703  0.00  0.00    +0.000 OA
ATOM     24  H   UNL     1       2.407  11.417  21.916  0.00  0.00    +0.000 HD
ENDBRANCH  21  23
ENDBRANCH   5  21
BRANCH   9  25
ATOM     25  O   UNL     1      -3.131   9.355  15.627  0.00  0.00    +0.000 OA
ATOM     26  C   UNL     1      -3.154   9.792  14.281  0.00  0.00    +0.000 C 
ENDBRANCH   9  25
BRANCH   6  27
ATOM     27  C   UNL     1       1.339  10.406  18.200  0.00  0.00    +0.000 C 
BRANCH  27  28
ATOM     28  C   UNL     1       1.560   9.008  18.768  0.00  0.00    +0.000 A 
ATOM     29  C   UNL     1       1.154   8.634  20.087  0.00  0.00    +0.000 A 
ATOM     30  C   UNL     1       1.477   7.406  20.694  0.00  0.00    +0.000 A 
ATOM     31  C   UNL     1       2.208   6.493  19.902  0.00  0.00    +0.000 A 
ATOM     32  N   UNL     1       2.637   5.283  20.284  0.00  0.00    +0.000 NA
ATOM     33  S   UNL     1       3.433   4.634  18.977  0.00  0.00    +0.000 S 
ATOM     34  N   UNL     1       3.273   5.866  17.872  0.00  0.00    +0.000 NA
ATOM     35  C   UNL     1       2.595   6.842  18.491  0.00  0.00    +0.000 A 
ATOM     36  C   UNL     1       2.256   8.099  17.933  0.00  0.00    +0.000 A 
ENDBRANCH  27  28
ENDBRANCH   6  27
TORSDOF 7
ENDMDL
MODEL 2
REMARK VINA RESULT:      -7.7      0.731      1.322
REMARK  Name = 
REMARK  9 active torsions:
REMARK  status: ('A' for Active; 'I' for Inactive)
REMARK    1  A    between atoms: C_1  and  O_2
REMARK    2  A    between atoms: O_2  and  C_3
REMARK    3  A    between atoms: C_6  and  C_7
REMARK    4  A    between atoms: C_16  and  C_17
REMARK    5  A    between atoms: C_17  and  O_19
REMARK    6  A    between atoms: N_20  and  C_21
REMARK    7  A    between atoms: C_21  and  C_22
REMARK    8  A    between atoms: C_33  and  O_34
REMARK    9  A    between atoms: O_34  and  C_35
REMARK                            x       y       z     vdW  Elec       q    Type
REMARK                         _______ _______ _______ _____ _____    ______ ____
ROOT
ATOM      1  C   UNL     1      -4.048  11.186  17.499  0.00  0.00    +0.000 A 
ATOM      2  C   UNL     1      -3.598  11.890  18.635  0.00  0.00    +0.000 A 
ATOM      3  C   UNL     1      -2.235  11.863  19.025  0.00  0.00    +0.000 A 
ATOM      4  C   UNL     1      -1.513  12.356  20.159  0.00  0.00    +0.000 A 
ATOM      5  C   UNL     1      -0.154  12.084  19.974  0.00  0.00    +0.000 A 
ATOM      6  N   UNL     1      -0.084  11.323  18.810  0.00  0.00    +0.000 N 
ATOM      7  C   UNL     1      -1.347  11.122  18.270  0.00  0.00    +0.000 A 
ATOM      8  C   UNL     1      -1.789  10.334  17.192  0.00  0.00    +0.000 A 
ATOM      9  C   UNL     1      -3.145  10.374  16.808  0.00  0.00    +0.000 A 
ENDROOT
BRANCH   4  10
ATOM     10  C   UNL     1      -2.129  12.790  21.406  0.00  0.00    +0.000 A 
ATOM     11  C   UNL     1      -2.404  11.939  22.490  0.00  0.00    +0.000 A 
ATOM     12  C   UNL     1      -2.977  12.450  23.670  0.00  0.00    +0.000 A 
ATOM     13  C   UNL     1      -3.188  13.807  23.748  0.00  0.00    +0.000 A 
ATOM     14  C   UNL     1      -2.913  14.635  22.691  0.00  0.00    +0.000 A 
ATOM     15  C   UNL     1      -2.419  14.158  21.504  0.00  0.00    +0.000 A 
ATOM     16  O   UNL     1      -3.132  15.948  22.973  0.00  0.00    +0.000 OA
ATOM     17  C   UNL     1      -3.367  15.854  24.389  0.00  0.00    +0.000 C 
ATOM     18  O   UNL     1      -3.639  14.503  24.825  0.00  0.00    +0.000 OA
ENDBRANCH   4  10
BRANCH   1  20
ATOM     19  C   UNL     1      -5.978  12.532  17.128  0.00  0.00    +0.000 C 
ATOM     20  O   UNL     1      -5.357  11.241  17.113  0.00  0.00    +0.000 OA
ENDBRANCH   1  20
BRANCH   5  21
ATOM     21  C   UNL     1       0.949  12.540  20.811  0.00  0.00    +0.000 C 
ATOM     22  O   UNL     1       1.435  13.661  20.820  0.00  0.00    +0.000 OA
BRANCH  21  23
ATOM     23  O   UNL     1       1.467  11.572  21.609  0.00  0.00    +0.000 OA
ATOM     24  H   UNL     1       0.895  10.796  21.704  0.00  0.00    +0.000 HD
ENDBRANCH  21  23
ENDBRANCH   5  21
BRANCH   9  25
ATOM     25  O   UNL     1      -3.372   9.542  15.746  0.00  0.00    +0.000 OA
ATOM     26  C   UNL     1      -3.258  10.018  14.417  0.00  0.00    +0.000 C 
ENDBRANCH   9  25
BRANCH   6  27
ATOM     27  C   UNL     1       1.121  10.774  18.196  0.00  0.00    +0.000 C 
BRANCH  27  28
ATOM     28  C   UNL     1       1.486   9.374  18.679  0.00  0.00    +0.000 A 
ATOM     29  C   UNL     1       1.117   8.878  19.968  0.00  0.00    +0.000 A 
ATOM     30  C   UNL     1       1.566   7.655  20.502  0.00  0.00    +0.000 A 
ATOM     31  C   UNL     1       2.393   6.876  19.662  0.00  0.00    +0.000 A 
ATOM     32  N   UNL     1       2.946   5.697  19.974  0.00  0.00    +0.000 NA
ATOM     33  S   UNL     1       3.811   5.218  18.638  0.00  0.00    +0.000 S 
ATOM     34  N   UNL     1       3.526   6.493  17.609  0.00  0.00    +0.000 NA
ATOM     35  C   UNL     1       2.746   7.351  18.280  0.00  0.00    +0.000 A 
ATOM     36  C   UNL     1       2.278   8.598  17.797  0.00  0.00    +0.000 A 
ENDBRANCH  27  28
ENDBRANCH   6  27
TORSDOF 7
ENDMDL
MODEL 3
REMARK VINA RESULT:      -7.1      3.505      7.160
REMARK  Name = 
REMARK  9 active torsions:
REMARK  status: ('A' for Active; 'I' for Inactive)
REMARK    1  A    between atoms: C_1  and  O_2
REMARK    2  A    between atoms: O_2  and  C_3
REMARK    3  A    between atoms: C_6  and  C_7
REMARK    4  A    between atoms: C_16  and  C_17
REMARK    5  A    between atoms: C_17  and  O_19
REMARK    6  A    between atoms: N_20  and  C_21
REMARK    7  A    between atoms: C_21  and  C_22
REMARK    8  A    between atoms: C_33  and  O_34
REMARK    9  A    between atoms: O_34  and  C_35
REMARK                            x       y       z     vdW  Elec       q    Type
REMARK                         _______ _______ _______ _____ _____    ______ ____
ROOT
ATOM      1  C   UNL     1      -3.088  10.131  16.805  0.00  0.00    +0.000 A 
ATOM      2  C   UNL     1      -1.944   9.611  17.445  0.00  0.00    +0.000 A 
ATOM      3  C   UNL     1      -1.301  10.320  18.491  0.00  0.00    +0.000 A 
ATOM      4  C   UNL     1      -0.092  10.123  19.233  0.00  0.00    +0.000 A 
ATOM      5  C   UNL     1       0.008  11.127  20.199  0.00  0.00    +0.000 A 
ATOM      6  N   UNL     1      -1.061  11.986  19.951  0.00  0.00    +0.000 N 
ATOM      7  C   UNL     1      -1.814  11.545  18.872  0.00  0.00    +0.000 A 
ATOM      8  C   UNL     1      -2.892  12.127  18.183  0.00  0.00    +0.000 A 
ATOM      9  C   UNL     1      -3.530  11.411  17.150  0.00  0.00    +0.000 A 
ENDROOT
BRANCH   4  10
ATOM     10  C   UNL     1       0.978   9.215  18.841  0.00  0.00    +0.000 A 
ATOM     11  C   UNL     1       1.882   9.462  17.793  0.00  0.00    +0.000 A 
ATOM     12  C   UNL     1       2.904   8.540  17.501  0.00  0.00    +0.000 A 
ATOM     13  C   UNL     1       3.030   7.438  18.315  0.00  0.00    +0.000 A 
ATOM     14  C   UNL     1       2.150   7.203  19.339  0.00  0.00    +0.000 A 
ATOM     15  C   UNL     1       1.103   8.047  19.606  0.00  0.00    +0.000 A 
ATOM     16  O   UNL     1       2.467   6.098  20.068  0.00  0.00    +0.000 OA
ATOM     17  C   UNL     1       3.758   5.802  19.508  0.00  0.00    +0.000 C 
ATOM     18  O   UNL     1       4.000   6.487  18.260  0.00  0.00    +0.000 OA
ENDBRANCH   4  10
BRANCH   1  20
ATOM     19  C   UNL     1      -3.464   9.843  14.471  0.00  0.00    +0.000 C 
ATOM     20  O   UNL     1      -3.719   9.429  15.818  0.00  0.00    +0.000 OA
ENDBRANCH   1  20
BRANCH   5  21
ATOM     21  C   UNL     1       1.002  11.222  21.262  0.00  0.00    +0.000 C 
ATOM     22  O   UNL     1       1.123  10.459  22.208  0.00  0.00    +0.000 OA
BRANCH  21  23
ATOM     23  O   UNL     1       1.817  12.300  21.153  0.00  0.00    +0.000 OA
ATOM     24  H   UNL     1       2.633  12.229  21.671  0.00  0.00    +0.000 HD
ENDBRANCH  21  23
ENDBRANCH   5  21
BRANCH   9  25
ATOM     25  O   UNL     1      -4.549  12.146  16.608  0.00  0.00    +0.000 OA
ATOM     26  C   UNL     1      -5.819  12.190  17.232  0.00  0.00    +0.000 C 
ENDBRANCH   9  25
BRANCH   6  27
ATOM     27  C   UNL     1      -1.390  13.205  20.683  0.00  0.00    +0.000 C 
BRANCH  27  28
ATOM     28  C   UNL     1      -2.439  13.016  21.774  0.00  0.00    +0.000 A 
ATOM     29  C   UNL     1      -2.171  12.315  22.992  0.00  0.00    +0.000 A 
ATOM     30  C   UNL     1      -3.153  11.991  23.947  0.00  0.00    +0.000 A 
ATOM     31  C   UNL     1      -4.463  12.445  23.673  0.00  0.00    +0.000 A 
ATOM     32  N   UNL     1      -5.546  12.232  24.431  0.00  0.00    +0.000 NA
ATOM     33  S   UNL     1      -6.813  12.980  23.657  0.00  0.00    +0.000 S 
ATOM     34  N   UNL     1      -6.039  13.600  22.321  0.00  0.00    +0.000 NA
ATOM     35  C   UNL     1      -4.754  13.235  22.428  0.00  0.00    +0.000 A 
ATOM     36  C   UNL     1      -3.731  13.521  21.490  0.00  0.00    +0.000 A 
ENDBRANCH  27  28
ENDBRANCH   6  27
TORSDOF 7
ENDMDL
MODEL 4
REMARK VINA RESULT:      -7.1      1.628      1.898
REMARK  Name = 
REMARK  9 active torsions:
REMARK  status: ('A' for Active; 'I' for Inactive)
REMARK    1  A    between atoms: C_1  and  O_2
REMARK    2  A    between atoms: O_2  and  C_3
REMARK    3  A    between atoms: C_6  and  C_7
REMARK    4  A    between atoms: C_16  and  C_17
REMARK    5  A    between atoms: C_17  and  O_19
REMARK    6  A    between atoms: N_20  and  C_21
REMARK    7  A    between atoms: C_21  and  C_22
REMARK    8  A    between atoms: C_33  and  O_34
REMARK    9  A    between atoms: O_34  and  C_35
REMARK                            x       y       z     vdW  Elec       q    Type
REMARK                         _______ _______ _______ _____ _____    ______ ____
ROOT
ATOM      1  C   UNL     1      -4.157  11.425  17.719  0.00  0.00    +0.000 A 
ATOM      2  C   UNL     1      -4.108  12.283  18.838  0.00  0.00    +0.000 A 
ATOM      3  C   UNL     1      -2.908  12.469  19.569  0.00  0.00    +0.000 A 
ATOM      4  C   UNL     1      -2.576  13.153  20.782  0.00  0.00    +0.000 A 
ATOM      5  C   UNL     1      -1.199  13.043  20.994  0.00  0.00    +0.000 A 
ATOM      6  N   UNL     1      -0.737  12.194  19.991  0.00  0.00    +0.000 N 
ATOM      7  C   UNL     1      -1.778  11.782  19.169  0.00  0.00    +0.000 A 
ATOM      8  C   UNL     1      -1.827  10.848  18.120  0.00  0.00    +0.000 A 
ATOM      9  C   UNL     1      -3.023  10.677  17.393  0.00  0.00    +0.000 A 
ENDROOT
BRANCH   4  10
ATOM     10  C   UNL     1      -3.550  13.616  21.762  0.00  0.00    +0.000 A 
ATOM     11  C   UNL     1      -3.672  14.950  22.188  0.00  0.00    +0.000 A 
ATOM     12  C   UNL     1      -4.662  15.313  23.121  0.00  0.00    +0.000 A 
ATOM     13  C   UNL     1      -5.540  14.340  23.539  0.00  0.00    +0.000 A 
ATOM     14  C   UNL     1      -5.422  13.042  23.117  0.00  0.00    +0.000 A 
ATOM     15  C   UNL     1      -4.426  12.643  22.262  0.00  0.00    +0.000 A 
ATOM     16  O   UNL     1      -6.413  12.238  23.590  0.00  0.00    +0.000 OA
ATOM     17  C   UNL     1      -7.271  13.232  24.175  0.00  0.00    +0.000 C 
ATOM     18  O   UNL     1      -6.615  14.506  24.354  0.00  0.00    +0.000 OA
ENDBRANCH   4  10
BRANCH   1  20
ATOM     19  C   UNL     1      -6.519  11.717  17.628  0.00  0.00    +0.000 C 
ATOM     20  O   UNL     1      -5.309  11.275  17.001  0.00  0.00    +0.000 OA
ENDBRANCH   1  20
BRANCH   5  21
ATOM     21  C   UNL     1      -0.417  13.713  22.027  0.00  0.00    +0.000 C 
ATOM     22  O   UNL     1       0.224  14.745  21.893  0.00  0.00    +0.000 OA
BRANCH  21  23
ATOM     23  O   UNL     1      -0.412  13.062  23.217  0.00  0.00    +0.000 OA
ATOM     24  H   UNL     1       0.318  13.318  23.800  0.00  0.00    +0.000 HD
ENDBRANCH  21  23
ENDBRANCH   5  21
BRANCH   9  25
ATOM     25  O   UNL     1      -2.867   9.729  16.420  0.00  0.00    +0.000 OA
ATOM     26  C   UNL     1      -2.857  10.092  15.051  0.00  0.00    +0.000 C 
ENDBRANCH   9  25
BRANCH   6  27
ATOM     27  C   UNL     1       0.638  11.751  19.785  0.00  0.00    +0.000 C 
BRANCH  27  28
ATOM     28  C   UNL     1       0.859  10.261  20.028  0.00  0.00    +0.000 A 
ATOM     29  C   UNL     1       0.515   9.617  21.257  0.00  0.00    +0.000 A 
ATOM     30  C   UNL     1       0.843   8.284  21.568  0.00  0.00    +0.000 A 
ATOM     31  C   UNL     1       1.511   7.555  20.559  0.00  0.00    +0.000 A 
ATOM     32  N   UNL     1       1.934   6.288  20.649  0.00  0.00    +0.000 NA
ATOM     33  S   UNL     1       2.645   5.927  19.190  0.00  0.00    +0.000 S 
ATOM     34  N   UNL     1       2.453   7.370  18.385  0.00  0.00    +0.000 NA
ATOM     35  C   UNL     1       1.830   8.195  19.236  0.00  0.00    +0.000 A 
ATOM     36  C   UNL     1       1.490   9.547  18.980  0.00  0.00    +0.000 A 
ENDBRANCH  27  28
ENDBRANCH   6  27
TORSDOF 7
ENDMDL
MODEL 5
REMARK VINA RESULT:      -6.9      0.998      1.446
REMARK  Name = 
REMARK  9 active torsions:
REMARK  status: ('A' for Active; 'I' for Inactive)
REMARK    1  A    between atoms: C_1  and  O_2
REMARK    2  A    between atoms: O_2  and  C_3
REMARK    3  A    between atoms: C_6  and  C_7
REMARK    4  A    between atoms: C_16  and  C_17
REMARK    5  A    between atoms: C_17  and  O_19
REMARK    6  A    between atoms: N_20  and  C_21
REMARK    7  A    between atoms: C_21  and  C_22
REMARK    8  A    between atoms: C_33  and  O_34
REMARK    9  A    between atoms: O_34  and  C_35
REMARK                            x       y       z     vdW  Elec       q    Type
REMARK                         _______ _______ _______ _____ _____    ______ ____
ROOT
ATOM      1  C   UNL     1      -3.887  11.191  17.679  0.00  0.00    +0.000 A 
ATOM      2  C   UNL     1      -3.486  11.998  18.764  0.00  0.00    +0.000 A 
ATOM      3  C   UNL     1      -2.117  12.158  19.096  0.00  0.00    +0.000 A 
ATOM      4  C   UNL     1      -1.420  12.791  20.175  0.00  0.00    +0.000 A 
ATOM      5  C   UNL     1      -0.046  12.680  19.945  0.00  0.00    +0.000 A 
ATOM      6  N   UNL     1       0.075  11.878  18.812  0.00  0.00    +0.000 N 
ATOM      7  C   UNL     1      -1.172  11.497  18.336  0.00  0.00    +0.000 A 
ATOM      8  C   UNL     1      -1.552  10.610  17.313  0.00  0.00    +0.000 A 
ATOM      9  C   UNL     1      -2.915  10.464  16.986  0.00  0.00    +0.000 A 
ENDROOT
BRANCH   4  10
ATOM     10  C   UNL     1      -2.039  13.204  21.428  0.00  0.00    +0.000 A 
ATOM     11  C   UNL     1      -2.206  14.542  21.825  0.00  0.00    +0.000 A 
ATOM     12  C   UNL     1      -2.841  14.850  23.043  0.00  0.00    +0.000 A 
ATOM     13  C   UNL     1      -3.351  13.810  23.785  0.00  0.00    +0.000 A 
ATOM     14  C   UNL     1      -3.191  12.507  23.392  0.00  0.00    +0.000 A 
ATOM     15  C   UNL     1      -2.517  12.171  22.246  0.00  0.00    +0.000 A 
ATOM     16  O   UNL     1      -3.811  11.623  24.221  0.00  0.00    +0.000 OA
ATOM     17  C   UNL     1      -4.546  12.542  25.047  0.00  0.00    +0.000 C 
ATOM     18  O   UNL     1      -4.075  13.903  24.932  0.00  0.00    +0.000 OA
ENDBRANCH   4  10
BRANCH   1  20
ATOM     19  C   UNL     1      -6.113  10.776  18.418  0.00  0.00    +0.000 C 
ATOM     20  O   UNL     1      -5.206  11.066  17.348  0.00  0.00    +0.000 OA
ENDBRANCH   1  20
BRANCH   5  21
ATOM     21  C   UNL     1       1.022  13.307  20.714  0.00  0.00    +0.000 C 
ATOM     22  O   UNL     1       1.250  14.505  20.790  0.00  0.00    +0.000 OA
BRANCH  21  23
ATOM     23  O   UNL     1       1.827  12.423  21.354  0.00  0.00    +0.000 OA
ATOM     24  H   UNL     1       1.554  11.500  21.253  0.00  0.00    +0.000 HD
ENDBRANCH  21  23
ENDBRANCH   5  21
BRANCH   9  25
ATOM     25  O   UNL     1      -3.076   9.561  15.971  0.00  0.00    +0.000 OA
ATOM     26  C   UNL     1      -3.116   9.988  14.622  0.00  0.00    +0.000 C 
ENDBRANCH   9  25
BRANCH   6  27
ATOM     27  C   UNL     1       1.316  11.453  18.172  0.00  0.00    +0.000 C 
BRANCH  27  28
ATOM     28  C   UNL     1       1.724  10.018  18.491  0.00  0.00    +0.000 A 
ATOM     29  C   UNL     1       2.439   9.193  17.567  0.00  0.00    +0.000 A 
ATOM     30  C   UNL     1       2.696   7.823  17.768  0.00  0.00    +0.000 A 
ATOM     31  C   UNL     1       2.248   7.278  18.992  0.00  0.00    +0.000 A 
ATOM     32  N   UNL     1       2.367   6.002  19.378  0.00  0.00    +0.000 NA
ATOM     33  S   UNL     1       1.681   5.904  20.889  0.00  0.00    +0.000 S 
ATOM     34  N   UNL     1       1.196   7.480  21.113  0.00  0.00    +0.000 NA
ATOM     35  C   UNL     1       1.546   8.142  20.003  0.00  0.00    +0.000 A 
ATOM     36  C   UNL     1       1.299   9.513  19.744  0.00  0.00    +0.000 A 
ENDBRANCH  27  28
ENDBRANCH   6  27
TORSDOF 7
ENDMDL
MODEL 6
REMARK VINA RESULT:      -6.9      1.296      2.087
REMARK  Name = 
REMARK  9 active torsions:
REMARK  status: ('A' for Active; 'I' for Inactive)
REMARK    1  A    between atoms: C_1  and  O_2
REMARK    2  A    between atoms: O_2  and  C_3
REMARK    3  A    between atoms: C_6  and  C_7
REMARK    4  A    between atoms: C_16  and  C_17
REMARK    5  A    between atoms: C_17  and  O_19
REMARK    6  A    between atoms: N_20  and  C_21
REMARK    7  A    between atoms: C_21  and  C_22
REMARK    8  A    between atoms: C_33  and  O_34
REMARK    9  A    between atoms: O_34  and  C_35
REMARK                            x       y       z     vdW  Elec       q    Type
REMARK                         _______ _______ _______ _____ _____    ______ ____
ROOT
ATOM      1  C   UNL     1      -4.187  11.185  17.857  0.00  0.00    +0.000 A 
ATOM      2  C   UNL     1      -3.814  11.982  18.960  0.00  0.00    +0.000 A 
ATOM      3  C   UNL     1      -2.450  12.207  19.276  0.00  0.00    +0.000 A 
ATOM      4  C   UNL     1      -1.772  12.846  20.364  0.00  0.00    +0.000 A 
ATOM      5  C   UNL     1      -0.397  12.817  20.110  0.00  0.00    +0.000 A 
ATOM      6  N   UNL     1      -0.251  12.056  18.952  0.00  0.00    +0.000 N 
ATOM      7  C   UNL     1      -1.483  11.621  18.483  0.00  0.00    +0.000 A 
ATOM      8  C   UNL     1      -1.830  10.745  17.440  0.00  0.00    +0.000 A 
ATOM      9  C   UNL     1      -3.189  10.533  17.128  0.00  0.00    +0.000 A 
ENDROOT
BRANCH   4  10
ATOM     10  C   UNL     1      -2.391  13.188  21.637  0.00  0.00    +0.000 A 
ATOM     11  C   UNL     1      -2.662  12.263  22.660  0.00  0.00    +0.000 A 
ATOM     12  C   UNL     1      -3.239  12.688  23.871  0.00  0.00    +0.000 A 
ATOM     13  C   UNL     1      -3.459  14.035  24.042  0.00  0.00    +0.000 A 
ATOM     14  C   UNL     1      -3.189  14.935  23.045  0.00  0.00    +0.000 A 
ATOM     15  C   UNL     1      -2.690  14.544  21.829  0.00  0.00    +0.000 A 
ATOM     16  O   UNL     1      -3.416  16.224  23.418  0.00  0.00    +0.000 OA
ATOM     17  C   UNL     1      -3.652  16.031  24.823  0.00  0.00    +0.000 C 
ATOM     18  O   UNL     1      -3.915  14.652  25.165  0.00  0.00    +0.000 OA
ENDBRANCH   4  10
BRANCH   1  20
ATOM     19  C   UNL     1      -6.333  12.164  17.527  0.00  0.00    +0.000 C 
ATOM     20  O   UNL     1      -5.502  10.997  17.542  0.00  0.00    +0.000 OA
ENDBRANCH   1  20
BRANCH   5  21
ATOM     21  C   UNL     1       0.647  13.480  20.881  0.00  0.00    +0.000 C 
ATOM     22  O   UNL     1       1.464  12.936  21.609  0.00  0.00    +0.000 OA
BRANCH  21  23
ATOM     23  O   UNL     1       0.638  14.832  20.766  0.00  0.00    +0.000 OA
ATOM     24  H   UNL     1      -0.244  15.225  20.840  0.00  0.00    +0.000 HD
ENDBRANCH  21  23
ENDBRANCH   5  21
BRANCH   9  25
ATOM     25  O   UNL     1      -3.316   9.652  16.090  0.00  0.00    +0.000 OA
ATOM     26  C   UNL     1      -3.060  10.062  14.759  0.00  0.00    +0.000 C 
ENDBRANCH   9  25
BRANCH   6  27
ATOM     27  C   UNL     1       1.000  11.719  18.281  0.00  0.00    +0.000 C 
BRANCH  27  28
ATOM     28  C   UNL     1       1.503  10.308  18.567  0.00  0.00    +0.000 A 
ATOM     29  C   UNL     1       2.275   9.555  17.628  0.00  0.00    +0.000 A 
ATOM     30  C   UNL     1       2.623   8.201  17.797  0.00  0.00    +0.000 A 
ATOM     31  C   UNL     1       2.206   7.598  19.005  0.00  0.00    +0.000 A 
ATOM     32  N   UNL     1       2.408   6.323  19.360  0.00  0.00    +0.000 NA
ATOM     33  S   UNL     1       1.724   6.142  20.864  0.00  0.00    +0.000 S 
ATOM     34  N   UNL     1       1.133   7.675  21.124  0.00  0.00    +0.000 NA
ATOM     35  C   UNL     1       1.444   8.387  20.032  0.00  0.00    +0.000 A 
ATOM     36  C   UNL     1       1.107   9.745  19.805  0.00  0.00    +0.000 A 
ENDBRANCH  27  28
ENDBRANCH   6  27
TORSDOF 7
ENDMDL
MODEL 7
REMARK VINA RESULT:      -6.9      3.693      7.343
REMARK  Name = 
REMARK  9 active torsions:
REMARK  status: ('A' for Active; 'I' for Inactive)
REMARK    1  A    between atoms: C_1  and  O_2
REMARK    2  A    between atoms: O_2  and  C_3
REMARK    3  A    between atoms: C_6  and  C_7
REMARK    4  A    between atoms: C_16  and  C_17
REMARK    5  A    between atoms: C_17  and  O_19
REMARK    6  A    between atoms: N_20  and  C_21
REMARK    7  A    between atoms: C_21  and  C_22
REMARK    8  A    between atoms: C_33  and  O_34
REMARK    9  A    between atoms: O_34  and  C_35
REMARK                            x       y       z     vdW  Elec       q    Type
REMARK                         _______ _______ _______ _____ _____    ______ ____
ROOT
ATOM      1  C   UNL     1      -3.270  10.134  16.870  0.00  0.00    +0.000 A 
ATOM      2  C   UNL     1      -2.245   9.668  17.719  0.00  0.00    +0.000 A 
ATOM      3  C   UNL     1      -1.798  10.436  18.824  0.00  0.00    +0.000 A 
ATOM      4  C   UNL     1      -0.730  10.298  19.768  0.00  0.00    +0.000 A 
ATOM      5  C   UNL     1      -0.809  11.348  20.687  0.00  0.00    +0.000 A 
ATOM      6  N   UNL     1      -1.830  12.173  20.220  0.00  0.00    +0.000 N 
ATOM      7  C   UNL     1      -2.383  11.667  19.052  0.00  0.00    +0.000 A 
ATOM      8  C   UNL     1      -3.336  12.195  18.163  0.00  0.00    +0.000 A 
ATOM      9  C   UNL     1      -3.780  11.419  17.072  0.00  0.00    +0.000 A 
ENDROOT
BRANCH   4  10
ATOM     10  C   UNL     1       0.402   9.395  19.607  0.00  0.00    +0.000 A 
ATOM     11  C   UNL     1       0.777   8.420  20.548  0.00  0.00    +0.000 A 
ATOM     12  C   UNL     1       1.871   7.571  20.297  0.00  0.00    +0.000 A 
ATOM     13  C   UNL     1       2.506   7.680  19.082  0.00  0.00    +0.000 A 
ATOM     14  C   UNL     1       2.134   8.628  18.164  0.00  0.00    +0.000 A 
ATOM     15  C   UNL     1       1.117   9.515  18.407  0.00  0.00    +0.000 A 
ATOM     16  O   UNL     1       2.837   8.546  17.002  0.00  0.00    +0.000 OA
ATOM     17  C   UNL     1       3.533   7.309  17.228  0.00  0.00    +0.000 C 
ATOM     18  O   UNL     1       3.512   6.896  18.612  0.00  0.00    +0.000 OA
ENDBRANCH   4  10
BRANCH   1  20
ATOM     19  C   UNL     1      -3.435   9.864  14.510  0.00  0.00    +0.000 C 
ATOM     20  O   UNL     1      -3.715   9.374  15.826  0.00  0.00    +0.000 OA
ENDBRANCH   1  20
BRANCH   5  21
ATOM     21  C   UNL     1      -0.011  11.512  21.897  0.00  0.00    +0.000 C 
ATOM     22  O   UNL     1      -0.210  10.969  22.973  0.00  0.00    +0.000 OA
BRANCH  21  23
ATOM     23  O   UNL     1       1.013  12.390  21.761  0.00  0.00    +0.000 OA
ATOM     24  H   UNL     1       0.816  13.135  21.174  0.00  0.00    +0.000 HD
ENDBRANCH  21  23
ENDBRANCH   5  21
BRANCH   9  25
ATOM     25  O   UNL     1      -4.700  12.107  16.331  0.00  0.00    +0.000 OA
ATOM     26  C   UNL     1      -5.925  12.525  16.906  0.00  0.00    +0.000 C 
ENDBRANCH   9  25
BRANCH   6  27
ATOM     27  C   UNL     1      -2.294  13.417  20.825  0.00  0.00    +0.000 C 
BRANCH  27  28
ATOM     28  C   UNL     1      -3.430  13.239  21.827  0.00  0.00    +0.000 A 
ATOM     29  C   UNL     1      -3.205  12.985  23.216  0.00  0.00    +0.000 A 
ATOM     30  C   UNL     1      -4.223  12.666  24.135  0.00  0.00    +0.000 A 
ATOM     31  C   UNL     1      -5.541  12.654  23.625  0.00  0.00    +0.000 A 
ATOM     32  N   UNL     1      -6.651  12.357  24.313  0.00  0.00    +0.000 NA
ATOM     33  S   UNL     1      -7.916  12.497  23.244  0.00  0.00    +0.000 S 
ATOM     34  N   UNL     1      -7.105  12.932  21.858  0.00  0.00    +0.000 NA
ATOM     35  C   UNL     1      -5.806  12.976  22.180  0.00  0.00    +0.000 A 
ATOM     36  C   UNL     1      -4.742  13.276  21.294  0.00  0.00    +0.000 A 
ENDBRANCH  27  28
ENDBRANCH   6  27
TORSDOF 7
ENDMDL
MODEL 8
REMARK VINA RESULT:      -6.9      1.726      2.247
REMARK  Name = 
REMARK  9 active torsions:
REMARK  status: ('A' for Active; 'I' for Inactive)
REMARK    1  A    between atoms: C_1  and  O_2
REMARK    2  A    between atoms: O_2  and  C_3
REMARK    3  A    between atoms: C_6  and  C_7
REMARK    4  A    between atoms: C_16  and  C_17
REMARK    5  A    between atoms: C_17  and  O_19
REMARK    6  A    between atoms: N_20  and  C_21
REMARK    7  A    between atoms: C_21  and  C_22
REMARK    8  A    between atoms: C_33  and  O_34
REMARK    9  A    between atoms: O_34  and  C_35
REMARK                            x       y       z     vdW  Elec       q    Type
REMARK                         _______ _______ _______ _____ _____    ______ ____
ROOT
ATOM      1  C   UNL     1      -4.256  11.301  17.555  0.00  0.00    +0.000 A 
ATOM      2  C   UNL     1      -4.257  12.021  18.768  0.00  0.00    +0.000 A 
ATOM      3  C   UNL     1      -3.063  12.218  19.507  0.00  0.00    +0.000 A 
ATOM      4  C   UNL     1      -2.766  12.781  20.791  0.00  0.00    +0.000 A 
ATOM      5  C   UNL     1      -1.381  12.761  20.976  0.00  0.00    +0.000 A 
ATOM      6  N   UNL     1      -0.870  12.077  19.875  0.00  0.00    +0.000 N 
ATOM      7  C   UNL     1      -1.888  11.681  19.019  0.00  0.00    +0.000 A 
ATOM      8  C   UNL     1      -1.880  10.876  17.866  0.00  0.00    +0.000 A 
ATOM      9  C   UNL     1      -3.070  10.693  17.134  0.00  0.00    +0.000 A 
ENDROOT
BRANCH   4  10
ATOM     10  C   UNL     1      -3.757  13.042  21.827  0.00  0.00    +0.000 A 
ATOM     11  C   UNL     1      -3.673  12.555  23.143  0.00  0.00    +0.000 A 
ATOM     12  C   UNL     1      -4.664  12.881  24.087  0.00  0.00    +0.000 A 
ATOM     13  C   UNL     1      -5.666  13.741  23.700  0.00  0.00    +0.000 A 
ATOM     14  C   UNL     1      -5.741  14.218  22.418  0.00  0.00    +0.000 A 
ATOM     15  C   UNL     1      -4.830  13.864  21.456  0.00  0.00    +0.000 A 
ATOM     16  O   UNL     1      -6.763  15.098  22.238  0.00  0.00    +0.000 OA
ATOM     17  C   UNL     1      -7.176  15.271  23.604  0.00  0.00    +0.000 C 
ATOM     18  O   UNL     1      -6.654  14.249  24.483  0.00  0.00    +0.000 OA
ENDBRANCH   4  10
BRANCH   1  20
ATOM     19  C   UNL     1      -6.431  12.119  17.036  0.00  0.00    +0.000 C 
ATOM     20  O   UNL     1      -5.404  11.141  16.835  0.00  0.00    +0.000 OA
ENDBRANCH   1  20
BRANCH   5  21
ATOM     21  C   UNL     1      -0.639  13.367  22.075  0.00  0.00    +0.000 C 
ATOM     22  O   UNL     1      -0.197  12.786  23.056  0.00  0.00    +0.000 OA
BRANCH  21  23
ATOM     23  O   UNL     1      -0.486  14.709  21.959  0.00  0.00    +0.000 OA
ATOM     24  H   UNL     1      -0.800  15.208  22.728  0.00  0.00    +0.000 HD
ENDBRANCH  21  23
ENDBRANCH   5  21
BRANCH   9  25
ATOM     25  O   UNL     1      -2.854   9.883  16.053  0.00  0.00    +0.000 OA
ATOM     26  C   UNL     1      -2.993  10.382  14.736  0.00  0.00    +0.000 C 
ENDBRANCH   9  25
BRANCH   6  27
ATOM     27  C   UNL     1       0.533  11.778  19.608  0.00  0.00    +0.000 C 
BRANCH  27  28
ATOM     28  C   UNL     1       0.892  10.301  19.730  0.00  0.00    +0.000 A 
ATOM     29  C   UNL     1       0.651   9.541  20.918  0.00  0.00    +0.000 A 
ATOM     30  C   UNL     1       1.106   8.224  21.118  0.00  0.00    +0.000 A 
ATOM     31  C   UNL     1       1.799   7.634  20.037  0.00  0.00    +0.000 A 
ATOM     32  N   UNL     1       2.334   6.406  20.019  0.00  0.00    +0.000 NA
ATOM     33  S   UNL     1       3.022   6.217  18.518  0.00  0.00    +0.000 S 
ATOM     34  N   UNL     1       2.675   7.692  17.829  0.00  0.00    +0.000 NA
ATOM     35  C   UNL     1       2.013   8.394  18.758  0.00  0.00    +0.000 A 
ATOM     36  C   UNL     1       1.546   9.724  18.614  0.00  0.00    +0.000 A 
ENDBRANCH  27  28
ENDBRANCH   6  27
TORSDOF 7
ENDMDL
MODEL 9
REMARK VINA RESULT:      -6.7      4.085      8.458
REMARK  Name = 
REMARK  9 active torsions:
REMARK  status: ('A' for Active; 'I' for Inactive)
REMARK    1  A    between atoms: C_1  and  O_2
REMARK    2  A    between atoms: O_2  and  C_3
REMARK    3  A    between atoms: C_6  and  C_7
REMARK    4  A    between atoms: C_16  and  C_17
REMARK    5  A    between atoms: C_17  and  O_19
REMARK    6  A    between atoms: N_20  and  C_21
REMARK    7  A    between atoms: C_21  and  C_22
REMARK    8  A    between atoms: C_33  and  O_34
REMARK    9  A    between atoms: O_34  and  C_35
REMARK                            x       y       z     vdW  Elec       q    Type
REMARK                         _______ _______ _______ _____ _____    ______ ____
ROOT
ATOM      1  C   UNL     1       3.166  14.290  21.512  0.00  0.00    +0.000 A 
ATOM      2  C   UNL     1       2.724  13.273  20.640  0.00  0.00    +0.000 A 
ATOM      3  C   UNL     1       1.354  13.142  20.298  0.00  0.00    +0.000 A 
ATOM      4  C   UNL     1       0.599  12.174  19.561  0.00  0.00    +0.000 A 
ATOM      5  C   UNL     1      -0.731  12.600  19.497  0.00  0.00    +0.000 A 
ATOM      6  N   UNL     1      -0.793  13.740  20.297  0.00  0.00    +0.000 N 
ATOM      7  C   UNL     1       0.449  14.032  20.844  0.00  0.00    +0.000 A 
ATOM      8  C   UNL     1       0.852  14.990  21.791  0.00  0.00    +0.000 A 
ATOM      9  C   UNL     1       2.217  15.118  22.118  0.00  0.00    +0.000 A 
ENDROOT
BRANCH   4  10
ATOM     10  C   UNL     1       1.081  10.845  19.209  0.00  0.00    +0.000 A 
ATOM     11  C   UNL     1       1.782  10.543  18.030  0.00  0.00    +0.000 A 
ATOM     12  C   UNL     1       2.235   9.234  17.784  0.00  0.00    +0.000 A 
ATOM     13  C   UNL     1       2.032   8.288  18.762  0.00  0.00    +0.000 A 
ATOM     14  C   UNL     1       1.353   8.586  19.914  0.00  0.00    +0.000 A 
ATOM     15  C   UNL     1       0.839   9.836  20.152  0.00  0.00    +0.000 A 
ATOM     16  O   UNL     1       1.301   7.543  20.786  0.00  0.00    +0.000 OA
ATOM     17  C   UNL     1       2.207   6.637  20.132  0.00  0.00    +0.000 C 
ATOM     18  O   UNL     1       2.473   7.002  18.759  0.00  0.00    +0.000 OA
ENDBRANCH   4  10
BRANCH   1  20
ATOM     19  C   UNL     1       5.270  15.242  20.929  0.00  0.00    +0.000 C 
ATOM     20  O   UNL     1       4.491  14.428  21.813  0.00  0.00    +0.000 OA
ENDBRANCH   1  20
BRANCH   5  21
ATOM     21  C   UNL     1      -1.807  11.993  18.723  0.00  0.00    +0.000 C 
ATOM     22  O   UNL     1      -2.706  11.292  19.161  0.00  0.00    +0.000 OA
BRANCH  21  23
ATOM     23  O   UNL     1      -1.727  12.237  17.391  0.00  0.00    +0.000 OA
ATOM     24  H   UNL     1      -2.042  13.116  17.134  0.00  0.00    +0.000 HD
ENDBRANCH  21  23
ENDBRANCH   5  21
BRANCH   9  25
ATOM     25  O   UNL     1       2.401  16.099  23.053  0.00  0.00    +0.000 OA
ATOM     26  C   UNL     1       1.740  17.345  22.933  0.00  0.00    +0.000 C 
ENDBRANCH   9  25
BRANCH   6  27
ATOM     27  C   UNL     1      -1.974  14.553  20.568  0.00  0.00    +0.000 C 
BRANCH  27  28
ATOM     28  C   UNL     1      -2.878  13.996  21.662  0.00  0.00    +0.000 A 
ATOM     29  C   UNL     1      -2.448  12.993  22.587  0.00  0.00    +0.000 A 
ATOM     30  C   UNL     1      -3.299  12.350  23.506  0.00  0.00    +0.000 A 
ATOM     31  C   UNL     1      -4.644  12.784  23.518  0.00  0.00    +0.000 A 
ATOM     32  N   UNL     1      -5.623  12.297  24.292  0.00  0.00    +0.000 NA
ATOM     33  S   UNL     1      -6.993  13.157  23.910  0.00  0.00    +0.000 S 
ATOM     34  N   UNL     1      -6.402  14.180  22.738  0.00  0.00    +0.000 NA
ATOM     35  C   UNL     1      -5.104  13.877  22.595  0.00  0.00    +0.000 A 
ATOM     36  C   UNL     1      -4.209  14.482  21.678  0.00  0.00    +0.000 A 
ENDBRANCH  27  28
ENDBRANCH   6  27
TORSDOF 7
ENDMDL
