MODEL 1
REMARK VINA RESULT:      -7.2      0.000      0.000
REMARK  Name = 
REMARK  8 active torsions:
REMARK  status: ('A' for Active; 'I' for Inactive)
REMARK    1  A    between atoms: C_1  and  O_2
REMARK    2  A    between atoms: O_2  and  C_3
REMARK    3  A    between atoms: C_8  and  N_9
REMARK    4  A    between atoms: N_12  and  C_13
REMARK    5  A    between atoms: C_13  and  C_14
REMARK    6  A    between atoms: C_18  and  O_19
REMARK    7  A    between atoms: O_19  and  C_20
REMARK    8  A    between atoms: C_21  and  O_22
REMARK                            x       y       z     vdW  Elec       q    Type
REMARK                         _______ _______ _______ _____ _____    ______ ____
ROOT
ATOM      1  N   UNL     1       4.588   5.195  18.255  0.00  0.00    +0.000 N 
ATOM      2  C   UNL     1       4.394   5.050  16.806  0.00  0.00    +0.000 C 
ATOM      3  C   UNL     1       5.291   6.076  16.050  0.00  0.00    +0.000 C 
ATOM      4  N   UNL     1       6.728   6.119  16.436  0.00  0.00    +0.000 NA
ATOM      5  C   UNL     1       6.800   6.210  17.915  0.00  0.00    +0.000 C 
ATOM      6  C   UNL     1       5.996   5.132  18.676  0.00  0.00    +0.000 C 
ENDROOT
BRANCH   1  12
ATOM      7  C   UNL     1       3.252   3.641  19.687  0.00  0.00    +0.000 A 
ATOM      8  C   UNL     1       2.159   3.488  20.565  0.00  0.00    +0.000 A 
ATOM      9  C   UNL     1       1.410   4.585  20.985  0.00  0.00    +0.000 A 
ATOM     10  C   UNL     1       1.734   5.849  20.524  0.00  0.00    +0.000 A 
ATOM     11  C   UNL     1       2.797   6.005  19.633  0.00  0.00    +0.000 A 
ATOM     12  C   UNL     1       3.587   4.923  19.184  0.00  0.00    +0.000 A 
BRANCH   7  14
ATOM     13  C   UNL     1       3.460   1.711  18.305  0.00  0.00    +0.000 C 
ATOM     14  O   UNL     1       4.021   2.569  19.292  0.00  0.00    +0.000 OA
ENDBRANCH   7  14
ENDBRANCH   1  12
BRANCH   4  15
ATOM     15  C   UNL     1       7.441   4.942  15.898  0.00  0.00    +0.000 C 
BRANCH  15  16
ATOM     16  C   UNL     1       7.285   4.759  14.398  0.00  0.00    +0.000 A 
ATOM     17  C   UNL     1       7.953   5.630  13.522  0.00  0.00    +0.000 A 
ATOM     18  C   UNL     1       7.822   5.485  12.141  0.00  0.00    +0.000 A 
ATOM     19  C   UNL     1       7.034   4.456  11.622  0.00  0.00    +0.000 A 
ATOM     20  C   UNL     1       6.372   3.561  12.470  0.00  0.00    +0.000 A 
ATOM     21  C   UNL     1       6.483   3.735  13.857  0.00  0.00    +0.000 A 
BRANCH  20  22
ATOM     22  O   UNL     1       5.595   2.654  11.803  0.00  0.00    +0.000 OA
ATOM     23  C   UNL     1       4.307   3.080  11.388  0.00  0.00    +0.000 C 
ENDBRANCH  20  22
BRANCH  21  24
ATOM     24  O   UNL     1       5.788   2.962  14.746  0.00  0.00    +0.000 OA
ATOM     25  H   UNL     1       5.179   3.544  15.223  0.00  0.00    +0.000 HD
ENDBRANCH  21  24
ENDBRANCH  15  16
ENDBRANCH   4  15
TORSDOF 6
ENDMDL
MODEL 2
REMARK VINA RESULT:      -6.9      1.083      1.855
REMARK  Name = 
REMARK  8 active torsions:
REMARK  status: ('A' for Active; 'I' for Inactive)
REMARK    1  A    between atoms: C_1  and  O_2
REMARK    2  A    between atoms: O_2  and  C_3
REMARK    3  A    between atoms: C_8  and  N_9
REMARK    4  A    between atoms: N_12  and  C_13
REMARK    5  A    between atoms: C_13  and  C_14
REMARK    6  A    between atoms: C_18  and  O_19
REMARK    7  A    between atoms: O_19  and  C_20
REMARK    8  A    between atoms: C_21  and  O_22
REMARK                            x       y       z     vdW  Elec       q    Type
REMARK                         _______ _______ _______ _____ _____    ______ ____
ROOT
ATOM      1  N   UNL     1       4.322   4.952  18.256  0.00  0.00    +0.000 N 
ATOM      2  C   UNL     1       4.227   4.906  16.790  0.00  0.00    +0.000 C 
ATOM      3  C   UNL     1       5.190   5.962  16.168  0.00  0.00    +0.000 C 
ATOM      4  N   UNL     1       6.598   5.950  16.654  0.00  0.00    +0.000 NA
ATOM      5  C   UNL     1       6.568   5.942  18.137  0.00  0.00    +0.000 C 
ATOM      6  C   UNL     1       5.696   4.833  18.767  0.00  0.00    +0.000 C 
ENDROOT
BRANCH   1  12
ATOM      7  C   UNL     1       2.500   5.568  19.854  0.00  0.00    +0.000 A 
ATOM      8  C   UNL     1       1.494   5.114  20.730  0.00  0.00    +0.000 A 
ATOM      9  C   UNL     1       1.192   3.759  20.844  0.00  0.00    +0.000 A 
ATOM     10  C   UNL     1       1.900   2.836  20.094  0.00  0.00    +0.000 A 
ATOM     11  C   UNL     1       2.917   3.275  19.246  0.00  0.00    +0.000 A 
ATOM     12  C   UNL     1       3.255   4.639  19.094  0.00  0.00    +0.000 A 
BRANCH   7  14
ATOM     13  C   UNL     1       2.222   7.559  18.574  0.00  0.00    +0.000 C 
ATOM     14  O   UNL     1       2.785   6.907  19.707  0.00  0.00    +0.000 OA
ENDBRANCH   7  14
ENDBRANCH   1  12
BRANCH   4  15
ATOM     15  C   UNL     1       7.327   4.797  16.087  0.00  0.00    +0.000 C 
BRANCH  15  16
ATOM     16  C   UNL     1       7.223   4.683  14.575  0.00  0.00    +0.000 A 
ATOM     17  C   UNL     1       7.928   5.588  13.764  0.00  0.00    +0.000 A 
ATOM     18  C   UNL     1       7.844   5.506  12.375  0.00  0.00    +0.000 A 
ATOM     19  C   UNL     1       7.069   4.507  11.781  0.00  0.00    +0.000 A 
ATOM     20  C   UNL     1       6.373   3.580  12.565  0.00  0.00    +0.000 A 
ATOM     21  C   UNL     1       6.435   3.691  13.961  0.00  0.00    +0.000 A 
BRANCH  20  22
ATOM     22  O   UNL     1       5.613   2.710  11.831  0.00  0.00    +0.000 OA
ATOM     23  C   UNL     1       4.330   3.152  11.418  0.00  0.00    +0.000 C 
ENDBRANCH  20  22
BRANCH  21  24
ATOM     24  O   UNL     1       5.704   2.884  14.790  0.00  0.00    +0.000 OA
ATOM     25  H   UNL     1       5.861   3.180  15.697  0.00  0.00    +0.000 HD
ENDBRANCH  21  24
ENDBRANCH  15  16
ENDBRANCH   4  15
TORSDOF 6
ENDMDL
MODEL 3
REMARK VINA RESULT:      -6.5      3.398      5.348
REMARK  Name = 
REMARK  8 active torsions:
REMARK  status: ('A' for Active; 'I' for Inactive)
REMARK    1  A    between atoms: C_1  and  O_2
REMARK    2  A    between atoms: O_2  and  C_3
REMARK    3  A    between atoms: C_8  and  N_9
REMARK    4  A    between atoms: N_12  and  C_13
REMARK    5  A    between atoms: C_13  and  C_14
REMARK    6  A    between atoms: C_18  and  O_19
REMARK    7  A    between atoms: O_19  and  C_20
REMARK    8  A    between atoms: C_21  and  O_22
REMARK                            x       y       z     vdW  Elec       q    Type
REMARK                         _______ _______ _______ _____ _____    ______ ____
ROOT
ATOM      1  N   UNL     1       1.452   7.745  20.243  0.00  0.00    +0.000 N 
ATOM      2  C   UNL     1       1.713   6.479  20.940  0.00  0.00    +0.000 C 
ATOM      3  C   UNL     1       1.838   5.324  19.902  0.00  0.00    +0.000 C 
ATOM      4  N   UNL     1       2.762   5.551  18.757  0.00  0.00    +0.000 NA
ATOM      5  C   UNL     1       2.442   6.875  18.169  0.00  0.00    +0.000 C 
ATOM      6  C   UNL     1       2.417   8.047  19.175  0.00  0.00    +0.000 C 
ENDROOT
BRANCH   1  12
ATOM      7  C   UNL     1       0.085   9.835  20.097  0.00  0.00    +0.000 A 
ATOM      8  C   UNL     1      -0.562  10.874  20.795  0.00  0.00    +0.000 A 
ATOM      9  C   UNL     1      -0.632  10.877  22.187  0.00  0.00    +0.000 A 
ATOM     10  C   UNL     1      -0.043   9.848  22.901  0.00  0.00    +0.000 A 
ATOM     11  C   UNL     1       0.624   8.830  22.219  0.00  0.00    +0.000 A 
ATOM     12  C   UNL     1       0.716   8.783  20.809  0.00  0.00    +0.000 A 
BRANCH   7  14
ATOM     13  C   UNL     1      -1.045  10.211  18.033  0.00  0.00    +0.000 C 
ATOM     14  O   UNL     1       0.132   9.803  18.721  0.00  0.00    +0.000 OA
ENDBRANCH   7  14
ENDBRANCH   1  12
BRANCH   4  15
ATOM     15  C   UNL     1       4.167   5.444  19.201  0.00  0.00    +0.000 C 
BRANCH  15  16
ATOM     16  C   UNL     1       5.170   5.361  18.062  0.00  0.00    +0.000 A 
ATOM     17  C   UNL     1       6.241   6.270  18.016  0.00  0.00    +0.000 A 
ATOM     18  C   UNL     1       7.171   6.217  16.979  0.00  0.00    +0.000 A 
ATOM     19  C   UNL     1       7.051   5.242  15.986  0.00  0.00    +0.000 A 
ATOM     20  C   UNL     1       6.007   4.311  16.018  0.00  0.00    +0.000 A 
ATOM     21  C   UNL     1       5.056   4.394  17.046  0.00  0.00    +0.000 A 
BRANCH  20  22
ATOM     22  O   UNL     1       5.998   3.467  14.941  0.00  0.00    +0.000 OA
ATOM     23  C   UNL     1       6.362   4.012  13.683  0.00  0.00    +0.000 C 
ENDBRANCH  20  22
BRANCH  21  24
ATOM     24  O   UNL     1       3.955   3.583  17.087  0.00  0.00    +0.000 OA
ATOM     25  H   UNL     1       3.602   3.526  16.188  0.00  0.00    +0.000 HD
ENDBRANCH  21  24
ENDBRANCH  15  16
ENDBRANCH   4  15
TORSDOF 6
ENDMDL
MODEL 4
REMARK VINA RESULT:      -6.3      3.152      5.546
REMARK  Name = 
REMARK  8 active torsions:
REMARK  status: ('A' for Active; 'I' for Inactive)
REMARK    1  A    between atoms: C_1  and  O_2
REMARK    2  A    between atoms: O_2  and  C_3
REMARK    3  A    between atoms: C_8  and  N_9
REMARK    4  A    between atoms: N_12  and  C_13
REMARK    5  A    between atoms: C_13  and  C_14
REMARK    6  A    between atoms: C_18  and  O_19
REMARK    7  A    between atoms: O_19  and  C_20
REMARK    8  A    between atoms: C_21  and  O_22
REMARK                            x       y       z     vdW  Elec       q    Type
REMARK                         _______ _______ _______ _____ _____    ______ ____
ROOT
ATOM      1  N   UNL     1       1.736   6.831  20.008  0.00  0.00    +0.000 N 
ATOM      2  C   UNL     1       1.735   5.588  20.792  0.00  0.00    +0.000 C 
ATOM      3  C   UNL     1       1.528   4.369  19.843  0.00  0.00    +0.000 C 
ATOM      4  N   UNL     1       2.412   4.295  18.646  0.00  0.00    +0.000 NA
ATOM      5  C   UNL     1       2.375   5.615  17.971  0.00  0.00    +0.000 C 
ATOM      6  C   UNL     1       2.682   6.824  18.882  0.00  0.00    +0.000 C 
ENDROOT
BRANCH   1  12
ATOM      7  C   UNL     1       1.106   9.240  19.777  0.00  0.00    +0.000 A 
ATOM      8  C   UNL     1       0.735  10.432  20.431  0.00  0.00    +0.000 A 
ATOM      9  C   UNL     1       0.510  10.463  21.806  0.00  0.00    +0.000 A 
ATOM     10  C   UNL     1       0.667   9.306  22.549  0.00  0.00    +0.000 A 
ATOM     11  C   UNL     1       1.062   8.128  21.913  0.00  0.00    +0.000 A 
ATOM     12  C   UNL     1       1.296   8.048  20.521  0.00  0.00    +0.000 A 
BRANCH   7  14
ATOM     13  C   UNL     1       1.964  10.296  17.821  0.00  0.00    +0.000 C 
ATOM     14  O   UNL     1       1.298   9.188  18.414  0.00  0.00    +0.000 OA
ENDBRANCH   7  14
ENDBRANCH   1  12
BRANCH   4  15
ATOM     15  C   UNL     1       3.777   3.889  19.040  0.00  0.00    +0.000 C 
BRANCH  15  16
ATOM     16  C   UNL     1       4.846   4.251  18.023  0.00  0.00    +0.000 A 
ATOM     17  C   UNL     1       4.796   3.687  16.737  0.00  0.00    +0.000 A 
ATOM     18  C   UNL     1       5.769   3.999  15.788  0.00  0.00    +0.000 A 
ATOM     19  C   UNL     1       6.792   4.894  16.109  0.00  0.00    +0.000 A 
ATOM     20  C   UNL     1       6.856   5.486  17.375  0.00  0.00    +0.000 A 
ATOM     21  C   UNL     1       5.893   5.140  18.334  0.00  0.00    +0.000 A 
BRANCH  20  22
ATOM     22  O   UNL     1       7.952   6.287  17.546  0.00  0.00    +0.000 OA
ATOM     23  C   UNL     1       7.739   7.689  17.559  0.00  0.00    +0.000 C 
ENDBRANCH  20  22
BRANCH  21  24
ATOM     24  O   UNL     1       5.947   5.601  19.621  0.00  0.00    +0.000 OA
ATOM     25  H   UNL     1       5.154   6.135  19.772  0.00  0.00    +0.000 HD
ENDBRANCH  21  24
ENDBRANCH  15  16
ENDBRANCH   4  15
TORSDOF 6
ENDMDL
MODEL 5
REMARK VINA RESULT:      -6.2      1.595      7.099
REMARK  Name = 
REMARK  8 active torsions:
REMARK  status: ('A' for Active; 'I' for Inactive)
REMARK    1  A    between atoms: C_1  and  O_2
REMARK    2  A    between atoms: O_2  and  C_3
REMARK    3  A    between atoms: C_8  and  N_9
REMARK    4  A    between atoms: N_12  and  C_13
REMARK    5  A    between atoms: C_13  and  C_14
REMARK    6  A    between atoms: C_18  and  O_19
REMARK    7  A    between atoms: O_19  and  C_20
REMARK    8  A    between atoms: C_21  and  O_22
REMARK                            x       y       z     vdW  Elec       q    Type
REMARK                         _______ _______ _______ _____ _____    ______ ____
ROOT
ATOM      1  N   UNL     1       6.281   4.939  15.612  0.00  0.00    +0.000 N 
ATOM      2  C   UNL     1       7.376   4.887  16.590  0.00  0.00    +0.000 C 
ATOM      3  C   UNL     1       7.229   6.061  17.605  0.00  0.00    +0.000 C 
ATOM      4  N   UNL     1       5.894   6.230  18.243  0.00  0.00    +0.000 NA
ATOM      5  C   UNL     1       4.870   6.212  17.170  0.00  0.00    +0.000 C 
ATOM      6  C   UNL     1       4.942   4.996  16.218  0.00  0.00    +0.000 C 
ENDROOT
BRANCH   1  12
ATOM      7  C   UNL     1       7.404   4.910  13.378  0.00  0.00    +0.000 A 
ATOM      8  C   UNL     1       7.383   4.437  12.050  0.00  0.00    +0.000 A 
ATOM      9  C   UNL     1       6.422   3.523  11.624  0.00  0.00    +0.000 A 
ATOM     10  C   UNL     1       5.461   3.079  12.514  0.00  0.00    +0.000 A 
ATOM     11  C   UNL     1       5.458   3.564  13.823  0.00  0.00    +0.000 A 
ATOM     12  C   UNL     1       6.416   4.487  14.301  0.00  0.00    +0.000 A 
BRANCH   7  14
ATOM     13  C   UNL     1       9.429   6.081  12.917  0.00  0.00    +0.000 C 
ATOM     14  O   UNL     1       8.369   5.788  13.820  0.00  0.00    +0.000 OA
ENDBRANCH   7  14
ENDBRANCH   1  12
BRANCH   4  15
ATOM     15  C   UNL     1       5.676   5.183  19.263  0.00  0.00    +0.000 C 
BRANCH  15  16
ATOM     16  C   UNL     1       4.211   4.887  19.540  0.00  0.00    +0.000 A 
ATOM     17  C   UNL     1       3.354   5.935  19.916  0.00  0.00    +0.000 A 
ATOM     18  C   UNL     1       2.008   5.687  20.181  0.00  0.00    +0.000 A 
ATOM     19  C   UNL     1       1.500   4.392  20.056  0.00  0.00    +0.000 A 
ATOM     20  C   UNL     1       2.326   3.333  19.665  0.00  0.00    +0.000 A 
ATOM     21  C   UNL     1       3.687   3.585  19.433  0.00  0.00    +0.000 A 
BRANCH  20  22
ATOM     22  O   UNL     1       1.689   2.122  19.652  0.00  0.00    +0.000 OA
ATOM     23  C   UNL     1       0.559   1.990  18.805  0.00  0.00    +0.000 C 
ENDBRANCH  20  22
BRANCH  21  24
ATOM     24  O   UNL     1       4.574   2.584  19.144  0.00  0.00    +0.000 OA
ATOM     25  H   UNL     1       5.428   2.999  18.957  0.00  0.00    +0.000 HD
ENDBRANCH  21  24
ENDBRANCH  15  16
ENDBRANCH   4  15
TORSDOF 6
ENDMDL
MODEL 6
REMARK VINA RESULT:      -6.2      3.440      5.418
REMARK  Name = 
REMARK  8 active torsions:
REMARK  status: ('A' for Active; 'I' for Inactive)
REMARK    1  A    between atoms: C_1  and  O_2
REMARK    2  A    between atoms: O_2  and  C_3
REMARK    3  A    between atoms: C_8  and  N_9
REMARK    4  A    between atoms: N_12  and  C_13
REMARK    5  A    between atoms: C_13  and  C_14
REMARK    6  A    between atoms: C_18  and  O_19
REMARK    7  A    between atoms: O_19  and  C_20
REMARK    8  A    between atoms: C_21  and  O_22
REMARK                            x       y       z     vdW  Elec       q    Type
REMARK                         _______ _______ _______ _____ _____    ______ ____
ROOT
ATOM      1  N   UNL     1       1.679   8.040  19.558  0.00  0.00    +0.000 N 
ATOM      2  C   UNL     1       1.935   7.120  20.674  0.00  0.00    +0.000 C 
ATOM      3  C   UNL     1       1.965   5.653  20.148  0.00  0.00    +0.000 C 
ATOM      4  N   UNL     1       2.833   5.383  18.969  0.00  0.00    +0.000 NA
ATOM      5  C   UNL     1       2.526   6.401  17.935  0.00  0.00    +0.000 C 
ATOM      6  C   UNL     1       2.595   7.866  18.420  0.00  0.00    +0.000 C 
ENDROOT
BRANCH   1  12
ATOM      7  C   UNL     1       0.520   9.774  20.937  0.00  0.00    +0.000 A 
ATOM      8  C   UNL     1      -0.215  10.977  20.950  0.00  0.00    +0.000 A 
ATOM      9  C   UNL     1      -0.444  11.696  19.779  0.00  0.00    +0.000 A 
ATOM     10  C   UNL     1       0.045  11.217  18.577  0.00  0.00    +0.000 A 
ATOM     11  C   UNL     1       0.749  10.012  18.552  0.00  0.00    +0.000 A 
ATOM     12  C   UNL     1       1.011   9.252  19.714  0.00  0.00    +0.000 A 
BRANCH   7  14
ATOM     13  C   UNL     1       0.040   9.442  23.248  0.00  0.00    +0.000 C 
ATOM     14  O   UNL     1       0.783   9.072  22.092  0.00  0.00    +0.000 OA
ENDBRANCH   7  14
ENDBRANCH   1  12
BRANCH   4  15
ATOM     15  C   UNL     1       4.255   5.379  19.368  0.00  0.00    +0.000 C 
BRANCH  15  16
ATOM     16  C   UNL     1       5.225   5.339  18.198  0.00  0.00    +0.000 A 
ATOM     17  C   UNL     1       6.193   6.348  18.068  0.00  0.00    +0.000 A 
ATOM     18  C   UNL     1       7.090   6.336  17.000  0.00  0.00    +0.000 A 
ATOM     19  C   UNL     1       7.039   5.304  16.061  0.00  0.00    +0.000 A 
ATOM     20  C   UNL     1       6.098   4.275  16.176  0.00  0.00    +0.000 A 
ATOM     21  C   UNL     1       5.178   4.314  17.233  0.00  0.00    +0.000 A 
BRANCH  20  22
ATOM     22  O   UNL     1       6.141   3.380  15.141  0.00  0.00    +0.000 OA
ATOM     23  C   UNL     1       6.200   3.907  13.826  0.00  0.00    +0.000 C 
ENDBRANCH  20  22
BRANCH  21  24
ATOM     24  O   UNL     1       4.168   3.399  17.355  0.00  0.00    +0.000 OA
ATOM     25  H   UNL     1       4.558   2.520  17.247  0.00  0.00    +0.000 HD
ENDBRANCH  21  24
ENDBRANCH  15  16
ENDBRANCH   4  15
TORSDOF 6
ENDMDL
MODEL 7
REMARK VINA RESULT:      -6.1      6.570      9.447
REMARK  Name = 
REMARK  8 active torsions:
REMARK  status: ('A' for Active; 'I' for Inactive)
REMARK    1  A    between atoms: C_1  and  O_2
REMARK    2  A    between atoms: O_2  and  C_3
REMARK    3  A    between atoms: C_8  and  N_9
REMARK    4  A    between atoms: N_12  and  C_13
REMARK    5  A    between atoms: C_13  and  C_14
REMARK    6  A    between atoms: C_18  and  O_19
REMARK    7  A    between atoms: O_19  and  C_20
REMARK    8  A    between atoms: C_21  and  O_22
REMARK                            x       y       z     vdW  Elec       q    Type
REMARK                         _______ _______ _______ _____ _____    ______ ____
ROOT
ATOM      1  N   UNL     1      -1.065  11.192  22.322  0.00  0.00    +0.000 N 
ATOM      2  C   UNL     1      -0.428  10.089  23.055  0.00  0.00    +0.000 C 
ATOM      3  C   UNL     1      -0.517   8.780  22.214  0.00  0.00    +0.000 C 
ATOM      4  N   UNL     1      -0.068   8.864  20.797  0.00  0.00    +0.000 NA
ATOM      5  C   UNL     1      -0.730  10.039  20.179  0.00  0.00    +0.000 C 
ATOM      6  C   UNL     1      -0.561  11.365  20.952  0.00  0.00    +0.000 C 
ENDROOT
BRANCH   1  12
ATOM      7  C   UNL     1      -1.103  13.522  23.230  0.00  0.00    +0.000 A 
ATOM      8  C   UNL     1      -1.818  14.495  23.956  0.00  0.00    +0.000 A 
ATOM      9  C   UNL     1      -3.121  14.262  24.391  0.00  0.00    +0.000 A 
ATOM     10  C   UNL     1      -3.723  13.046  24.117  0.00  0.00    +0.000 A 
ATOM     11  C   UNL     1      -3.012  12.066  23.423  0.00  0.00    +0.000 A 
ATOM     12  C   UNL     1      -1.691  12.261  22.958  0.00  0.00    +0.000 A 
BRANCH   7  14
ATOM     13  C   UNL     1       0.345  14.872  21.903  0.00  0.00    +0.000 C 
ATOM     14  O   UNL     1       0.173  13.753  22.765  0.00  0.00    +0.000 OA
ENDBRANCH   7  14
ENDBRANCH   1  12
BRANCH   4  15
ATOM     15  C   UNL     1       1.406   8.933  20.727  0.00  0.00    +0.000 C 
BRANCH  15  16
ATOM     16  C   UNL     1       2.021   7.992  19.704  0.00  0.00    +0.000 A 
ATOM     17  C   UNL     1       2.358   8.482  18.431  0.00  0.00    +0.000 A 
ATOM     18  C   UNL     1       2.918   7.638  17.473  0.00  0.00    +0.000 A 
ATOM     19  C   UNL     1       3.164   6.299  17.784  0.00  0.00    +0.000 A 
ATOM     20  C   UNL     1       2.857   5.789  19.050  0.00  0.00    +0.000 A 
ATOM     21  C   UNL     1       2.262   6.636  19.996  0.00  0.00    +0.000 A 
BRANCH  20  22
ATOM     22  O   UNL     1       3.101   4.447  19.170  0.00  0.00    +0.000 OA
ATOM     23  C   UNL     1       4.308   3.953  18.613  0.00  0.00    +0.000 C 
ENDBRANCH  20  22
BRANCH  21  24
ATOM     24  O   UNL     1       1.844   6.186  21.218  0.00  0.00    +0.000 OA
ATOM     25  H   UNL     1       1.026   5.688  21.080  0.00  0.00    +0.000 HD
ENDBRANCH  21  24
ENDBRANCH  15  16
ENDBRANCH   4  15
TORSDOF 6
ENDMDL
MODEL 8
REMARK VINA RESULT:      -6.0      3.831      5.623
REMARK  Name = 
REMARK  8 active torsions:
REMARK  status: ('A' for Active; 'I' for Inactive)
REMARK    1  A    between atoms: C_1  and  O_2
REMARK    2  A    between atoms: O_2  and  C_3
REMARK    3  A    between atoms: C_8  and  N_9
REMARK    4  A    between atoms: N_12  and  C_13
REMARK    5  A    between atoms: C_13  and  C_14
REMARK    6  A    between atoms: C_18  and  O_19
REMARK    7  A    between atoms: O_19  and  C_20
REMARK    8  A    between atoms: C_21  and  O_22
REMARK                            x       y       z     vdW  Elec       q    Type
REMARK                         _______ _______ _______ _____ _____    ______ ____
ROOT
ATOM      1  N   UNL     1       1.412   8.218  19.999  0.00  0.00    +0.000 N 
ATOM      2  C   UNL     1       1.983   6.935  20.432  0.00  0.00    +0.000 C 
ATOM      3  C   UNL     1       2.020   5.945  19.229  0.00  0.00    +0.000 C 
ATOM      4  N   UNL     1       2.629   6.449  17.967  0.00  0.00    +0.000 NA
ATOM      5  C   UNL     1       2.018   7.766  17.661  0.00  0.00    +0.000 C 
ATOM      6  C   UNL     1       2.068   8.792  18.814  0.00  0.00    +0.000 C 
ENDROOT
BRANCH   1  12
ATOM      7  C   UNL     1      -0.126  10.138  20.451  0.00  0.00    +0.000 A 
ATOM      8  C   UNL     1      -0.736  10.960  21.419  0.00  0.00    +0.000 A 
ATOM      9  C   UNL     1      -0.582  10.710  22.781  0.00  0.00    +0.000 A 
ATOM     10  C   UNL     1       0.194   9.642  23.195  0.00  0.00    +0.000 A 
ATOM     11  C   UNL     1       0.825   8.840  22.243  0.00  0.00    +0.000 A 
ATOM     12  C   UNL     1       0.694   9.053  20.852  0.00  0.00    +0.000 A 
BRANCH   7  14
ATOM     13  C   UNL     1      -0.823  11.621  18.720  0.00  0.00    +0.000 C 
ATOM     14  O   UNL     1      -0.298  10.355  19.102  0.00  0.00    +0.000 OA
ENDBRANCH   7  14
ENDBRANCH   1  12
BRANCH   4  15
ATOM     15  C   UNL     1       4.099   6.513  18.095  0.00  0.00    +0.000 C 
BRANCH  15  16
ATOM     16  C   UNL     1       4.843   5.610  17.125  0.00  0.00    +0.000 A 
ATOM     17  C   UNL     1       4.417   4.283  16.951  0.00  0.00    +0.000 A 
ATOM     18  C   UNL     1       5.086   3.433  16.072  0.00  0.00    +0.000 A 
ATOM     19  C   UNL     1       6.179   3.907  15.343  0.00  0.00    +0.000 A 
ATOM     20  C   UNL     1       6.614   5.230  15.481  0.00  0.00    +0.000 A 
ATOM     21  C   UNL     1       5.956   6.067  16.393  0.00  0.00    +0.000 A 
BRANCH  20  22
ATOM     22  O   UNL     1       7.732   5.514  14.746  0.00  0.00    +0.000 OA
ATOM     23  C   UNL     1       7.755   5.074  13.397  0.00  0.00    +0.000 C 
ENDBRANCH  20  22
BRANCH  21  24
ATOM     24  O   UNL     1       6.385   7.340  16.655  0.00  0.00    +0.000 OA
ATOM     25  H   UNL     1       7.339   7.299  16.809  0.00  0.00    +0.000 HD
ENDBRANCH  21  24
ENDBRANCH  15  16
ENDBRANCH   4  15
TORSDOF 6
ENDMDL
MODEL 9
REMARK VINA RESULT:      -6.0      3.950      5.721
REMARK  Name = 
REMARK  8 active torsions:
REMARK  status: ('A' for Active; 'I' for Inactive)
REMARK    1  A    between atoms: C_1  and  O_2
REMARK    2  A    between atoms: O_2  and  C_3
REMARK    3  A    between atoms: C_8  and  N_9
REMARK    4  A    between atoms: N_12  and  C_13
REMARK    5  A    between atoms: C_13  and  C_14
REMARK    6  A    between atoms: C_18  and  O_19
REMARK    7  A    between atoms: O_19  and  C_20
REMARK    8  A    between atoms: C_21  and  O_22
REMARK                            x       y       z     vdW  Elec       q    Type
REMARK                         _______ _______ _______ _____ _____    ______ ____
ROOT
ATOM      1  N   UNL     1       1.380   8.628  19.980  0.00  0.00    +0.000 N 
ATOM      2  C   UNL     1       2.154   7.446  20.385  0.00  0.00    +0.000 C 
ATOM      3  C   UNL     1       2.352   6.504  19.160  0.00  0.00    +0.000 C 
ATOM      4  N   UNL     1       2.868   7.130  17.911  0.00  0.00    +0.000 NA
ATOM      5  C   UNL     1       2.049   8.336  17.634  0.00  0.00    +0.000 C 
ATOM      6  C   UNL     1       1.932   9.329  18.811  0.00  0.00    +0.000 C 
ENDROOT
BRANCH   1  12
ATOM      7  C   UNL     1      -0.376  10.335  20.485  0.00  0.00    +0.000 A 
ATOM      8  C   UNL     1      -1.117  11.011  21.474  0.00  0.00    +0.000 A 
ATOM      9  C   UNL     1      -1.003  10.672  22.821  0.00  0.00    +0.000 A 
ATOM     10  C   UNL     1      -0.135   9.662  23.199  0.00  0.00    +0.000 A 
ATOM     11  C   UNL     1       0.623   9.007  22.227  0.00  0.00    +0.000 A 
ATOM     12  C   UNL     1       0.536   9.314  20.850  0.00  0.00    +0.000 A 
BRANCH   7  14
ATOM     13  C   UNL     1      -1.760  11.166  18.731  0.00  0.00    +0.000 C 
ATOM     14  O   UNL     1      -0.506  10.638  19.147  0.00  0.00    +0.000 OA
ENDBRANCH   7  14
ENDBRANCH   1  12
BRANCH   4  15
ATOM     15  C   UNL     1       4.308   7.431  18.044  0.00  0.00    +0.000 C 
BRANCH  15  16
ATOM     16  C   UNL     1       5.219   6.371  17.447  0.00  0.00    +0.000 A 
ATOM     17  C   UNL     1       5.874   5.465  18.296  0.00  0.00    +0.000 A 
ATOM     18  C   UNL     1       6.719   4.487  17.772  0.00  0.00    +0.000 A 
ATOM     19  C   UNL     1       6.903   4.393  16.391  0.00  0.00    +0.000 A 
ATOM     20  C   UNL     1       6.247   5.270  15.520  0.00  0.00    +0.000 A 
ATOM     21  C   UNL     1       5.426   6.272  16.057  0.00  0.00    +0.000 A 
BRANCH  20  22
ATOM     22  O   UNL     1       6.584   5.085  14.206  0.00  0.00    +0.000 OA
ATOM     23  C   UNL     1       6.252   3.837  13.619  0.00  0.00    +0.000 C 
ENDBRANCH  20  22
BRANCH  21  24
ATOM     24  O   UNL     1       4.832   7.225  15.276  0.00  0.00    +0.000 OA
ATOM     25  H   UNL     1       5.527   7.640  14.745  0.00  0.00    +0.000 HD
ENDBRANCH  21  24
ENDBRANCH  15  16
ENDBRANCH   4  15
TORSDOF 6
ENDMDL
