MODEL 1
REMARK VINA RESULT:      -7.1      0.000      0.000
REMARK  Name = 
REMARK  7 active torsions:
REMARK  status: ('A' for Active; 'I' for Inactive)
REMARK    1  A    between atoms: C_1  and  O_2
REMARK    2  A    between atoms: O_2  and  C_3
REMARK    3  A    between atoms: C_6  and  N_7
REMARK    4  A    between atoms: C_8  and  S_9
REMARK    5  A    between atoms: C_12  and  C_13
REMARK    6  A    between atoms: C_21  and  O_22
REMARK    7  A    between atoms: O_22  and  C_23
REMARK                            x       y       z     vdW  Elec       q    Type
REMARK                         _______ _______ _______ _____ _____    ______ ____
ROOT
ATOM      1  N   UNL     1       3.688   4.340  19.286  0.00  0.00    +0.000 N 
ATOM      2  C   UNL     1       3.500   3.271  20.155  0.00  0.00    +0.000 A 
ATOM      3  N   UNL     1       2.549   3.538  21.017  0.00  0.00    +0.000 NA
ATOM      4  N   UNL     1       2.114   4.808  20.778  0.00  0.00    +0.000 NA
ATOM      5  C   UNL     1       2.809   5.326  19.780  0.00  0.00    +0.000 A 
ENDROOT
BRANCH   5   6
ATOM      6  C   UNL     1       2.576   6.692  19.270  0.00  0.00    +0.000 A 
ATOM      7  C   UNL     1       3.103   7.087  18.027  0.00  0.00    +0.000 A 
ATOM      8  C   UNL     1       2.941   8.392  17.552  0.00  0.00    +0.000 A 
ATOM      9  C   UNL     1       2.189   9.307  18.281  0.00  0.00    +0.000 A 
ATOM     10 CL   UNL     1       1.993  10.912  17.696  0.00  0.00    +0.000 Cl
ATOM     11  C   UNL     1       1.600   8.928  19.482  0.00  0.00    +0.000 A 
ATOM     12  C   UNL     1       1.799   7.633  19.980  0.00  0.00    +0.000 A 
ATOM     13 CL   UNL     1       1.076   7.294  21.517  0.00  0.00    +0.000 Cl
ENDBRANCH   5   6
BRANCH   1  17
ATOM     14  C   UNL     1       6.323   4.498  15.960  0.00  0.00    +0.000 A 
ATOM     15  C   UNL     1       5.008   4.063  15.811  0.00  0.00    +0.000 A 
ATOM     16  C   UNL     1       4.132   4.056  16.899  0.00  0.00    +0.000 A 
ATOM     17  C   UNL     1       4.580   4.449  18.170  0.00  0.00    +0.000 A 
ATOM     18  C   UNL     1       5.918   4.862  18.334  0.00  0.00    +0.000 A 
ATOM     19  C   UNL     1       6.771   4.903  17.217  0.00  0.00    +0.000 A 
BRANCH  14  21
ATOM     20  C   UNL     1       6.415   4.008  13.630  0.00  0.00    +0.000 C 
ATOM     21  O   UNL     1       7.064   4.469  14.808  0.00  0.00    +0.000 OA
ENDBRANCH  14  21
BRANCH  18  22
ATOM     22  O   UNL     1       6.325   5.177  19.601  0.00  0.00    +0.000 OA
ATOM     23  C   UNL     1       7.656   5.633  19.815  0.00  0.00    +0.000 C 
ENDBRANCH  18  22
ENDBRANCH   1  17
BRANCH   2  24
ATOM     24  S   UNL     1       4.506   1.862  20.308  0.00  0.00    +0.000 S 
ATOM     25  H   UNL     1       4.625   1.837  21.641  0.00  0.00    +0.000 HD
ENDBRANCH   2  24
TORSDOF 5
ENDMDL
MODEL 2
REMARK VINA RESULT:      -7.0      6.400      8.927
REMARK  Name = 
REMARK  7 active torsions:
REMARK  status: ('A' for Active; 'I' for Inactive)
REMARK    1  A    between atoms: C_1  and  O_2
REMARK    2  A    between atoms: O_2  and  C_3
REMARK    3  A    between atoms: C_6  and  N_7
REMARK    4  A    between atoms: C_8  and  S_9
REMARK    5  A    between atoms: C_12  and  C_13
REMARK    6  A    between atoms: C_21  and  O_22
REMARK    7  A    between atoms: O_22  and  C_23
REMARK                            x       y       z     vdW  Elec       q    Type
REMARK                         _______ _______ _______ _____ _____    ______ ____
ROOT
ATOM      1  N   UNL     1       0.762  12.496  19.762  0.00  0.00    +0.000 N 
ATOM      2  C   UNL     1       2.049  12.945  19.488  0.00  0.00    +0.000 A 
ATOM      3  N   UNL     1       2.581  13.500  20.550  0.00  0.00    +0.000 NA
ATOM      4  N   UNL     1       1.646  13.481  21.542  0.00  0.00    +0.000 NA
ATOM      5  C   UNL     1       0.535  12.929  21.085  0.00  0.00    +0.000 A 
ENDROOT
BRANCH   5   6
ATOM      6  C   UNL     1      -0.670  12.753  21.919  0.00  0.00    +0.000 A 
ATOM      7  C   UNL     1      -1.573  13.818  22.097  0.00  0.00    +0.000 A 
ATOM      8  C   UNL     1      -2.690  13.689  22.927  0.00  0.00    +0.000 A 
ATOM      9  C   UNL     1      -2.963  12.472  23.540  0.00  0.00    +0.000 A 
ATOM     10 CL   UNL     1      -4.336  12.318  24.563  0.00  0.00    +0.000 Cl
ATOM     11  C   UNL     1      -2.125  11.382  23.332  0.00  0.00    +0.000 A 
ATOM     12  C   UNL     1      -0.981  11.522  22.535  0.00  0.00    +0.000 A 
ATOM     13 CL   UNL     1       0.026  10.118  22.403  0.00  0.00    +0.000 Cl
ENDBRANCH   5   6
BRANCH   1  17
ATOM     14  C   UNL     1      -2.050  10.421  17.350  0.00  0.00    +0.000 A 
ATOM     15  C   UNL     1      -2.257  11.751  17.707  0.00  0.00    +0.000 A 
ATOM     16  C   UNL     1      -1.307  12.442  18.463  0.00  0.00    +0.000 A 
ATOM     17  C   UNL     1      -0.147  11.791  18.909  0.00  0.00    +0.000 A 
ATOM     18  C   UNL     1       0.054  10.435  18.576  0.00  0.00    +0.000 A 
ATOM     19  C   UNL     1      -0.894   9.770  17.779  0.00  0.00    +0.000 A 
BRANCH  14  21
ATOM     20  C   UNL     1      -3.164  10.314  15.247  0.00  0.00    +0.000 C 
ATOM     21  O   UNL     1      -3.053   9.873  16.594  0.00  0.00    +0.000 OA
ENDBRANCH  14  21
BRANCH  18  22
ATOM     22  O   UNL     1       1.168   9.825  19.085  0.00  0.00    +0.000 OA
ATOM     23  C   UNL     1       2.065   9.159  18.203  0.00  0.00    +0.000 C 
ENDBRANCH  18  22
ENDBRANCH   1  17
BRANCH   2  24
ATOM     24  S   UNL     1       2.815  13.028  17.930  0.00  0.00    +0.000 S 
ATOM     25  H   UNL     1       3.829  12.183  18.152  0.00  0.00    +0.000 HD
ENDBRANCH   2  24
TORSDOF 5
ENDMDL
MODEL 3
REMARK VINA RESULT:      -7.0      1.280      2.041
REMARK  Name = 
REMARK  7 active torsions:
REMARK  status: ('A' for Active; 'I' for Inactive)
REMARK    1  A    between atoms: C_1  and  O_2
REMARK    2  A    between atoms: O_2  and  C_3
REMARK    3  A    between atoms: C_6  and  N_7
REMARK    4  A    between atoms: C_8  and  S_9
REMARK    5  A    between atoms: C_12  and  C_13
REMARK    6  A    between atoms: C_21  and  O_22
REMARK    7  A    between atoms: O_22  and  C_23
REMARK                            x       y       z     vdW  Elec       q    Type
REMARK                         _______ _______ _______ _____ _____    ______ ____
ROOT
ATOM      1  N   UNL     1       3.206   4.646  19.655  0.00  0.00    +0.000 N 
ATOM      2  C   UNL     1       2.856   3.611  20.514  0.00  0.00    +0.000 A 
ATOM      3  N   UNL     1       1.799   3.933  21.219  0.00  0.00    +0.000 NA
ATOM      4  N   UNL     1       1.449   5.209  20.887  0.00  0.00    +0.000 NA
ATOM      5  C   UNL     1       2.301   5.674  19.988  0.00  0.00    +0.000 A 
ENDROOT
BRANCH   5   6
ATOM      6  C   UNL     1       2.193   7.030  19.416  0.00  0.00    +0.000 A 
ATOM      7  C   UNL     1       2.630   7.285  18.103  0.00  0.00    +0.000 A 
ATOM      8  C   UNL     1       2.588   8.573  17.561  0.00  0.00    +0.000 A 
ATOM      9  C   UNL     1       2.043   9.618  18.298  0.00  0.00    +0.000 A 
ATOM     10 CL   UNL     1       1.995  11.202  17.631  0.00  0.00    +0.000 Cl
ATOM     11  C   UNL     1       1.543   9.386  19.574  0.00  0.00    +0.000 A 
ATOM     12  C   UNL     1       1.625   8.104  20.135  0.00  0.00    +0.000 A 
ATOM     13 CL   UNL     1       1.034   7.947  21.756  0.00  0.00    +0.000 Cl
ENDBRANCH   5   6
BRANCH   1  17
ATOM     14  C   UNL     1       6.304   4.950  16.766  0.00  0.00    +0.000 A 
ATOM     15  C   UNL     1       6.464   5.477  18.045  0.00  0.00    +0.000 A 
ATOM     16  C   UNL     1       5.460   5.335  19.005  0.00  0.00    +0.000 A 
ATOM     17  C   UNL     1       4.255   4.693  18.680  0.00  0.00    +0.000 A 
ATOM     18  C   UNL     1       4.075   4.183  17.377  0.00  0.00    +0.000 A 
ATOM     19  C   UNL     1       5.115   4.299  16.439  0.00  0.00    +0.000 A 
BRANCH  14  21
ATOM     20  C   UNL     1       7.177   4.876  14.550  0.00  0.00    +0.000 C 
ATOM     21  O   UNL     1       7.373   5.146  15.932  0.00  0.00    +0.000 OA
ENDBRANCH  14  21
BRANCH  18  22
ATOM     22  O   UNL     1       2.861   3.621  17.089  0.00  0.00    +0.000 OA
ATOM     23  C   UNL     1       2.673   2.224  17.287  0.00  0.00    +0.000 C 
ENDBRANCH  18  22
ENDBRANCH   1  17
BRANCH   2  24
ATOM     24  S   UNL     1       3.778   2.176  20.849  0.00  0.00    +0.000 S 
ATOM     25  H   UNL     1       4.612   2.217  19.802  0.00  0.00    +0.000 HD
ENDBRANCH   2  24
TORSDOF 5
ENDMDL
MODEL 4
REMARK VINA RESULT:      -6.9      3.119      5.650
REMARK  Name = 
REMARK  7 active torsions:
REMARK  status: ('A' for Active; 'I' for Inactive)
REMARK    1  A    between atoms: C_1  and  O_2
REMARK    2  A    between atoms: O_2  and  C_3
REMARK    3  A    between atoms: C_6  and  N_7
REMARK    4  A    between atoms: C_8  and  S_9
REMARK    5  A    between atoms: C_12  and  C_13
REMARK    6  A    between atoms: C_21  and  O_22
REMARK    7  A    between atoms: O_22  and  C_23
REMARK                            x       y       z     vdW  Elec       q    Type
REMARK                         _______ _______ _______ _____ _____    ______ ____
ROOT
ATOM      1  N   UNL     1       3.535   4.520  18.349  0.00  0.00    +0.000 N 
ATOM      2  C   UNL     1       3.039   3.271  17.993  0.00  0.00    +0.000 A 
ATOM      3  N   UNL     1       3.987   2.530  17.471  0.00  0.00    +0.000 NA
ATOM      4  N   UNL     1       5.123   3.282  17.420  0.00  0.00    +0.000 NA
ATOM      5  C   UNL     1       4.869   4.490  17.895  0.00  0.00    +0.000 A 
ENDROOT
BRANCH   5   6
ATOM      6  C   UNL     1       5.898   5.545  17.982  0.00  0.00    +0.000 A 
ATOM      7  C   UNL     1       6.841   5.534  19.025  0.00  0.00    +0.000 A 
ATOM      8  C   UNL     1       7.789   6.554  19.158  0.00  0.00    +0.000 A 
ATOM      9  C   UNL     1       7.853   7.567  18.208  0.00  0.00    +0.000 A 
ATOM     10 CL   UNL     1       9.017   8.822  18.375  0.00  0.00    +0.000 Cl
ATOM     11  C   UNL     1       6.977   7.571  17.129  0.00  0.00    +0.000 A 
ATOM     12  C   UNL     1       5.998   6.573  17.020  0.00  0.00    +0.000 A 
ATOM     13 CL   UNL     1       4.917   6.717  15.674  0.00  0.00    +0.000 Cl
ENDBRANCH   5   6
BRANCH   1  17
ATOM     14  C   UNL     1       1.670   7.834  20.241  0.00  0.00    +0.000 A 
ATOM     15  C   UNL     1       2.077   7.905  18.910  0.00  0.00    +0.000 A 
ATOM     16  C   UNL     1       2.648   6.797  18.280  0.00  0.00    +0.000 A 
ATOM     17  C   UNL     1       2.860   5.607  18.993  0.00  0.00    +0.000 A 
ATOM     18  C   UNL     1       2.477   5.538  20.349  0.00  0.00    +0.000 A 
ATOM     19  C   UNL     1       1.864   6.651  20.953  0.00  0.00    +0.000 A 
BRANCH  14  21
ATOM     20  C   UNL     1       1.112   9.165  22.136  0.00  0.00    +0.000 C 
ATOM     21  O   UNL     1       1.109   8.986  20.725  0.00  0.00    +0.000 OA
ENDBRANCH  14  21
BRANCH  18  22
ATOM     22  O   UNL     1       2.758   4.380  21.020  0.00  0.00    +0.000 OA
ATOM     23  C   UNL     1       1.689   3.552  21.463  0.00  0.00    +0.000 C 
ENDBRANCH  18  22
ENDBRANCH   1  17
BRANCH   2  24
ATOM     24  S   UNL     1       1.373   2.777  17.970  0.00  0.00    +0.000 S 
ATOM     25  H   UNL     1       1.474   1.751  17.116  0.00  0.00    +0.000 HD
ENDBRANCH   2  24
TORSDOF 5
ENDMDL
MODEL 5
REMARK VINA RESULT:      -6.8      7.062      9.403
REMARK  Name = 
REMARK  7 active torsions:
REMARK  status: ('A' for Active; 'I' for Inactive)
REMARK    1  A    between atoms: C_1  and  O_2
REMARK    2  A    between atoms: O_2  and  C_3
REMARK    3  A    between atoms: C_6  and  N_7
REMARK    4  A    between atoms: C_8  and  S_9
REMARK    5  A    between atoms: C_12  and  C_13
REMARK    6  A    between atoms: C_21  and  O_22
REMARK    7  A    between atoms: O_22  and  C_23
REMARK                            x       y       z     vdW  Elec       q    Type
REMARK                         _______ _______ _______ _____ _____    ______ ____
ROOT
ATOM      1  N   UNL     1       0.440  13.055  20.567  0.00  0.00    +0.000 N 
ATOM      2  C   UNL     1       1.724  13.587  20.557  0.00  0.00    +0.000 A 
ATOM      3  N   UNL     1       1.946  14.279  21.648  0.00  0.00    +0.000 NA
ATOM      4  N   UNL     1       0.801  14.268  22.388  0.00  0.00    +0.000 NA
ATOM      5  C   UNL     1      -0.128  13.583  21.744  0.00  0.00    +0.000 A 
ENDROOT
BRANCH   5   6
ATOM      6  C   UNL     1      -1.487  13.379  22.285  0.00  0.00    +0.000 A 
ATOM      7  C   UNL     1      -2.469  14.375  22.136  0.00  0.00    +0.000 A 
ATOM      8  C   UNL     1      -3.744  14.225  22.689  0.00  0.00    +0.000 A 
ATOM      9  C   UNL     1      -4.082  13.045  23.342  0.00  0.00    +0.000 A 
ATOM     10 CL   UNL     1      -5.651  12.864  24.024  0.00  0.00    +0.000 Cl
ATOM     11  C   UNL     1      -3.155  12.015  23.449  0.00  0.00    +0.000 A 
ATOM     12  C   UNL     1      -1.862  12.182  22.934  0.00  0.00    +0.000 A 
ATOM     13 CL   UNL     1      -0.770  10.861  23.186  0.00  0.00    +0.000 Cl
ENDBRANCH   5   6
BRANCH   1  17
ATOM     14  C   UNL     1      -1.571  10.552  17.786  0.00  0.00    +0.000 A 
ATOM     15  C   UNL     1      -1.834  11.919  17.840  0.00  0.00    +0.000 A 
ATOM     16  C   UNL     1      -1.137  12.745  18.726  0.00  0.00    +0.000 A 
ATOM     17  C   UNL     1      -0.189  12.200  19.605  0.00  0.00    +0.000 A 
ATOM     18  C   UNL     1       0.061  10.812  19.576  0.00  0.00    +0.000 A 
ATOM     19  C   UNL     1      -0.620  10.005  18.647  0.00  0.00    +0.000 A 
BRANCH  14  21
ATOM     20  C   UNL     1      -2.757  10.591  15.721  0.00  0.00    +0.000 C 
ATOM     21  O   UNL     1      -2.313   9.867  16.861  0.00  0.00    +0.000 OA
ENDBRANCH  14  21
BRANCH  18  22
ATOM     22  O   UNL     1       0.948  10.317  20.492  0.00  0.00    +0.000 OA
ATOM     23  C   UNL     1       1.060   8.910  20.667  0.00  0.00    +0.000 C 
ENDBRANCH  18  22
ENDBRANCH   1  17
BRANCH   2  24
ATOM     24  S   UNL     1       2.839  13.597  19.223  0.00  0.00    +0.000 S 
ATOM     25  H   UNL     1       3.875  12.992  19.815  0.00  0.00    +0.000 HD
ENDBRANCH   2  24
TORSDOF 5
ENDMDL
MODEL 6
REMARK VINA RESULT:      -6.7      7.362      9.335
REMARK  Name = 
REMARK  7 active torsions:
REMARK  status: ('A' for Active; 'I' for Inactive)
REMARK    1  A    between atoms: C_1  and  O_2
REMARK    2  A    between atoms: O_2  and  C_3
REMARK    3  A    between atoms: C_6  and  N_7
REMARK    4  A    between atoms: C_8  and  S_9
REMARK    5  A    between atoms: C_12  and  C_13
REMARK    6  A    between atoms: C_21  and  O_22
REMARK    7  A    between atoms: O_22  and  C_23
REMARK                            x       y       z     vdW  Elec       q    Type
REMARK                         _______ _______ _______ _____ _____    ______ ____
ROOT
ATOM      1  N   UNL     1       0.849  12.951  20.110  0.00  0.00    +0.000 N 
ATOM      2  C   UNL     1       2.101  13.505  19.866  0.00  0.00    +0.000 A 
ATOM      3  N   UNL     1       2.532  14.155  20.919  0.00  0.00    +0.000 NA
ATOM      4  N   UNL     1       1.559  14.096  21.872  0.00  0.00    +0.000 NA
ATOM      5  C   UNL     1       0.524  13.422  21.398  0.00  0.00    +0.000 A 
ENDROOT
BRANCH   5   6
ATOM      6  C   UNL     1      -0.696  13.174  22.191  0.00  0.00    +0.000 A 
ATOM      7  C   UNL     1      -0.986  11.881  22.665  0.00  0.00    +0.000 A 
ATOM      8  C   UNL     1      -2.164  11.614  23.369  0.00  0.00    +0.000 A 
ATOM      9  C   UNL     1      -3.040  12.649  23.673  0.00  0.00    +0.000 A 
ATOM     10 CL   UNL     1      -4.489  12.317  24.537  0.00  0.00    +0.000 Cl
ATOM     11  C   UNL     1      -2.750  13.950  23.275  0.00  0.00    +0.000 A 
ATOM     12  C   UNL     1      -1.592  14.211  22.531  0.00  0.00    +0.000 A 
ATOM     13 CL   UNL     1      -1.368  15.855  22.031  0.00  0.00    +0.000 Cl
ENDBRANCH   5   6
BRANCH   1  17
ATOM     14  C   UNL     1      -1.664  10.553  17.666  0.00  0.00    +0.000 A 
ATOM     15  C   UNL     1      -1.796  11.940  17.686  0.00  0.00    +0.000 A 
ATOM     16  C   UNL     1      -0.937  12.727  18.457  0.00  0.00    +0.000 A 
ATOM     17  C   UNL     1       0.047  12.126  19.257  0.00  0.00    +0.000 A 
ATOM     18  C   UNL     1       0.166  10.721  19.265  0.00  0.00    +0.000 A 
ATOM     19  C   UNL     1      -0.680   9.950  18.449  0.00  0.00    +0.000 A 
BRANCH  14  21
ATOM     20  C   UNL     1      -3.285  10.706  15.928  0.00  0.00    +0.000 C 
ATOM     21  O   UNL     1      -2.559   9.909  16.855  0.00  0.00    +0.000 OA
ENDBRANCH  14  21
BRANCH  18  22
ATOM     22  O   UNL     1       1.098  10.178  20.107  0.00  0.00    +0.000 OA
ATOM     23  C   UNL     1       0.756   9.034  20.882  0.00  0.00    +0.000 C 
ENDBRANCH  18  22
ENDBRANCH   1  17
BRANCH   2  24
ATOM     24  S   UNL     1       2.925  13.587  18.338  0.00  0.00    +0.000 S 
ATOM     25  H   UNL     1       4.103  14.060  18.764  0.00  0.00    +0.000 HD
ENDBRANCH   2  24
TORSDOF 5
ENDMDL
MODEL 7
REMARK VINA RESULT:      -6.7      8.069      9.765
REMARK  Name = 
REMARK  7 active torsions:
REMARK  status: ('A' for Active; 'I' for Inactive)
REMARK    1  A    between atoms: C_1  and  O_2
REMARK    2  A    between atoms: O_2  and  C_3
REMARK    3  A    between atoms: C_6  and  N_7
REMARK    4  A    between atoms: C_8  and  S_9
REMARK    5  A    between atoms: C_12  and  C_13
REMARK    6  A    between atoms: C_21  and  O_22
REMARK    7  A    between atoms: O_22  and  C_23
REMARK                            x       y       z     vdW  Elec       q    Type
REMARK                         _______ _______ _______ _____ _____    ______ ____
ROOT
ATOM      1  N   UNL     1       0.284  13.199  20.860  0.00  0.00    +0.000 N 
ATOM      2  C   UNL     1       1.558  13.750  20.933  0.00  0.00    +0.000 A 
ATOM      3  N   UNL     1       1.686  14.478  22.016  0.00  0.00    +0.000 NA
ATOM      4  N   UNL     1       0.487  14.473  22.665  0.00  0.00    +0.000 NA
ATOM      5  C   UNL     1      -0.381  13.754  21.973  0.00  0.00    +0.000 A 
ENDROOT
BRANCH   5   6
ATOM      6  C   UNL     1      -1.774  13.546  22.413  0.00  0.00    +0.000 A 
ATOM      7  C   UNL     1      -2.087  12.518  23.322  0.00  0.00    +0.000 A 
ATOM      8  C   UNL     1      -3.408  12.269  23.708  0.00  0.00    +0.000 A 
ATOM      9  C   UNL     1      -4.432  13.087  23.246  0.00  0.00    +0.000 A 
ATOM     10 CL   UNL     1      -6.055  12.777  23.721  0.00  0.00    +0.000 Cl
ATOM     11  C   UNL     1      -4.147  14.152  22.399  0.00  0.00    +0.000 A 
ATOM     12  C   UNL     1      -2.830  14.376  21.976  0.00  0.00    +0.000 A 
ATOM     13 CL   UNL     1      -2.603  15.686  20.866  0.00  0.00    +0.000 Cl
ENDBRANCH   5   6
BRANCH   1  17
ATOM     14  C   UNL     1      -1.471  10.607  17.990  0.00  0.00    +0.000 A 
ATOM     15  C   UNL     1      -1.557  11.991  17.852  0.00  0.00    +0.000 A 
ATOM     16  C   UNL     1      -0.939  12.838  18.775  0.00  0.00    +0.000 A 
ATOM     17  C   UNL     1      -0.257  12.306  19.880  0.00  0.00    +0.000 A 
ATOM     18  C   UNL     1      -0.192  10.906  20.042  0.00  0.00    +0.000 A 
ATOM     19  C   UNL     1      -0.784  10.070  19.078  0.00  0.00    +0.000 A 
BRANCH  14  21
ATOM     20  C   UNL     1      -2.661  10.640  15.926  0.00  0.00    +0.000 C 
ATOM     21  O   UNL     1      -2.107   9.898  17.006  0.00  0.00    +0.000 OA
ENDBRANCH  14  21
BRANCH  18  22
ATOM     22  O   UNL     1       0.429  10.434  21.165  0.00  0.00    +0.000 OA
ATOM     23  C   UNL     1      -0.181   9.391  21.916  0.00  0.00    +0.000 C 
ENDBRANCH  18  22
ENDBRANCH   1  17
BRANCH   2  24
ATOM     24  S   UNL     1       2.773  13.736  19.690  0.00  0.00    +0.000 S 
ATOM     25  H   UNL     1       3.122  15.028  19.728  0.00  0.00    +0.000 HD
ENDBRANCH   2  24
TORSDOF 5
ENDMDL
MODEL 8
REMARK VINA RESULT:      -6.5      8.469      9.779
REMARK  Name = 
REMARK  7 active torsions:
REMARK  status: ('A' for Active; 'I' for Inactive)
REMARK    1  A    between atoms: C_1  and  O_2
REMARK    2  A    between atoms: O_2  and  C_3
REMARK    3  A    between atoms: C_6  and  N_7
REMARK    4  A    between atoms: C_8  and  S_9
REMARK    5  A    between atoms: C_12  and  C_13
REMARK    6  A    between atoms: C_21  and  O_22
REMARK    7  A    between atoms: O_22  and  C_23
REMARK                            x       y       z     vdW  Elec       q    Type
REMARK                         _______ _______ _______ _____ _____    ______ ____
ROOT
ATOM      1  N   UNL     1       9.556  14.559  19.209  0.00  0.00    +0.000 N 
ATOM      2  C   UNL     1      10.696  15.355  19.231  0.00  0.00    +0.000 A 
ATOM      3  N   UNL     1      10.371  16.624  19.298  0.00  0.00    +0.000 NA
ATOM      4  N   UNL     1       9.011  16.708  19.271  0.00  0.00    +0.000 NA
ATOM      5  C   UNL     1       8.500  15.492  19.171  0.00  0.00    +0.000 A 
ENDROOT
BRANCH   5   6
ATOM      6  C   UNL     1       7.047  15.239  19.124  0.00  0.00    +0.000 A 
ATOM      7  C   UNL     1       6.427  14.873  17.915  0.00  0.00    +0.000 A 
ATOM      8  C   UNL     1       5.044  14.683  17.837  0.00  0.00    +0.000 A 
ATOM      9  C   UNL     1       4.264  14.789  18.983  0.00  0.00    +0.000 A 
ATOM     10 CL   UNL     1       2.563  14.558  18.884  0.00  0.00    +0.000 Cl
ATOM     11  C   UNL     1       4.855  15.086  20.206  0.00  0.00    +0.000 A 
ATOM     12  C   UNL     1       6.235  15.320  20.277  0.00  0.00    +0.000 A 
ATOM     13 CL   UNL     1       6.851  15.749  21.838  0.00  0.00    +0.000 Cl
ENDBRANCH   5   6
BRANCH   1  17
ATOM     14  C   UNL     1       9.098  10.338  19.121  0.00  0.00    +0.000 A 
ATOM     15  C   UNL     1       8.916  11.102  17.971  0.00  0.00    +0.000 A 
ATOM     16  C   UNL     1       9.112  12.484  17.995  0.00  0.00    +0.000 A 
ATOM     17  C   UNL     1       9.456  13.130  19.193  0.00  0.00    +0.000 A 
ATOM     18  C   UNL     1       9.612  12.366  20.368  0.00  0.00    +0.000 A 
ATOM     19  C   UNL     1       9.452  10.970  20.313  0.00  0.00    +0.000 A 
BRANCH  14  21
ATOM     20  C   UNL     1       8.107   8.597  17.832  0.00  0.00    +0.000 C 
ATOM     21  O   UNL     1       8.890   8.995  18.950  0.00  0.00    +0.000 OA
ENDBRANCH  14  21
BRANCH  18  22
ATOM     22  O   UNL     1       9.887  13.045  21.523  0.00  0.00    +0.000 OA
ATOM     23  C   UNL     1       8.922  13.064  22.569  0.00  0.00    +0.000 C 
ENDBRANCH  18  22
ENDBRANCH   1  17
BRANCH   2  24
ATOM     24  S   UNL     1      12.333  14.842  18.955  0.00  0.00    +0.000 S 
ATOM     25  H   UNL     1      12.466  15.249  17.687  0.00  0.00    +0.000 HD
ENDBRANCH   2  24
TORSDOF 5
ENDMDL
MODEL 9
REMARK VINA RESULT:      -6.5      5.241      7.310
REMARK  Name = 
REMARK  7 active torsions:
REMARK  status: ('A' for Active; 'I' for Inactive)
REMARK    1  A    between atoms: C_1  and  O_2
REMARK    2  A    between atoms: O_2  and  C_3
REMARK    3  A    between atoms: C_6  and  N_7
REMARK    4  A    between atoms: C_8  and  S_9
REMARK    5  A    between atoms: C_12  and  C_13
REMARK    6  A    between atoms: C_21  and  O_22
REMARK    7  A    between atoms: O_22  and  C_23
REMARK                            x       y       z     vdW  Elec       q    Type
REMARK                         _______ _______ _______ _____ _____    ______ ____
ROOT
ATOM      1  N   UNL     1      -0.206  11.042  18.531  0.00  0.00    +0.000 N 
ATOM      2  C   UNL     1      -1.495  11.031  18.009  0.00  0.00    +0.000 A 
ATOM      3  N   UNL     1      -1.909  12.252  17.775  0.00  0.00    +0.000 NA
ATOM      4  N   UNL     1      -0.930  13.109  18.181  0.00  0.00    +0.000 NA
ATOM      5  C   UNL     1       0.079  12.415  18.680  0.00  0.00    +0.000 A 
ENDROOT
BRANCH   5   6
ATOM      6  C   UNL     1       1.304  13.051  19.203  0.00  0.00    +0.000 A 
ATOM      7  C   UNL     1       2.386  13.323  18.345  0.00  0.00    +0.000 A 
ATOM      8  C   UNL     1       3.575  13.874  18.831  0.00  0.00    +0.000 A 
ATOM      9  C   UNL     1       3.680  14.227  20.171  0.00  0.00    +0.000 A 
ATOM     10 CL   UNL     1       5.145  14.902  20.766  0.00  0.00    +0.000 Cl
ATOM     11  C   UNL     1       2.605  14.031  21.031  0.00  0.00    +0.000 A 
ATOM     12  C   UNL     1       1.428  13.438  20.555  0.00  0.00    +0.000 A 
ATOM     13 CL   UNL     1       0.181  13.179  21.729  0.00  0.00    +0.000 Cl
ENDBRANCH   5   6
BRANCH   1  17
ATOM     14  C   UNL     1       2.205   7.669  19.449  0.00  0.00    +0.000 A 
ATOM     15  C   UNL     1       2.201   8.219  18.169  0.00  0.00    +0.000 A 
ATOM     16  C   UNL     1       1.441   9.356  17.885  0.00  0.00    +0.000 A 
ATOM     17  C   UNL     1       0.636   9.936  18.877  0.00  0.00    +0.000 A 
ATOM     18  C   UNL     1       0.612   9.366  20.167  0.00  0.00    +0.000 A 
ATOM     19  C   UNL     1       1.418   8.247  20.444  0.00  0.00    +0.000 A 
BRANCH  14  21
ATOM     20  C   UNL     1       3.025   5.635  18.518  0.00  0.00    +0.000 C 
ATOM     21  O   UNL     1       3.008   6.568  19.591  0.00  0.00    +0.000 OA
ENDBRANCH  14  21
BRANCH  18  22
ATOM     22  O   UNL     1      -0.234   9.927  21.083  0.00  0.00    +0.000 OA
ATOM     23  C   UNL     1      -0.171   9.507  22.442  0.00  0.00    +0.000 C 
ENDBRANCH  18  22
ENDBRANCH   1  17
BRANCH   2  24
ATOM     24  S   UNL     1      -2.562   9.664  17.895  0.00  0.00    +0.000 S 
ATOM     25  H   UNL     1      -2.963   9.607  19.171  0.00  0.00    +0.000 HD
ENDBRANCH   2  24
TORSDOF 5
ENDMDL
