MODEL 1
REMARK VINA RESULT:      -8.6      0.000      0.000
REMARK  Name = 
REMARK  5 active torsions:
REMARK  status: ('A' for Active; 'I' for Inactive)
REMARK    1  A    between atoms: C_1  and  C_2
REMARK    2  A    between atoms: C_2  and  C_3
REMARK    3  A    between atoms: C_3  and  O_4
REMARK    4  A    between atoms: O_4  and  C_5
REMARK    5  A    between atoms: C_10  and  C_11
REMARK                            x       y       z     vdW  Elec       q    Type
REMARK                         _______ _______ _______ _____ _____    ______ ____
ROOT
ATOM      1  C   UNL     1       2.099   7.822  19.888  0.00  0.00    +0.000 C 
ATOM      2  O   UNL     1       2.239   7.483  21.055  0.00  0.00    +0.000 OA
ATOM      3  N   UNL     1       1.271   8.884  19.479  0.00  0.00    +0.000 N 
ATOM      4  C   UNL     1       1.413   9.565  18.193  0.00  0.00    +0.000 C 
ATOM      5  C   UNL     1       0.670  10.859  18.357  0.00  0.00    +0.000 C 
ATOM      6  C   UNL     1      -0.778  10.745  18.111  0.00  0.00    +0.000 C 
ATOM      7  C   UNL     1      -0.244  10.782  19.565  0.00  0.00    +0.000 C 
ATOM      8  C   UNL     1       0.362   9.612  20.297  0.00  0.00    +0.000 C 
ATOM      9  C   UNL     1       0.170   9.374  21.601  0.00  0.00    +0.000 C 
ATOM     10  C   UNL     1      -0.634  10.290  22.432  0.00  0.00    +0.000 C 
ATOM     11  O   UNL     1      -0.748  10.076  23.634  0.00  0.00    +0.000 OA
ATOM     12  C   UNL     1      -1.292  11.451  21.793  0.00  0.00    +0.000 A 
ATOM     13  C   UNL     1      -2.199  12.182  22.587  0.00  0.00    +0.000 A 
ATOM     14  C   UNL     1      -2.965  13.196  22.029  0.00  0.00    +0.000 A 
ATOM     15  C   UNL     1      -2.795  13.503  20.689  0.00  0.00    +0.000 A 
ATOM     16  C   UNL     1      -1.851  12.807  19.914  0.00  0.00    +0.000 A 
ATOM     17  C   UNL     1      -1.077  11.737  20.424  0.00  0.00    +0.000 A 
ENDROOT
BRANCH   1  23
ATOM     18  C   UNL     1       5.280   4.925  15.521  0.00  0.00    +0.000 A 
ATOM     19  C   UNL     1       4.656   3.829  16.120  0.00  0.00    +0.000 A 
ATOM     20  C   UNL     1       3.779   3.983  17.205  0.00  0.00    +0.000 A 
ATOM     21  C   UNL     1       3.550   5.279  17.682  0.00  0.00    +0.000 A 
ATOM     22  N   UNL     1       2.737   5.736  18.694  0.00  0.00    +0.000 N 
ATOM     23  C   UNL     1       2.862   7.106  18.858  0.00  0.00    +0.000 A 
ATOM     24  C   UNL     1       3.699   7.526  17.842  0.00  0.00    +0.000 A 
ATOM     25  C   UNL     1       4.161   6.395  17.116  0.00  0.00    +0.000 A 
ATOM     26  C   UNL     1       5.033   6.214  16.018  0.00  0.00    +0.000 A 
ATOM     27  H   UNL     1       2.131   5.154  19.259  0.00  0.00    +0.000 HD
BRANCH  18  28
ATOM     28  O   UNL     1       6.137   4.873  14.449  0.00  0.00    +0.000 OA
BRANCH  28  29
ATOM     29  C   UNL     1       6.308   3.595  13.832  0.00  0.00    +0.000 C 
BRANCH  29  31
ATOM     30  C   UNL     1       4.843   3.258  11.809  0.00  0.00    +0.000 C 
ATOM     31  C   UNL     1       6.193   3.748  12.317  0.00  0.00    +0.000 C 
ENDBRANCH  29  31
ENDBRANCH  28  29
ENDBRANCH  18  28
ENDBRANCH   1  23
TORSDOF 4
ENDMDL
MODEL 2
REMARK VINA RESULT:      -8.6      1.007      1.434
REMARK  Name = 
REMARK  5 active torsions:
REMARK  status: ('A' for Active; 'I' for Inactive)
REMARK    1  A    between atoms: C_1  and  C_2
REMARK    2  A    between atoms: C_2  and  C_3
REMARK    3  A    between atoms: C_3  and  O_4
REMARK    4  A    between atoms: O_4  and  C_5
REMARK    5  A    between atoms: C_10  and  C_11
REMARK                            x       y       z     vdW  Elec       q    Type
REMARK                         _______ _______ _______ _____ _____    ______ ____
ROOT
ATOM      1  C   UNL     1       2.556   7.040  19.616  0.00  0.00    +0.000 C 
ATOM      2  O   UNL     1       2.599   6.556  20.739  0.00  0.00    +0.000 OA
ATOM      3  N   UNL     1       1.836   8.207  19.298  0.00  0.00    +0.000 N 
ATOM      4  C   UNL     1       2.106   9.021  18.114  0.00  0.00    +0.000 C 
ATOM      5  C   UNL     1       1.453  10.343  18.397  0.00  0.00    +0.000 C 
ATOM      6  C   UNL     1       0.018  10.378  18.065  0.00  0.00    +0.000 C 
ATOM      7  C   UNL     1       0.464  10.200  19.538  0.00  0.00    +0.000 C 
ATOM      8  C   UNL     1       0.936   8.905  20.152  0.00  0.00    +0.000 C 
ATOM      9  C   UNL     1       0.648   8.532  21.405  0.00  0.00    +0.000 C 
ATOM     10  C   UNL     1      -0.134   9.406  22.299  0.00  0.00    +0.000 C 
ATOM     11  O   UNL     1      -0.336   9.062  23.459  0.00  0.00    +0.000 OA
ATOM     12  C   UNL     1      -0.663  10.685  21.774  0.00  0.00    +0.000 A 
ATOM     13  C   UNL     1      -1.560  11.388  22.604  0.00  0.00    +0.000 A 
ATOM     14  C   UNL     1      -2.212  12.520  22.136  0.00  0.00    +0.000 A 
ATOM     15  C   UNL     1      -1.939  12.967  20.854  0.00  0.00    +0.000 A 
ATOM     16  C   UNL     1      -1.004  12.293  20.049  0.00  0.00    +0.000 A 
ATOM     17  C   UNL     1      -0.345  11.111  20.464  0.00  0.00    +0.000 A 
ENDROOT
BRANCH   1  23
ATOM     18  C   UNL     1       5.715   4.231  15.177  0.00  0.00    +0.000 A 
ATOM     19  C   UNL     1       6.604   5.265  15.477  0.00  0.00    +0.000 A 
ATOM     20  C   UNL     1       6.325   6.209  16.477  0.00  0.00    +0.000 A 
ATOM     21  C   UNL     1       5.114   6.090  17.169  0.00  0.00    +0.000 A 
ATOM     22  N   UNL     1       4.589   6.837  18.199  0.00  0.00    +0.000 N 
ATOM     23  C   UNL     1       3.324   6.391  18.546  0.00  0.00    +0.000 A 
ATOM     24  C   UNL     1       3.104   5.263  17.778  0.00  0.00    +0.000 A 
ATOM     25  C   UNL     1       4.200   5.078  16.892  0.00  0.00    +0.000 A 
ATOM     26  C   UNL     1       4.508   4.134  15.886  0.00  0.00    +0.000 A 
ATOM     27  H   UNL     1       5.052   7.619  18.645  0.00  0.00    +0.000 HD
BRANCH  18  28
ATOM     28  O   UNL     1       5.909   3.255  14.230  0.00  0.00    +0.000 OA
BRANCH  28  29
ATOM     29  C   UNL     1       6.261   3.702  12.919  0.00  0.00    +0.000 C 
BRANCH  29  31
ATOM     30  C   UNL     1       4.280   3.270  11.422  0.00  0.00    +0.000 C 
ATOM     31  C   UNL     1       5.641   2.766  11.884  0.00  0.00    +0.000 C 
ENDBRANCH  29  31
ENDBRANCH  28  29
ENDBRANCH  18  28
ENDBRANCH   1  23
TORSDOF 4
ENDMDL
MODEL 3
REMARK VINA RESULT:      -8.5      2.380      3.596
REMARK  Name = 
REMARK  5 active torsions:
REMARK  status: ('A' for Active; 'I' for Inactive)
REMARK    1  A    between atoms: C_1  and  C_2
REMARK    2  A    between atoms: C_2  and  C_3
REMARK    3  A    between atoms: C_3  and  O_4
REMARK    4  A    between atoms: O_4  and  C_5
REMARK    5  A    between atoms: C_10  and  C_11
REMARK                            x       y       z     vdW  Elec       q    Type
REMARK                         _______ _______ _______ _____ _____    ______ ____
ROOT
ATOM      1  C   UNL     1       0.551  10.144  19.528  0.00  0.00    +0.000 C 
ATOM      2  O   UNL     1       0.903  10.884  20.437  0.00  0.00    +0.000 OA
ATOM      3  N   UNL     1      -0.705  10.227  18.897  0.00  0.00    +0.000 N 
ATOM      4  C   UNL     1      -0.979   9.668  17.574  0.00  0.00    +0.000 C 
ATOM      5  C   UNL     1      -2.237  10.350  17.121  0.00  0.00    +0.000 C 
ATOM      6  C   UNL     1      -3.468   9.713  17.619  0.00  0.00    +0.000 C 
ATOM      7  C   UNL     1      -2.933  10.996  18.303  0.00  0.00    +0.000 C 
ATOM      8  C   UNL     1      -1.801  11.041  19.299  0.00  0.00    +0.000 C 
ATOM      9  C   UNL     1      -1.781  11.858  20.361  0.00  0.00    +0.000 C 
ATOM     10  C   UNL     1      -2.874  12.818  20.603  0.00  0.00    +0.000 C 
ATOM     11  O   UNL     1      -2.802  13.591  21.553  0.00  0.00    +0.000 OA
ATOM     12  C   UNL     1      -4.041  12.826  19.693  0.00  0.00    +0.000 A 
ATOM     13  C   UNL     1      -5.138  13.623  20.077  0.00  0.00    +0.000 A 
ATOM     14  C   UNL     1      -6.325  13.580  19.359  0.00  0.00    +0.000 A 
ATOM     15  C   UNL     1      -6.400  12.769  18.238  0.00  0.00    +0.000 A 
ATOM     16  C   UNL     1      -5.285  12.017  17.828  0.00  0.00    +0.000 A 
ATOM     17  C   UNL     1      -4.067  11.993  18.550  0.00  0.00    +0.000 A 
ENDROOT
BRANCH   1  23
ATOM     18  C   UNL     1       4.495   5.964  17.395  0.00  0.00    +0.000 A 
ATOM     19  C   UNL     1       4.118   5.341  18.587  0.00  0.00    +0.000 A 
ATOM     20  C   UNL     1       3.185   5.924  19.459  0.00  0.00    +0.000 A 
ATOM     21  C   UNL     1       2.643   7.164  19.102  0.00  0.00    +0.000 A 
ATOM     22  N   UNL     1       1.705   7.951  19.731  0.00  0.00    +0.000 N 
ATOM     23  C   UNL     1       1.501   9.135  19.043  0.00  0.00    +0.000 A 
ATOM     24  C   UNL     1       2.259   9.030  17.892  0.00  0.00    +0.000 A 
ATOM     25  C   UNL     1       3.000   7.818  17.927  0.00  0.00    +0.000 A 
ATOM     26  C   UNL     1       3.936   7.207  17.061  0.00  0.00    +0.000 A 
ATOM     27  H   UNL     1       1.228   7.710  20.591  0.00  0.00    +0.000 HD
BRANCH  18  28
ATOM     28  O   UNL     1       5.384   5.464  16.475  0.00  0.00    +0.000 OA
BRANCH  28  29
ATOM     29  C   UNL     1       6.687   5.136  16.964  0.00  0.00    +0.000 C 
BRANCH  29  31
ATOM     30  C   UNL     1       7.891   6.375  18.799  0.00  0.00    +0.000 C 
ATOM     31  C   UNL     1       7.418   6.420  17.353  0.00  0.00    +0.000 C 
ENDBRANCH  29  31
ENDBRANCH  28  29
ENDBRANCH  18  28
ENDBRANCH   1  23
TORSDOF 4
ENDMDL
MODEL 4
REMARK VINA RESULT:      -8.4      2.332      3.289
REMARK  Name = 
REMARK  5 active torsions:
REMARK  status: ('A' for Active; 'I' for Inactive)
REMARK    1  A    between atoms: C_1  and  C_2
REMARK    2  A    between atoms: C_2  and  C_3
REMARK    3  A    between atoms: C_3  and  O_4
REMARK    4  A    between atoms: O_4  and  C_5
REMARK    5  A    between atoms: C_10  and  C_11
REMARK                            x       y       z     vdW  Elec       q    Type
REMARK                         _______ _______ _______ _____ _____    ______ ____
ROOT
ATOM      1  C   UNL     1       0.415  10.206  19.426  0.00  0.00    +0.000 C 
ATOM      2  O   UNL     1       0.734  10.977  20.321  0.00  0.00    +0.000 OA
ATOM      3  N   UNL     1      -0.836  10.237  18.781  0.00  0.00    +0.000 N 
ATOM      4  C   UNL     1      -1.078   9.640  17.468  0.00  0.00    +0.000 C 
ATOM      5  C   UNL     1      -2.351  10.273  16.986  0.00  0.00    +0.000 C 
ATOM      6  C   UNL     1      -3.568   9.610  17.486  0.00  0.00    +0.000 C 
ATOM      7  C   UNL     1      -3.079  10.924  18.146  0.00  0.00    +0.000 C 
ATOM      8  C   UNL     1      -1.960  11.026  19.152  0.00  0.00    +0.000 C 
ATOM      9  C   UNL     1      -1.977  11.866  20.195  0.00  0.00    +0.000 C 
ATOM     10  C   UNL     1      -3.101  12.798  20.404  0.00  0.00    +0.000 C 
ATOM     11  O   UNL     1      -3.063  13.594  21.337  0.00  0.00    +0.000 OA
ATOM     12  C   UNL     1      -4.258  12.750  19.482  0.00  0.00    +0.000 A 
ATOM     13  C   UNL     1      -5.383  13.522  19.836  0.00  0.00    +0.000 A 
ATOM     14  C   UNL     1      -6.559  13.426  19.107  0.00  0.00    +0.000 A 
ATOM     15  C   UNL     1      -6.597  12.589  18.004  0.00  0.00    +0.000 A 
ATOM     16  C   UNL     1      -5.456  11.862  17.624  0.00  0.00    +0.000 A 
ATOM     17  C   UNL     1      -4.246  11.891  18.358  0.00  0.00    +0.000 A 
ENDROOT
BRANCH   1  23
ATOM     18  C   UNL     1       4.509   6.104  17.430  0.00  0.00    +0.000 A 
ATOM     19  C   UNL     1       4.102   5.472  18.607  0.00  0.00    +0.000 A 
ATOM     20  C   UNL     1       3.128   6.036  19.446  0.00  0.00    +0.000 A 
ATOM     21  C   UNL     1       2.576   7.266  19.071  0.00  0.00    +0.000 A 
ATOM     22  N   UNL     1       1.602   8.034  19.668  0.00  0.00    +0.000 N 
ATOM     23  C   UNL     1       1.400   9.216  18.973  0.00  0.00    +0.000 A 
ATOM     24  C   UNL     1       2.200   9.127  17.850  0.00  0.00    +0.000 A 
ATOM     25  C   UNL     1       2.962   7.929  17.910  0.00  0.00    +0.000 A 
ATOM     26  C   UNL     1       3.939   7.337  17.077  0.00  0.00    +0.000 A 
ATOM     27  H   UNL     1       1.099   7.784  20.510  0.00  0.00    +0.000 HD
BRANCH  18  28
ATOM     28  O   UNL     1       5.440   5.623  16.542  0.00  0.00    +0.000 OA
BRANCH  28  29
ATOM     29  C   UNL     1       5.175   4.335  15.978  0.00  0.00    +0.000 C 
BRANCH  29  31
ATOM     30  C   UNL     1       5.933   3.868  13.620  0.00  0.00    +0.000 C 
ATOM     31  C   UNL     1       6.346   3.927  15.085  0.00  0.00    +0.000 C 
ENDBRANCH  29  31
ENDBRANCH  28  29
ENDBRANCH  18  28
ENDBRANCH   1  23
TORSDOF 4
ENDMDL
MODEL 5
REMARK VINA RESULT:      -8.3      2.553      3.661
REMARK  Name = 
REMARK  5 active torsions:
REMARK  status: ('A' for Active; 'I' for Inactive)
REMARK    1  A    between atoms: C_1  and  C_2
REMARK    2  A    between atoms: C_2  and  C_3
REMARK    3  A    between atoms: C_3  and  O_4
REMARK    4  A    between atoms: O_4  and  C_5
REMARK    5  A    between atoms: C_10  and  C_11
REMARK                            x       y       z     vdW  Elec       q    Type
REMARK                         _______ _______ _______ _____ _____    ______ ____
ROOT
ATOM      1  C   UNL     1       1.398   9.329  18.995  0.00  0.00    +0.000 C 
ATOM      2  O   UNL     1       1.343  10.067  18.020  0.00  0.00    +0.000 OA
ATOM      3  N   UNL     1       0.711   9.577  20.199  0.00  0.00    +0.000 N 
ATOM      4  C   UNL     1       0.420   8.539  21.186  0.00  0.00    +0.000 C 
ATOM      5  C   UNL     1      -0.667   9.118  22.045  0.00  0.00    +0.000 C 
ATOM      6  C   UNL     1      -0.168   9.978  23.131  0.00  0.00    +0.000 C 
ATOM      7  C   UNL     1      -0.743  10.619  21.844  0.00  0.00    +0.000 C 
ATOM      8  C   UNL     1      -0.002  10.760  20.538  0.00  0.00    +0.000 C 
ATOM      9  C   UNL     1      -0.116  11.825  19.733  0.00  0.00    +0.000 C 
ATOM     10  C   UNL     1      -1.031  12.934  20.063  0.00  0.00    +0.000 C 
ATOM     11  O   UNL     1      -1.156  13.870  19.280  0.00  0.00    +0.000 OA
ATOM     12  C   UNL     1      -1.781  12.894  21.338  0.00  0.00    +0.000 A 
ATOM     13  C   UNL     1      -2.490  14.060  21.693  0.00  0.00    +0.000 A 
ATOM     14  C   UNL     1      -3.101  14.161  22.935  0.00  0.00    +0.000 A 
ATOM     15  C   UNL     1      -3.035  13.084  23.803  0.00  0.00    +0.000 A 
ATOM     16  C   UNL     1      -2.372  11.904  23.424  0.00  0.00    +0.000 A 
ATOM     17  C   UNL     1      -1.697  11.766  22.187  0.00  0.00    +0.000 A 
ENDROOT
BRANCH   1  23
ATOM     18  C   UNL     1       4.729   4.192  18.691  0.00  0.00    +0.000 A 
ATOM     19  C   UNL     1       5.065   4.761  17.460  0.00  0.00    +0.000 A 
ATOM     20  C   UNL     1       4.544   5.999  17.055  0.00  0.00    +0.000 A 
ATOM     21  C   UNL     1       3.662   6.653  17.923  0.00  0.00    +0.000 A 
ATOM     22  N   UNL     1       3.025   7.868  17.811  0.00  0.00    +0.000 N 
ATOM     23  C   UNL     1       2.193   8.099  18.895  0.00  0.00    +0.000 A 
ATOM     24  C   UNL     1       2.405   7.040  19.757  0.00  0.00    +0.000 A 
ATOM     25  C   UNL     1       3.298   6.114  19.153  0.00  0.00    +0.000 A 
ATOM     26  C   UNL     1       3.843   4.869  19.542  0.00  0.00    +0.000 A 
ATOM     27  H   UNL     1       3.134   8.513  17.038  0.00  0.00    +0.000 HD
BRANCH  18  28
ATOM     28  O   UNL     1       5.199   2.997  19.178  0.00  0.00    +0.000 OA
BRANCH  28  29
ATOM     29  C   UNL     1       4.220   2.086  19.682  0.00  0.00    +0.000 C 
BRANCH  29  31
ATOM     30  C   UNL     1       1.999   1.942  18.499  0.00  0.00    +0.000 C 
ATOM     31  C   UNL     1       3.449   1.477  18.511  0.00  0.00    +0.000 C 
ENDBRANCH  29  31
ENDBRANCH  28  29
ENDBRANCH  18  28
ENDBRANCH   1  23
TORSDOF 4
ENDMDL
MODEL 6
REMARK VINA RESULT:      -8.2      3.000      9.442
REMARK  Name = 
REMARK  5 active torsions:
REMARK  status: ('A' for Active; 'I' for Inactive)
REMARK    1  A    between atoms: C_1  and  C_2
REMARK    2  A    between atoms: C_2  and  C_3
REMARK    3  A    between atoms: C_3  and  O_4
REMARK    4  A    between atoms: O_4  and  C_5
REMARK    5  A    between atoms: C_10  and  C_11
REMARK                            x       y       z     vdW  Elec       q    Type
REMARK                         _______ _______ _______ _____ _____    ______ ____
ROOT
ATOM      1  C   UNL     1       0.837   9.226  20.538  0.00  0.00    +0.000 C 
ATOM      2  O   UNL     1       0.343   8.683  21.517  0.00  0.00    +0.000 OA
ATOM      3  N   UNL     1       1.599   8.544  19.571  0.00  0.00    +0.000 N 
ATOM      4  C   UNL     1       1.827   9.056  18.220  0.00  0.00    +0.000 C 
ATOM      5  C   UNL     1       2.276   7.863  17.427  0.00  0.00    +0.000 C 
ATOM      6  C   UNL     1       3.718   7.586  17.540  0.00  0.00    +0.000 C 
ATOM      7  C   UNL     1       2.706   6.750  18.362  0.00  0.00    +0.000 C 
ATOM      8  C   UNL     1       2.049   7.197  19.644  0.00  0.00    +0.000 C 
ATOM      9  C   UNL     1       1.800   6.377  20.674  0.00  0.00    +0.000 C 
ATOM     10  C   UNL     1       2.123   4.940  20.598  0.00  0.00    +0.000 C 
ATOM     11  O   UNL     1       1.834   4.203  21.535  0.00  0.00    +0.000 OA
ATOM     12  C   UNL     1       2.795   4.415  19.388  0.00  0.00    +0.000 A 
ATOM     13  C   UNL     1       3.252   3.083  19.444  0.00  0.00    +0.000 A 
ATOM     14  C   UNL     1       4.016   2.557  18.411  0.00  0.00    +0.000 A 
ATOM     15  C   UNL     1       4.289   3.351  17.310  0.00  0.00    +0.000 A 
ATOM     16  C   UNL     1       3.786   4.661  17.234  0.00  0.00    +0.000 A 
ATOM     17  C   UNL     1       3.039   5.258  18.279  0.00  0.00    +0.000 A 
ENDROOT
BRANCH   1  23
ATOM     18  C   UNL     1      -0.237  15.191  19.620  0.00  0.00    +0.000 A 
ATOM     19  C   UNL     1       1.002  15.273  20.259  0.00  0.00    +0.000 A 
ATOM     20  C   UNL     1       1.694  14.125  20.674  0.00  0.00    +0.000 A 
ATOM     21  C   UNL     1       1.098  12.881  20.436  0.00  0.00    +0.000 A 
ATOM     22  N   UNL     1       1.541  11.605  20.701  0.00  0.00    +0.000 N 
ATOM     23  C   UNL     1       0.594  10.661  20.340  0.00  0.00    +0.000 A 
ATOM     24  C   UNL     1      -0.424  11.370  19.733  0.00  0.00    +0.000 A 
ATOM     25  C   UNL     1      -0.139  12.760  19.810  0.00  0.00    +0.000 A 
ATOM     26  C   UNL     1      -0.812  13.931  19.393  0.00  0.00    +0.000 A 
ATOM     27  H   UNL     1       2.436  11.376  21.115  0.00  0.00    +0.000 HD
BRANCH  18  28
ATOM     28  O   UNL     1      -0.978  16.255  19.165  0.00  0.00    +0.000 OA
BRANCH  28  29
ATOM     29  C   UNL     1      -0.278  17.489  18.989  0.00  0.00    +0.000 C 
BRANCH  29  31
ATOM     30  C   UNL     1       0.728  18.393  16.862  0.00  0.00    +0.000 C 
ATOM     31  C   UNL     1      -0.560  18.033  17.590  0.00  0.00    +0.000 C 
ENDBRANCH  29  31
ENDBRANCH  28  29
ENDBRANCH  18  28
ENDBRANCH   1  23
TORSDOF 4
ENDMDL
MODEL 7
REMARK VINA RESULT:      -8.2      3.028      9.049
REMARK  Name = 
REMARK  5 active torsions:
REMARK  status: ('A' for Active; 'I' for Inactive)
REMARK    1  A    between atoms: C_1  and  C_2
REMARK    2  A    between atoms: C_2  and  C_3
REMARK    3  A    between atoms: C_3  and  O_4
REMARK    4  A    between atoms: O_4  and  C_5
REMARK    5  A    between atoms: C_10  and  C_11
REMARK                            x       y       z     vdW  Elec       q    Type
REMARK                         _______ _______ _______ _____ _____    ______ ____
ROOT
ATOM      1  C   UNL     1       1.027   8.922  20.445  0.00  0.00    +0.000 C 
ATOM      2  O   UNL     1       0.431   8.435  21.397  0.00  0.00    +0.000 OA
ATOM      3  N   UNL     1       1.771   8.163  19.521  0.00  0.00    +0.000 N 
ATOM      4  C   UNL     1       2.119   8.642  18.184  0.00  0.00    +0.000 C 
ATOM      5  C   UNL     1       2.492   7.406  17.417  0.00  0.00    +0.000 C 
ATOM      6  C   UNL     1       3.892   6.992  17.608  0.00  0.00    +0.000 C 
ATOM      7  C   UNL     1       2.762   6.263  18.376  0.00  0.00    +0.000 C 
ATOM      8  C   UNL     1       2.084   6.779  19.620  0.00  0.00    +0.000 C 
ATOM      9  C   UNL     1       1.702   5.993  20.636  0.00  0.00    +0.000 C 
ATOM     10  C   UNL     1       1.888   4.531  20.579  0.00  0.00    +0.000 C 
ATOM     11  O   UNL     1       1.479   3.832  21.500  0.00  0.00    +0.000 OA
ATOM     12  C   UNL     1       2.570   3.937  19.407  0.00  0.00    +0.000 A 
ATOM     13  C   UNL     1       2.892   2.567  19.490  0.00  0.00    +0.000 A 
ATOM     14  C   UNL     1       3.655   1.963  18.500  0.00  0.00    +0.000 A 
ATOM     15  C   UNL     1       4.063   2.720  17.414  0.00  0.00    +0.000 A 
ATOM     16  C   UNL     1       3.694   4.072  17.310  0.00  0.00    +0.000 A 
ATOM     17  C   UNL     1       2.953   4.745  18.312  0.00  0.00    +0.000 A 
ENDROOT
BRANCH   1  23
ATOM     18  C   UNL     1       0.682  14.992  19.664  0.00  0.00    +0.000 A 
ATOM     19  C   UNL     1      -0.320  14.586  18.780  0.00  0.00    +0.000 A 
ATOM     20  C   UNL     1      -0.643  13.232  18.605  0.00  0.00    +0.000 A 
ATOM     21  C   UNL     1       0.080  12.287  19.342  0.00  0.00    +0.000 A 
ATOM     22  N   UNL     1      -0.028  10.916  19.400  0.00  0.00    +0.000 N 
ATOM     23  C   UNL     1       0.936  10.372  20.233  0.00  0.00    +0.000 A 
ATOM     24  C   UNL     1       1.594  11.451  20.793  0.00  0.00    +0.000 A 
ATOM     25  C   UNL     1       1.091  12.653  20.226  0.00  0.00    +0.000 A 
ATOM     26  C   UNL     1       1.392  14.024  20.391  0.00  0.00    +0.000 A 
ATOM     27  H   UNL     1      -0.712  10.365  18.896  0.00  0.00    +0.000 HD
BRANCH  18  28
ATOM     28  O   UNL     1       1.056  16.290  19.911  0.00  0.00    +0.000 OA
BRANCH  28  29
ATOM     29  C   UNL     1       2.405  16.637  19.588  0.00  0.00    +0.000 C 
BRANCH  29  31
ATOM     30  C   UNL     1       3.464  15.770  17.472  0.00  0.00    +0.000 C 
ATOM     31  C   UNL     1       2.531  16.811  18.076  0.00  0.00    +0.000 C 
ENDBRANCH  29  31
ENDBRANCH  28  29
ENDBRANCH  18  28
ENDBRANCH   1  23
TORSDOF 4
ENDMDL
MODEL 8
REMARK VINA RESULT:      -8.1      1.733      2.515
REMARK  Name = 
REMARK  5 active torsions:
REMARK  status: ('A' for Active; 'I' for Inactive)
REMARK    1  A    between atoms: C_1  and  C_2
REMARK    2  A    between atoms: C_2  and  C_3
REMARK    3  A    between atoms: C_3  and  O_4
REMARK    4  A    between atoms: O_4  and  C_5
REMARK    5  A    between atoms: C_10  and  C_11
REMARK                            x       y       z     vdW  Elec       q    Type
REMARK                         _______ _______ _______ _____ _____    ______ ____
ROOT
ATOM      1  C   UNL     1       1.758   9.265  18.247  0.00  0.00    +0.000 C 
ATOM      2  O   UNL     1       1.532  10.055  17.340  0.00  0.00    +0.000 OA
ATOM      3  N   UNL     1       1.200   9.377  19.534  0.00  0.00    +0.000 N 
ATOM      4  C   UNL     1       1.107   8.257  20.471  0.00  0.00    +0.000 C 
ATOM      5  C   UNL     1       0.086   8.687  21.484  0.00  0.00    +0.000 C 
ATOM      6  C   UNL     1       0.640   9.516  22.568  0.00  0.00    +0.000 C 
ATOM      7  C   UNL     1      -0.130  10.185  21.402  0.00  0.00    +0.000 C 
ATOM      8  C   UNL     1       0.442  10.472  20.035  0.00  0.00    +0.000 C 
ATOM      9  C   UNL     1       0.152  11.571  19.327  0.00  0.00    +0.000 C 
ATOM     10  C   UNL     1      -0.802  12.575  19.836  0.00  0.00    +0.000 C 
ATOM     11  O   UNL     1      -1.090  13.544  19.141  0.00  0.00    +0.000 OA
ATOM     12  C   UNL     1      -1.392  12.391  21.181  0.00  0.00    +0.000 A 
ATOM     13  C   UNL     1      -2.143  13.467  21.695  0.00  0.00    +0.000 A 
ATOM     14  C   UNL     1      -2.612  13.438  23.001  0.00  0.00    +0.000 A 
ATOM     15  C   UNL     1      -2.361  12.318  23.777  0.00  0.00    +0.000 A 
ATOM     16  C   UNL     1      -1.658  11.225  23.242  0.00  0.00    +0.000 A 
ATOM     17  C   UNL     1      -1.122  11.223  21.931  0.00  0.00    +0.000 A 
ENDROOT
BRANCH   1  23
ATOM     18  C   UNL     1       5.442   4.525  17.006  0.00  0.00    +0.000 A 
ATOM     19  C   UNL     1       4.371   3.842  17.585  0.00  0.00    +0.000 A 
ATOM     20  C   UNL     1       3.227   4.516  18.041  0.00  0.00    +0.000 A 
ATOM     21  C   UNL     1       3.193   5.909  17.906  0.00  0.00    +0.000 A 
ATOM     22  N   UNL     1       2.214   6.820  18.231  0.00  0.00    +0.000 N 
ATOM     23  C   UNL     1       2.629   8.116  17.970  0.00  0.00    +0.000 A 
ATOM     24  C   UNL     1       3.865   7.994  17.364  0.00  0.00    +0.000 A 
ATOM     25  C   UNL     1       4.244   6.625  17.342  0.00  0.00    +0.000 A 
ATOM     26  C   UNL     1       5.381   5.922  16.882  0.00  0.00    +0.000 A 
ATOM     27  H   UNL     1       1.309   6.587  18.620  0.00  0.00    +0.000 HD
BRANCH  18  28
ATOM     28  O   UNL     1       6.590   3.951  16.518  0.00  0.00    +0.000 OA
BRANCH  28  29
ATOM     29  C   UNL     1       6.990   4.346  15.203  0.00  0.00    +0.000 C 
BRANCH  29  31
ATOM     30  C   UNL     1       6.564   3.842  12.771  0.00  0.00    +0.000 C 
ATOM     31  C   UNL     1       6.003   3.779  14.185  0.00  0.00    +0.000 C 
ENDBRANCH  29  31
ENDBRANCH  28  29
ENDBRANCH  18  28
ENDBRANCH   1  23
TORSDOF 4
ENDMDL
MODEL 9
REMARK VINA RESULT:      -8.1      2.822      9.428
REMARK  Name = 
REMARK  5 active torsions:
REMARK  status: ('A' for Active; 'I' for Inactive)
REMARK    1  A    between atoms: C_1  and  C_2
REMARK    2  A    between atoms: C_2  and  C_3
REMARK    3  A    between atoms: C_3  and  O_4
REMARK    4  A    between atoms: O_4  and  C_5
REMARK    5  A    between atoms: C_10  and  C_11
REMARK                            x       y       z     vdW  Elec       q    Type
REMARK                         _______ _______ _______ _____ _____    ______ ____
ROOT
ATOM      1  C   UNL     1       0.764   9.213  20.772  0.00  0.00    +0.000 C 
ATOM      2  O   UNL     1       0.329   8.630  21.755  0.00  0.00    +0.000 OA
ATOM      3  N   UNL     1       1.504   8.581  19.755  0.00  0.00    +0.000 N 
ATOM      4  C   UNL     1       1.657   9.134  18.410  0.00  0.00    +0.000 C 
ATOM      5  C   UNL     1       2.108   7.977  17.566  0.00  0.00    +0.000 C 
ATOM      6  C   UNL     1       3.561   7.742  17.611  0.00  0.00    +0.000 C 
ATOM      7  C   UNL     1       2.611   6.854  18.452  0.00  0.00    +0.000 C 
ATOM      8  C   UNL     1       1.997   7.247  19.772  0.00  0.00    +0.000 C 
ATOM      9  C   UNL     1       1.818   6.393  20.789  0.00  0.00    +0.000 C 
ATOM     10  C   UNL     1       2.180   4.969  20.660  0.00  0.00    +0.000 C 
ATOM     11  O   UNL     1       1.954   4.199  21.589  0.00  0.00    +0.000 OA
ATOM     12  C   UNL     1       2.815   4.498  19.409  0.00  0.00    +0.000 A 
ATOM     13  C   UNL     1       3.314   3.179  19.410  0.00  0.00    +0.000 A 
ATOM     14  C   UNL     1       4.048   2.704  18.332  0.00  0.00    +0.000 A 
ATOM     15  C   UNL     1       4.250   3.534  17.241  0.00  0.00    +0.000 A 
ATOM     16  C   UNL     1       3.704   4.829  17.223  0.00  0.00    +0.000 A 
ATOM     17  C   UNL     1       2.986   5.376  18.314  0.00  0.00    +0.000 A 
ENDROOT
BRANCH   1  23
ATOM     18  C   UNL     1      -0.358  15.211  20.185  0.00  0.00    +0.000 A 
ATOM     19  C   UNL     1      -1.650  14.759  20.462  0.00  0.00    +0.000 A 
ATOM     20  C   UNL     1      -1.921  13.402  20.696  0.00  0.00    +0.000 A 
ATOM     21  C   UNL     1      -0.850  12.502  20.635  0.00  0.00    +0.000 A 
ATOM     22  N   UNL     1      -0.805  11.142  20.841  0.00  0.00    +0.000 N 
ATOM     23  C   UNL     1       0.470  10.644  20.623  0.00  0.00    +0.000 A 
ATOM     24  C   UNL     1       1.262  11.750  20.378  0.00  0.00    +0.000 A 
ATOM     25  C   UNL     1       0.449  12.914  20.353  0.00  0.00    +0.000 A 
ATOM     26  C   UNL     1       0.697  14.288  20.131  0.00  0.00    +0.000 A 
ATOM     27  H   UNL     1      -1.595  10.568  21.108  0.00  0.00    +0.000 HD
BRANCH  18  28
ATOM     28  O   UNL     1       0.003  16.517  19.960  0.00  0.00    +0.000 OA
BRANCH  28  29
ATOM     29  C   UNL     1       0.506  16.822  18.657  0.00  0.00    +0.000 C 
BRANCH  29  31
ATOM     30  C   UNL     1      -0.076  18.466  16.837  0.00  0.00    +0.000 C 
ATOM     31  C   UNL     1      -0.614  17.430  17.815  0.00  0.00    +0.000 C 
ENDBRANCH  29  31
ENDBRANCH  28  29
ENDBRANCH  18  28
ENDBRANCH   1  23
TORSDOF 4
ENDMDL
