MODEL 1
REMARK VINA RESULT:      -8.0      0.000      0.000
REMARK  Name = 
REMARK  2 active torsions:
REMARK  status: ('A' for Active; 'I' for Inactive)
REMARK    1  A    between atoms: C_2  and  C_3
REMARK    2  A    between atoms: C_3  and  N_4
REMARK                            x       y       z     vdW  Elec       q    Type
REMARK                         _______ _______ _______ _____ _____    ______ ____
ROOT
ATOM      1  C   UNL     1       3.391   3.906  20.207  0.00  0.00    +0.000 C 
ENDROOT
BRANCH   1   3
ATOM      2  O   UNL     1       1.281   4.801  20.879  0.00  0.00    +0.000 OA
ATOM      3  C   UNL     1       2.374   5.025  20.344  0.00  0.00    +0.000 C 
ATOM      4  N   UNL     1       2.810   6.247  19.912  0.00  0.00    +0.000 N 
ATOM      5  C   UNL     1       2.055   7.417  19.991  0.00  0.00    +0.000 A 
ATOM      6  C   UNL     1       1.230   7.699  21.075  0.00  0.00    +0.000 A 
ATOM      7  C   UNL     1       0.453   8.851  21.051  0.00  0.00    +0.000 A 
ATOM      8  C   UNL     1       0.502   9.671  19.931  0.00  0.00    +0.000 A 
ATOM      9 CL   UNL     1      -0.501  11.057  19.815  0.00  0.00    +0.000 Cl
ATOM     10  C   UNL     1       1.379   9.332  18.911  0.00  0.00    +0.000 A 
ATOM     11  N   UNL     1       2.185   8.243  18.933  0.00  0.00    +0.000 NA
ATOM     12  H   UNL     1       3.573   6.301  19.257  0.00  0.00    +0.000 HD
ENDBRANCH   1   3
BRANCH   1  13
ATOM     13  N   UNL     1       3.947   3.990  18.870  0.00  0.00    +0.000 N 
ATOM     14  C   UNL     1       3.199   3.603  17.783  0.00  0.00    +0.000 A 
ATOM     15  N   UNL     1       3.610   3.639  16.560  0.00  0.00    +0.000 NA
ATOM     16  C   UNL     1       4.918   4.082  16.324  0.00  0.00    +0.000 A 
ATOM     17  C   UNL     1       5.378   4.170  15.014  0.00  0.00    +0.000 A 
ATOM     18  C   UNL     1       6.682   4.598  14.740  0.00  0.00    +0.000 A 
ATOM     19  C   UNL     1       7.543   4.932  15.786  0.00  0.00    +0.000 A 
ATOM     20  C   UNL     1       7.100   4.851  17.102  0.00  0.00    +0.000 A 
ATOM     21  C   UNL     1       5.784   4.438  17.362  0.00  0.00    +0.000 A 
ATOM     22  C   UNL     1       5.267   4.384  18.733  0.00  0.00    +0.000 A 
ATOM     23  O   UNL     1       5.984   4.674  19.687  0.00  0.00    +0.000 OA
ENDBRANCH   1  13
TORSDOF 2
ENDMDL
MODEL 2
REMARK VINA RESULT:      -7.7      1.193      1.786
REMARK  Name = 
REMARK  2 active torsions:
REMARK  status: ('A' for Active; 'I' for Inactive)
REMARK    1  A    between atoms: C_2  and  C_3
REMARK    2  A    between atoms: C_3  and  N_4
REMARK                            x       y       z     vdW  Elec       q    Type
REMARK                         _______ _______ _______ _____ _____    ______ ____
ROOT
ATOM      1  C   UNL     1       2.975   3.556  19.793  0.00  0.00    +0.000 C 
ENDROOT
BRANCH   1   3
ATOM      2  O   UNL     1       1.145   4.809  20.680  0.00  0.00    +0.000 OA
ATOM      3  C   UNL     1       2.172   4.830  19.989  0.00  0.00    +0.000 C 
ATOM      4  N   UNL     1       2.722   5.945  19.422  0.00  0.00    +0.000 N 
ATOM      5  C   UNL     1       2.175   7.224  19.522  0.00  0.00    +0.000 A 
ATOM      6  C   UNL     1       1.566   7.683  20.685  0.00  0.00    +0.000 A 
ATOM      7  C   UNL     1       0.979   8.943  20.688  0.00  0.00    +0.000 A 
ATOM      8  C   UNL     1       0.992   9.693  19.519  0.00  0.00    +0.000 A 
ATOM      9 CL   UNL     1       0.206  11.215  19.445  0.00  0.00    +0.000 Cl
ATOM     10  C   UNL     1       1.651   9.171  18.416  0.00  0.00    +0.000 A 
ATOM     11  N   UNL     1       2.276   7.969  18.402  0.00  0.00    +0.000 NA
ATOM     12  H   UNL     1       3.383   5.845  18.667  0.00  0.00    +0.000 HD
ENDBRANCH   1   3
BRANCH   1  13
ATOM     13  N   UNL     1       4.077   3.876  18.905  0.00  0.00    +0.000 N 
ATOM     14  C   UNL     1       5.294   4.256  19.420  0.00  0.00    +0.000 A 
ATOM     15  N   UNL     1       6.327   4.562  18.709  0.00  0.00    +0.000 NA
ATOM     16  C   UNL     1       6.194   4.527  17.315  0.00  0.00    +0.000 A 
ATOM     17  C   UNL     1       7.299   4.812  16.521  0.00  0.00    +0.000 A 
ATOM     18  C   UNL     1       7.203   4.798  15.125  0.00  0.00    +0.000 A 
ATOM     19  C   UNL     1       5.984   4.504  14.512  0.00  0.00    +0.000 A 
ATOM     20  C   UNL     1       4.868   4.214  15.290  0.00  0.00    +0.000 A 
ATOM     21  C   UNL     1       4.984   4.216  16.688  0.00  0.00    +0.000 A 
ATOM     22  C   UNL     1       3.841   3.871  17.541  0.00  0.00    +0.000 A 
ATOM     23  O   UNL     1       2.749   3.599  17.048  0.00  0.00    +0.000 OA
ENDBRANCH   1  13
TORSDOF 2
ENDMDL
MODEL 3
REMARK VINA RESULT:      -7.6      2.140      3.221
REMARK  Name = 
REMARK  2 active torsions:
REMARK  status: ('A' for Active; 'I' for Inactive)
REMARK    1  A    between atoms: C_2  and  C_3
REMARK    2  A    between atoms: C_3  and  N_4
REMARK                            x       y       z     vdW  Elec       q    Type
REMARK                         _______ _______ _______ _____ _____    ______ ____
ROOT
ATOM      1  C   UNL     1       5.245   5.166  18.098  0.00  0.00    +0.000 C 
ENDROOT
BRANCH   1   3
ATOM      2  O   UNL     1       4.799   7.412  17.417  0.00  0.00    +0.000 OA
ATOM      3  C   UNL     1       4.447   6.458  18.122  0.00  0.00    +0.000 C 
ATOM      4  N   UNL     1       3.321   6.419  18.897  0.00  0.00    +0.000 N 
ATOM      5  C   UNL     1       2.422   7.478  19.023  0.00  0.00    +0.000 A 
ATOM      6  C   UNL     1       2.084   8.297  17.951  0.00  0.00    +0.000 A 
ATOM      7  C   UNL     1       1.236   9.377  18.168  0.00  0.00    +0.000 A 
ATOM      8  C   UNL     1       0.776   9.622  19.455  0.00  0.00    +0.000 A 
ATOM      9 CL   UNL     1      -0.202  10.990  19.791  0.00  0.00    +0.000 Cl
ATOM     10  C   UNL     1       1.135   8.733  20.457  0.00  0.00    +0.000 A 
ATOM     11  N   UNL     1       1.918   7.644  20.262  0.00  0.00    +0.000 NA
ATOM     12  H   UNL     1       3.248   5.736  19.635  0.00  0.00    +0.000 HD
ENDBRANCH   1   3
BRANCH   1  13
ATOM     13  N   UNL     1       5.841   5.054  16.781  0.00  0.00    +0.000 N 
ATOM     14  C   UNL     1       7.004   5.726  16.487  0.00  0.00    +0.000 A 
ATOM     15  N   UNL     1       7.603   5.689  15.345  0.00  0.00    +0.000 NA
ATOM     16  C   UNL     1       7.017   4.930  14.324  0.00  0.00    +0.000 A 
ATOM     17  C   UNL     1       7.658   4.838  13.093  0.00  0.00    +0.000 A 
ATOM     18  C   UNL     1       7.097   4.097  12.046  0.00  0.00    +0.000 A 
ATOM     19  C   UNL     1       5.874   3.449  12.225  0.00  0.00    +0.000 A 
ATOM     20  C   UNL     1       5.219   3.529  13.449  0.00  0.00    +0.000 A 
ATOM     21  C   UNL     1       5.802   4.260  14.496  0.00  0.00    +0.000 A 
ATOM     22  C   UNL     1       5.164   4.330  15.815  0.00  0.00    +0.000 A 
ATOM     23  O   UNL     1       4.090   3.771  16.024  0.00  0.00    +0.000 OA
ENDBRANCH   1  13
TORSDOF 2
ENDMDL
MODEL 4
REMARK VINA RESULT:      -6.9      1.852      2.525
REMARK  Name = 
REMARK  2 active torsions:
REMARK  status: ('A' for Active; 'I' for Inactive)
REMARK    1  A    between atoms: C_2  and  C_3
REMARK    2  A    between atoms: C_3  and  N_4
REMARK                            x       y       z     vdW  Elec       q    Type
REMARK                         _______ _______ _______ _____ _____    ______ ____
ROOT
ATOM      1  C   UNL     1       2.822   5.264  19.885  0.00  0.00    +0.000 C 
ENDROOT
BRANCH   1   3
ATOM      2  O   UNL     1       2.669   7.428  18.885  0.00  0.00    +0.000 OA
ATOM      3  C   UNL     1       2.379   6.716  19.855  0.00  0.00    +0.000 C 
ATOM      4  N   UNL     1       1.603   7.097  20.913  0.00  0.00    +0.000 N 
ATOM      5  C   UNL     1       1.050   8.370  21.058  0.00  0.00    +0.000 A 
ATOM      6  C   UNL     1       0.555   9.093  19.978  0.00  0.00    +0.000 A 
ATOM      7  C   UNL     1       0.086  10.385  20.188  0.00  0.00    +0.000 A 
ATOM      8  C   UNL     1       0.152  10.924  21.466  0.00  0.00    +0.000 A 
ATOM      9 CL   UNL     1      -0.333  12.541  21.761  0.00  0.00    +0.000 Cl
ATOM     10  C   UNL     1       0.629  10.119  22.490  0.00  0.00    +0.000 A 
ATOM     11  N   UNL     1       1.044   8.840  22.321  0.00  0.00    +0.000 NA
ATOM     12  H   UNL     1       1.637   6.571  21.772  0.00  0.00    +0.000 HD
ENDBRANCH   1   3
BRANCH   1  13
ATOM     13  N   UNL     1       3.954   5.141  18.987  0.00  0.00    +0.000 N 
ATOM     14  C   UNL     1       5.212   5.512  19.401  0.00  0.00    +0.000 A 
ATOM     15  N   UNL     1       6.274   5.442  18.672  0.00  0.00    +0.000 NA
ATOM     16  C   UNL     1       6.136   4.977  17.358  0.00  0.00    +0.000 A 
ATOM     17  C   UNL     1       7.267   4.852  16.560  0.00  0.00    +0.000 A 
ATOM     18  C   UNL     1       7.166   4.401  15.239  0.00  0.00    +0.000 A 
ATOM     19  C   UNL     1       5.918   4.080  14.703  0.00  0.00    +0.000 A 
ATOM     20  C   UNL     1       4.775   4.197  15.487  0.00  0.00    +0.000 A 
ATOM     21  C   UNL     1       4.893   4.634  16.816  0.00  0.00    +0.000 A 
ATOM     22  C   UNL     1       3.718   4.727  17.687  0.00  0.00    +0.000 A 
ATOM     23  O   UNL     1       2.598   4.449  17.264  0.00  0.00    +0.000 OA
ENDBRANCH   1  13
TORSDOF 2
ENDMDL
MODEL 5
REMARK VINA RESULT:      -6.9      3.858      5.916
REMARK  Name = 
REMARK  2 active torsions:
REMARK  status: ('A' for Active; 'I' for Inactive)
REMARK    1  A    between atoms: C_2  and  C_3
REMARK    2  A    between atoms: C_3  and  N_4
REMARK                            x       y       z     vdW  Elec       q    Type
REMARK                         _______ _______ _______ _____ _____    ______ ____
ROOT
ATOM      1  C   UNL     1       1.213  10.421  18.930  0.00  0.00    +0.000 C 
ENDROOT
BRANCH   1   3
ATOM      2  O   UNL     1      -0.839  10.292  20.145  0.00  0.00    +0.000 OA
ATOM      3  C   UNL     1      -0.289  10.582  19.075  0.00  0.00    +0.000 C 
ATOM      4  N   UNL     1      -0.912  11.128  17.988  0.00  0.00    +0.000 N 
ATOM      5  C   UNL     1      -2.277  11.407  17.928  0.00  0.00    +0.000 A 
ATOM      6  C   UNL     1      -2.986  11.893  19.021  0.00  0.00    +0.000 A 
ATOM      7  C   UNL     1      -4.359  12.079  18.908  0.00  0.00    +0.000 A 
ATOM      8  C   UNL     1      -4.986  11.746  17.714  0.00  0.00    +0.000 A 
ATOM      9 CL   UNL     1      -6.688  11.876  17.552  0.00  0.00    +0.000 Cl
ATOM     10  C   UNL     1      -4.196  11.301  16.664  0.00  0.00    +0.000 A 
ATOM     11  N   UNL     1      -2.850  11.160  16.732  0.00  0.00    +0.000 NA
ATOM     12  H   UNL     1      -0.468  11.082  17.084  0.00  0.00    +0.000 HD
ENDBRANCH   1   3
BRANCH   1  13
ATOM     13  N   UNL     1       1.532   9.046  19.262  0.00  0.00    +0.000 N 
ATOM     14  C   UNL     1       1.289   8.564  20.527  0.00  0.00    +0.000 A 
ATOM     15  N   UNL     1       1.543   7.360  20.915  0.00  0.00    +0.000 NA
ATOM     16  C   UNL     1       2.130   6.486  19.990  0.00  0.00    +0.000 A 
ATOM     17  C   UNL     1       2.380   5.170  20.363  0.00  0.00    +0.000 A 
ATOM     18  C   UNL     1       2.974   4.272  19.470  0.00  0.00    +0.000 A 
ATOM     19  C   UNL     1       3.334   4.694  18.189  0.00  0.00    +0.000 A 
ATOM     20  C   UNL     1       3.090   6.006  17.797  0.00  0.00    +0.000 A 
ATOM     21  C   UNL     1       2.477   6.892  18.697  0.00  0.00    +0.000 A 
ATOM     22  C   UNL     1       2.163   8.269  18.305  0.00  0.00    +0.000 A 
ATOM     23  O   UNL     1       2.455   8.687  17.187  0.00  0.00    +0.000 OA
ENDBRANCH   1  13
TORSDOF 2
ENDMDL
MODEL 6
REMARK VINA RESULT:      -6.8      4.100      7.469
REMARK  Name = 
REMARK  2 active torsions:
REMARK  status: ('A' for Active; 'I' for Inactive)
REMARK    1  A    between atoms: C_2  and  C_3
REMARK    2  A    between atoms: C_3  and  N_4
REMARK                            x       y       z     vdW  Elec       q    Type
REMARK                         _______ _______ _______ _____ _____    ______ ____
ROOT
ATOM      1  C   UNL     1       5.233   5.905  17.478  0.00  0.00    +0.000 C 
ENDROOT
BRANCH   1   3
ATOM      2  O   UNL     1       5.173   3.752  16.445  0.00  0.00    +0.000 OA
ATOM      3  C   UNL     1       5.503   4.940  16.337  0.00  0.00    +0.000 C 
ATOM      4  N   UNL     1       6.040   5.514  15.219  0.00  0.00    +0.000 N 
ATOM      5  C   UNL     1       6.321   4.820  14.042  0.00  0.00    +0.000 A 
ATOM      6  C   UNL     1       5.494   3.811  13.558  0.00  0.00    +0.000 A 
ATOM      7  C   UNL     1       5.876   3.114  12.418  0.00  0.00    +0.000 A 
ATOM      8  C   UNL     1       7.086   3.427  11.813  0.00  0.00    +0.000 A 
ATOM      9 CL   UNL     1       7.643   2.539  10.456  0.00  0.00    +0.000 Cl
ATOM     10  C   UNL     1       7.831   4.470  12.343  0.00  0.00    +0.000 A 
ATOM     11  N   UNL     1       7.457   5.199  13.422  0.00  0.00    +0.000 NA
ATOM     12  H   UNL     1       6.525   6.395  15.295  0.00  0.00    +0.000 HD
ENDBRANCH   1   3
BRANCH   1  13
ATOM     13  N   UNL     1       4.134   5.360  18.251  0.00  0.00    +0.000 N 
ATOM     14  C   UNL     1       2.855   5.830  18.063  0.00  0.00    +0.000 A 
ATOM     15  N   UNL     1       1.818   5.410  18.706  0.00  0.00    +0.000 NA
ATOM     16  C   UNL     1       2.010   4.422  19.681  0.00  0.00    +0.000 A 
ATOM     17  C   UNL     1       0.907   3.920  20.364  0.00  0.00    +0.000 A 
ATOM     18  C   UNL     1       1.061   2.940  21.351  0.00  0.00    +0.000 A 
ATOM     19  C   UNL     1       2.333   2.463  21.670  0.00  0.00    +0.000 A 
ATOM     20  C   UNL     1       3.447   2.952  20.997  0.00  0.00    +0.000 A 
ATOM     21  C   UNL     1       3.277   3.922  19.996  0.00  0.00    +0.000 A 
ATOM     22  C   UNL     1       4.422   4.429  19.233  0.00  0.00    +0.000 A 
ATOM     23  O   UNL     1       5.561   4.035  19.473  0.00  0.00    +0.000 OA
ENDBRANCH   1  13
TORSDOF 2
ENDMDL
MODEL 7
REMARK VINA RESULT:      -6.8      3.921      5.925
REMARK  Name = 
REMARK  2 active torsions:
REMARK  status: ('A' for Active; 'I' for Inactive)
REMARK    1  A    between atoms: C_2  and  C_3
REMARK    2  A    between atoms: C_3  and  N_4
REMARK                            x       y       z     vdW  Elec       q    Type
REMARK                         _______ _______ _______ _____ _____    ______ ____
ROOT
ATOM      1  C   UNL     1       7.339   4.532  17.549  0.00  0.00    +0.000 C 
ENDROOT
BRANCH   1   3
ATOM      2  O   UNL     1       7.523   6.414  16.090  0.00  0.00    +0.000 OA
ATOM      3  C   UNL     1       7.611   5.996  17.251  0.00  0.00    +0.000 C 
ATOM      4  N   UNL     1       7.864   6.765  18.353  0.00  0.00    +0.000 N 
ATOM      5  C   UNL     1       8.092   8.140  18.310  0.00  0.00    +0.000 A 
ATOM      6  C   UNL     1       7.402   8.982  17.444  0.00  0.00    +0.000 A 
ATOM      7  C   UNL     1       7.733  10.331  17.406  0.00  0.00    +0.000 A 
ATOM      8  C   UNL     1       8.763  10.792  18.214  0.00  0.00    +0.000 A 
ATOM      9 CL   UNL     1       9.268  12.429  18.142  0.00  0.00    +0.000 Cl
ATOM     10  C   UNL     1       9.374   9.890  19.073  0.00  0.00    +0.000 A 
ATOM     11  N   UNL     1       9.035   8.582  19.166  0.00  0.00    +0.000 NA
ATOM     12  H   UNL     1       8.185   6.327  19.202  0.00  0.00    +0.000 HD
ENDBRANCH   1   3
BRANCH   1  13
ATOM     13  N   UNL     1       5.905   4.384  17.707  0.00  0.00    +0.000 N 
ATOM     14  C   UNL     1       5.114   4.100  16.619  0.00  0.00    +0.000 A 
ATOM     15  N   UNL     1       3.832   3.956  16.663  0.00  0.00    +0.000 NA
ATOM     16  C   UNL     1       3.198   4.122  17.901  0.00  0.00    +0.000 A 
ATOM     17  C   UNL     1       1.823   3.934  17.989  0.00  0.00    +0.000 A 
ATOM     18  C   UNL     1       1.153   4.101  19.207  0.00  0.00    +0.000 A 
ATOM     19  C   UNL     1       1.863   4.472  20.350  0.00  0.00    +0.000 A 
ATOM     20  C   UNL     1       3.239   4.663  20.281  0.00  0.00    +0.000 A 
ATOM     21  C   UNL     1       3.900   4.474  19.057  0.00  0.00    +0.000 A 
ATOM     22  C   UNL     1       5.356   4.622  18.955  0.00  0.00    +0.000 A 
ATOM     23  O   UNL     1       6.025   4.942  19.934  0.00  0.00    +0.000 OA
ENDBRANCH   1  13
TORSDOF 2
ENDMDL
MODEL 8
REMARK VINA RESULT:      -6.7      1.490      1.799
REMARK  Name = 
REMARK  2 active torsions:
REMARK  status: ('A' for Active; 'I' for Inactive)
REMARK    1  A    between atoms: C_2  and  C_3
REMARK    2  A    between atoms: C_3  and  N_4
REMARK                            x       y       z     vdW  Elec       q    Type
REMARK                         _______ _______ _______ _____ _____    ______ ____
ROOT
ATOM      1  C   UNL     1       2.841   5.234  20.075  0.00  0.00    +0.000 C 
ENDROOT
BRANCH   1   3
ATOM      2  O   UNL     1       2.648   7.344  18.970  0.00  0.00    +0.000 OA
ATOM      3  C   UNL     1       2.372   6.675  19.974  0.00  0.00    +0.000 C 
ATOM      4  N   UNL     1       1.589   7.094  21.014  0.00  0.00    +0.000 N 
ATOM      5  C   UNL     1       1.014   8.362  21.097  0.00  0.00    +0.000 A 
ATOM      6  C   UNL     1       0.505   9.022  19.983  0.00  0.00    +0.000 A 
ATOM      7  C   UNL     1       0.012  10.313  20.131  0.00  0.00    +0.000 A 
ATOM      8  C   UNL     1       0.070  10.915  21.381  0.00  0.00    +0.000 A 
ATOM      9 CL   UNL     1      -0.445  12.537  21.598  0.00  0.00    +0.000 Cl
ATOM     10  C   UNL     1       0.561  10.171  22.443  0.00  0.00    +0.000 A 
ATOM     11  N   UNL     1       1.000   8.893  22.336  0.00  0.00    +0.000 NA
ATOM     12  H   UNL     1       1.634   6.610  21.897  0.00  0.00    +0.000 HD
ENDBRANCH   1   3
BRANCH   1  13
ATOM     13  N   UNL     1       3.521   4.916  18.834  0.00  0.00    +0.000 N 
ATOM     14  C   UNL     1       2.826   4.358  17.786  0.00  0.00    +0.000 A 
ATOM     15  N   UNL     1       3.346   4.039  16.649  0.00  0.00    +0.000 NA
ATOM     16  C   UNL     1       4.719   4.252  16.476  0.00  0.00    +0.000 A 
ATOM     17  C   UNL     1       5.303   3.955  15.249  0.00  0.00    +0.000 A 
ATOM     18  C   UNL     1       6.674   4.145  15.042  0.00  0.00    +0.000 A 
ATOM     19  C   UNL     1       7.476   4.629  16.076  0.00  0.00    +0.000 A 
ATOM     20  C   UNL     1       6.910   4.933  17.310  0.00  0.00    +0.000 A 
ATOM     21  C   UNL     1       5.531   4.754  17.498  0.00  0.00    +0.000 A 
ATOM     22  C   UNL     1       4.891   5.106  18.769  0.00  0.00    +0.000 A 
ATOM     23  O   UNL     1       5.554   5.540  19.708  0.00  0.00    +0.000 OA
ENDBRANCH   1  13
TORSDOF 2
ENDMDL
MODEL 9
REMARK VINA RESULT:      -6.7      3.140      4.741
REMARK  Name = 
REMARK  2 active torsions:
REMARK  status: ('A' for Active; 'I' for Inactive)
REMARK    1  A    between atoms: C_2  and  C_3
REMARK    2  A    between atoms: C_3  and  N_4
REMARK                            x       y       z     vdW  Elec       q    Type
REMARK                         _______ _______ _______ _____ _____    ______ ____
ROOT
ATOM      1  C   UNL     1       2.087   8.698  20.017  0.00  0.00    +0.000 C 
ENDROOT
BRANCH   1   3
ATOM      2  O   UNL     1      -0.002   9.450  20.897  0.00  0.00    +0.000 OA
ATOM      3  C   UNL     1       0.692   9.283  19.887  0.00  0.00    +0.000 C 
ATOM      4  N   UNL     1       0.346   9.656  18.618  0.00  0.00    +0.000 N 
ATOM      5  C   UNL     1      -0.868  10.256  18.283  0.00  0.00    +0.000 A 
ATOM      6  C   UNL     1      -1.487  11.191  19.107  0.00  0.00    +0.000 A 
ATOM      7  C   UNL     1      -2.731  11.693  18.742  0.00  0.00    +0.000 A 
ATOM      8  C   UNL     1      -3.330  11.224  17.581  0.00  0.00    +0.000 A 
ATOM      9 CL   UNL     1      -4.900  11.747  17.132  0.00  0.00    +0.000 Cl
ATOM     10  C   UNL     1      -2.626  10.318  16.802  0.00  0.00    +0.000 A 
ATOM     11  N   UNL     1      -1.391   9.852  17.108  0.00  0.00    +0.000 NA
ATOM     12  H   UNL     1       0.828   9.250  17.831  0.00  0.00    +0.000 HD
ENDBRANCH   1   3
BRANCH   1  13
ATOM     13  N   UNL     1       1.972   7.265  19.833  0.00  0.00    +0.000 N 
ATOM     14  C   UNL     1       1.420   6.481  20.820  0.00  0.00    +0.000 A 
ATOM     15  N   UNL     1       1.281   5.201  20.747  0.00  0.00    +0.000 NA
ATOM     16  C   UNL     1       1.745   4.558  19.592  0.00  0.00    +0.000 A 
ATOM     17  C   UNL     1       1.575   3.184  19.465  0.00  0.00    +0.000 A 
ATOM     18  C   UNL     1       2.035   2.506  18.330  0.00  0.00    +0.000 A 
ATOM     19  C   UNL     1       2.684   3.206  17.312  0.00  0.00    +0.000 A 
ATOM     20  C   UNL     1       2.863   4.581  17.421  0.00  0.00    +0.000 A 
ATOM     21  C   UNL     1       2.380   5.251  18.557  0.00  0.00    +0.000 A 
ATOM     22  C   UNL     1       2.509   6.706  18.686  0.00  0.00    +0.000 A 
ATOM     23  O   UNL     1       3.068   7.368  17.815  0.00  0.00    +0.000 OA
ENDBRANCH   1  13
TORSDOF 2
ENDMDL
