MODEL 1
REMARK VINA RESULT:      -9.7      0.000      0.000
REMARK  Name = 
REMARK  9 active torsions:
REMARK  status: ('A' for Active; 'I' for Inactive)
REMARK    1  A    between atoms: C_2  and  C_12
REMARK    2  A    between atoms: N_3  and  C_4
REMARK    3  A    between atoms: C_4  and  C_5
REMARK    4  A    between atoms: C_5  and  C_6
REMARK    5  A    between atoms: C_12  and  C_13
REMARK    6  A    between atoms: C_12  and  N_20
REMARK    7  A    between atoms: C_13  and  C_14
REMARK    8  A    between atoms: N_20  and  S_21
REMARK    9  A    between atoms: S_21  and  C_24
REMARK                            x       y       z     vdW  Elec       q    Type
REMARK                         _______ _______ _______ _____ _____    ______ ____
ROOT
ATOM      1  C   UNL     1       6.418   6.305  16.289  0.00  0.00    +0.000 C 
ENDROOT
BRANCH   1   3
ATOM      2  O   UNL     1       7.744   6.084  18.296  0.00  0.00    +0.000 OA
ATOM      3  C   UNL     1       7.339   6.821  17.399  0.00  0.00    +0.000 C 
ATOM      4  N   UNL     1       7.679   8.154  17.283  0.00  0.00    +0.000 N 
ATOM      5  H   UNL     1       6.977   8.738  16.831  0.00  0.00    +0.000 HD
BRANCH   4   6
ATOM      6  C   UNL     1       8.489   8.796  18.302  0.00  0.00    +0.000 C 
BRANCH   6   7
ATOM      7  C   UNL     1       8.408  10.322  18.192  0.00  0.00    +0.000 C 
BRANCH   7   8
ATOM      8  C   UNL     1       9.667  11.037  18.641  0.00  0.00    +0.000 C 
ATOM      9  C   UNL     1      10.574  11.489  17.755  0.00  0.00    +0.000 C 
ATOM     10  C   UNL     1      11.882  12.121  18.146  0.00  0.00    +0.000 C 
ATOM     11  C   UNL     1      12.242  11.883  19.612  0.00  0.00    +0.000 C 
ATOM     12  C   UNL     1      11.034  12.111  20.509  0.00  0.00    +0.000 C 
ATOM     13  C   UNL     1       9.880  11.175  20.134  0.00  0.00    +0.000 C 
ENDBRANCH   7   8
ENDBRANCH   6   7
ENDBRANCH   4   6
ENDBRANCH   1   3
BRANCH   1  14
ATOM     14  N   UNL     1       5.028   6.217  16.805  0.00  0.00    +0.000 NA
ATOM     15  H   UNL     1       4.320   6.649  16.203  0.00  0.00    +0.000 HD
BRANCH  14  16
ATOM     16  S   UNL     1       4.446   4.758  17.400  0.00  0.00    +0.000 S 
ATOM     17  O   UNL     1       3.701   4.194  16.298  0.00  0.00    +0.000 OA
ATOM     18  O   UNL     1       5.527   3.995  17.998  0.00  0.00    +0.000 OA
BRANCH  16  19
ATOM     19  C   UNL     1       3.268   5.226  18.645  0.00  0.00    +0.000 A 
ATOM     20  C   UNL     1       3.084   6.598  18.888  0.00  0.00    +0.000 A 
ATOM     21  C   UNL     1       2.193   7.020  19.867  0.00  0.00    +0.000 A 
ATOM     22  C   UNL     1       1.551   6.067  20.648  0.00  0.00    +0.000 A 
ATOM     23  C   UNL     1       1.780   4.697  20.433  0.00  0.00    +0.000 A 
ATOM     24  C   UNL     1       1.256   3.757  21.327  0.00  0.00    +0.000 A 
ATOM     25  C   UNL     1       1.451   2.403  21.106  0.00  0.00    +0.000 A 
ATOM     26  C   UNL     1       2.084   2.032  19.942  0.00  0.00    +0.000 A 
ATOM     27  N   UNL     1       2.675   2.909  19.102  0.00  0.00    +0.000 NA
ATOM     28  C   UNL     1       2.579   4.242  19.356  0.00  0.00    +0.000 A 
ENDBRANCH  16  19
ENDBRANCH  14  16
ENDBRANCH   1  14
BRANCH   1  29
ATOM     29  C   UNL     1       6.974   4.911  15.906  0.00  0.00    +0.000 C 
BRANCH  29  30
ATOM     30  C   UNL     1       6.967   4.618  14.427  0.00  0.00    +0.000 A 
ATOM     31  C   UNL     1       7.783   5.334  13.544  0.00  0.00    +0.000 A 
ATOM     32  C   UNL     1       7.723   5.082  12.172  0.00  0.00    +0.000 A 
ATOM     33  C   UNL     1       6.852   4.112  11.676  0.00  0.00    +0.000 A 
ATOM     34  C   UNL     1       6.060   3.374  12.552  0.00  0.00    +0.000 A 
ATOM     35  C   UNL     1       6.121   3.622  13.922  0.00  0.00    +0.000 A 
ENDBRANCH  29  30
ENDBRANCH   1  29
TORSDOF 9
ENDMDL
MODEL 2
REMARK VINA RESULT:      -9.1      0.914      2.119
REMARK  Name = 
REMARK  9 active torsions:
REMARK  status: ('A' for Active; 'I' for Inactive)
REMARK    1  A    between atoms: C_2  and  C_12
REMARK    2  A    between atoms: N_3  and  C_4
REMARK    3  A    between atoms: C_4  and  C_5
REMARK    4  A    between atoms: C_5  and  C_6
REMARK    5  A    between atoms: C_12  and  C_13
REMARK    6  A    between atoms: C_12  and  N_20
REMARK    7  A    between atoms: C_13  and  C_14
REMARK    8  A    between atoms: N_20  and  S_21
REMARK    9  A    between atoms: S_21  and  C_24
REMARK                            x       y       z     vdW  Elec       q    Type
REMARK                         _______ _______ _______ _____ _____    ______ ____
ROOT
ATOM      1  C   UNL     1       6.261   5.962  16.690  0.00  0.00    +0.000 C 
ENDROOT
BRANCH   1   3
ATOM      2  O   UNL     1       7.835   5.931  18.522  0.00  0.00    +0.000 OA
ATOM      3  C   UNL     1       7.286   6.589  17.640  0.00  0.00    +0.000 C 
ATOM      4  N   UNL     1       7.543   7.924  17.401  0.00  0.00    +0.000 N 
ATOM      5  H   UNL     1       6.762   8.447  17.007  0.00  0.00    +0.000 HD
BRANCH   4   6
ATOM      6  C   UNL     1       8.440   8.666  18.268  0.00  0.00    +0.000 C 
BRANCH   6   7
ATOM      7  C   UNL     1       8.457  10.154  17.902  0.00  0.00    +0.000 C 
BRANCH   7   8
ATOM      8  C   UNL     1       9.594  10.930  18.537  0.00  0.00    +0.000 C 
ATOM      9  C   UNL     1      10.549  11.516  17.792  0.00  0.00    +0.000 C 
ATOM     10  C   UNL     1      11.748  12.216  18.371  0.00  0.00    +0.000 C 
ATOM     11  C   UNL     1      11.968  11.897  19.849  0.00  0.00    +0.000 C 
ATOM     12  C   UNL     1      10.655  11.962  20.616  0.00  0.00    +0.000 C 
ATOM     13  C   UNL     1       9.633  10.970  20.051  0.00  0.00    +0.000 C 
ENDBRANCH   7   8
ENDBRANCH   6   7
ENDBRANCH   4   6
ENDBRANCH   1   3
BRANCH   1  14
ATOM     14  N   UNL     1       5.023   5.642  17.445  0.00  0.00    +0.000 NA
ATOM     15  H   UNL     1       4.183   6.129  17.117  0.00  0.00    +0.000 HD
BRANCH  14  16
ATOM     16  S   UNL     1       4.644   4.044  17.794  0.00  0.00    +0.000 S 
ATOM     17  O   UNL     1       3.802   3.627  16.697  0.00  0.00    +0.000 OA
ATOM     18  O   UNL     1       5.854   3.297  18.093  0.00  0.00    +0.000 OA
BRANCH  16  19
ATOM     19  C   UNL     1       3.614   4.139  19.239  0.00  0.00    +0.000 A 
ATOM     20  C   UNL     1       3.423   2.963  19.984  0.00  0.00    +0.000 A 
ATOM     21  C   UNL     1       2.607   2.974  21.109  0.00  0.00    +0.000 A 
ATOM     22  C   UNL     1       1.927   4.142  21.435  0.00  0.00    +0.000 A 
ATOM     23  C   UNL     1       2.084   5.299  20.654  0.00  0.00    +0.000 A 
ATOM     24  C   UNL     1       1.274   6.415  20.896  0.00  0.00    +0.000 A 
ATOM     25  C   UNL     1       1.441   7.571  20.151  0.00  0.00    +0.000 A 
ATOM     26  C   UNL     1       2.481   7.604  19.251  0.00  0.00    +0.000 A 
ATOM     27  N   UNL     1       3.227   6.523  18.932  0.00  0.00    +0.000 NA
ATOM     28  C   UNL     1       3.010   5.349  19.584  0.00  0.00    +0.000 A 
ENDBRANCH  16  19
ENDBRANCH  14  16
ENDBRANCH   1  14
BRANCH   1  29
ATOM     29  C   UNL     1       6.940   4.684  16.137  0.00  0.00    +0.000 C 
BRANCH  29  30
ATOM     30  C   UNL     1       6.906   4.557  14.635  0.00  0.00    +0.000 A 
ATOM     31  C   UNL     1       6.058   3.638  14.006  0.00  0.00    +0.000 A 
ATOM     32  C   UNL     1       6.080   3.500  12.617  0.00  0.00    +0.000 A 
ATOM     33  C   UNL     1       6.944   4.280  11.849  0.00  0.00    +0.000 A 
ATOM     34  C   UNL     1       7.768   5.218  12.466  0.00  0.00    +0.000 A 
ATOM     35  C   UNL     1       7.745   5.360  13.852  0.00  0.00    +0.000 A 
ENDBRANCH  29  30
ENDBRANCH   1  29
TORSDOF 9
ENDMDL
MODEL 3
REMARK VINA RESULT:      -8.9      6.727     10.671
REMARK  Name = 
REMARK  9 active torsions:
REMARK  status: ('A' for Active; 'I' for Inactive)
REMARK    1  A    between atoms: C_2  and  C_12
REMARK    2  A    between atoms: N_3  and  C_4
REMARK    3  A    between atoms: C_4  and  C_5
REMARK    4  A    between atoms: C_5  and  C_6
REMARK    5  A    between atoms: C_12  and  C_13
REMARK    6  A    between atoms: C_12  and  N_20
REMARK    7  A    between atoms: C_13  and  C_14
REMARK    8  A    between atoms: N_20  and  S_21
REMARK    9  A    between atoms: S_21  and  C_24
REMARK                            x       y       z     vdW  Elec       q    Type
REMARK                         _______ _______ _______ _____ _____    ______ ____
ROOT
ATOM      1  C   UNL     1       0.504  10.806  18.945  0.00  0.00    +0.000 C 
ENDROOT
BRANCH   1   3
ATOM      2  O   UNL     1       1.905   9.488  17.485  0.00  0.00    +0.000 OA
ATOM      3  C   UNL     1       1.381   9.602  18.591  0.00  0.00    +0.000 C 
ATOM      4  N   UNL     1       1.542   8.692  19.618  0.00  0.00    +0.000 N 
ATOM      5  H   UNL     1       0.757   8.634  20.265  0.00  0.00    +0.000 HD
BRANCH   4   6
ATOM      6  C   UNL     1       2.291   7.468  19.403  0.00  0.00    +0.000 C 
BRANCH   6   7
ATOM      7  C   UNL     1       1.897   6.393  20.422  0.00  0.00    +0.000 C 
BRANCH   7   8
ATOM      8  C   UNL     1       1.784   5.001  19.834  0.00  0.00    +0.000 C 
ATOM      9  C   UNL     1       2.023   4.765  18.530  0.00  0.00    +0.000 C 
ATOM     10  C   UNL     1       1.835   3.424  17.876  0.00  0.00    +0.000 C 
ATOM     11  C   UNL     1       1.019   2.454  18.729  0.00  0.00    +0.000 C 
ATOM     12  C   UNL     1       1.481   2.491  20.179  0.00  0.00    +0.000 C 
ATOM     13  C   UNL     1       1.340   3.897  20.771  0.00  0.00    +0.000 C 
ENDBRANCH   7   8
ENDBRANCH   6   7
ENDBRANCH   4   6
ENDBRANCH   1   3
BRANCH   1  14
ATOM     14  N   UNL     1       1.075  11.499  20.129  0.00  0.00    +0.000 NA
ATOM     15  H   UNL     1       1.644  10.905  20.739  0.00  0.00    +0.000 HD
BRANCH  14  16
ATOM     16  S   UNL     1       1.818  12.994  19.947  0.00  0.00    +0.000 S 
ATOM     17  O   UNL     1       2.620  13.143  21.139  0.00  0.00    +0.000 OA
ATOM     18  O   UNL     1       2.449  13.082  18.642  0.00  0.00    +0.000 OA
BRANCH  16  19
ATOM     19  C   UNL     1       0.487  14.166  20.061  0.00  0.00    +0.000 A 
ATOM     20  C   UNL     1       0.415  15.172  19.082  0.00  0.00    +0.000 A 
ATOM     21  C   UNL     1      -0.591  16.128  19.137  0.00  0.00    +0.000 A 
ATOM     22  C   UNL     1      -1.470  16.119  20.213  0.00  0.00    +0.000 A 
ATOM     23  C   UNL     1      -1.359  15.140  21.215  0.00  0.00    +0.000 A 
ATOM     24  C   UNL     1      -2.144  15.238  22.370  0.00  0.00    +0.000 A 
ATOM     25  C   UNL     1      -2.064  14.263  23.350  0.00  0.00    +0.000 A 
ATOM     26  C   UNL     1      -1.269  13.168  23.096  0.00  0.00    +0.000 A 
ATOM     27  N   UNL     1      -0.436  13.081  22.036  0.00  0.00    +0.000 NA
ATOM     28  C   UNL     1      -0.429  14.079  21.112  0.00  0.00    +0.000 A 
ENDBRANCH  16  19
ENDBRANCH  14  16
ENDBRANCH   1  14
BRANCH   1  29
ATOM     29  C   UNL     1      -0.898  10.220  19.248  0.00  0.00    +0.000 C 
BRANCH  29  30
ATOM     30  C   UNL     1      -1.920  10.448  18.164  0.00  0.00    +0.000 A 
ATOM     31  C   UNL     1      -1.798   9.832  16.913  0.00  0.00    +0.000 A 
ATOM     32  C   UNL     1      -2.727  10.098  15.906  0.00  0.00    +0.000 A 
ATOM     33  C   UNL     1      -3.785  10.974  16.143  0.00  0.00    +0.000 A 
ATOM     34  C   UNL     1      -3.931  11.567  17.395  0.00  0.00    +0.000 A 
ATOM     35  C   UNL     1      -3.006  11.301  18.402  0.00  0.00    +0.000 A 
ENDBRANCH  29  30
ENDBRANCH   1  29
TORSDOF 9
ENDMDL
MODEL 4
REMARK VINA RESULT:      -8.9      6.325     10.419
REMARK  Name = 
REMARK  9 active torsions:
REMARK  status: ('A' for Active; 'I' for Inactive)
REMARK    1  A    between atoms: C_2  and  C_12
REMARK    2  A    between atoms: N_3  and  C_4
REMARK    3  A    between atoms: C_4  and  C_5
REMARK    4  A    between atoms: C_5  and  C_6
REMARK    5  A    between atoms: C_12  and  C_13
REMARK    6  A    between atoms: C_12  and  N_20
REMARK    7  A    between atoms: C_13  and  C_14
REMARK    8  A    between atoms: N_20  and  S_21
REMARK    9  A    between atoms: S_21  and  C_24
REMARK                            x       y       z     vdW  Elec       q    Type
REMARK                         _______ _______ _______ _____ _____    ______ ____
ROOT
ATOM      1  C   UNL     1       0.887  10.397  19.437  0.00  0.00    +0.000 C 
ENDROOT
BRANCH   1   3
ATOM      2  O   UNL     1       1.728   9.446  17.382  0.00  0.00    +0.000 OA
ATOM      3  C   UNL     1       1.563   9.313  18.593  0.00  0.00    +0.000 C 
ATOM      4  N   UNL     1       1.980   8.210  19.311  0.00  0.00    +0.000 N 
ATOM      5  H   UNL     1       1.422   8.000  20.137  0.00  0.00    +0.000 HD
BRANCH   4   6
ATOM      6  C   UNL     1       2.574   7.073  18.631  0.00  0.00    +0.000 C 
BRANCH   6   7
ATOM      7  C   UNL     1       3.136   6.061  19.634  0.00  0.00    +0.000 C 
BRANCH   7   8
ATOM      8  C   UNL     1       2.342   4.773  19.718  0.00  0.00    +0.000 C 
ATOM      9  C   UNL     1       2.012   4.224  20.903  0.00  0.00    +0.000 C 
ATOM     10  C   UNL     1       1.308   2.903  21.044  0.00  0.00    +0.000 C 
ATOM     11  C   UNL     1       1.321   2.081  19.757  0.00  0.00    +0.000 C 
ATOM     12  C   UNL     1       0.982   2.953  18.556  0.00  0.00    +0.000 C 
ATOM     13  C   UNL     1       1.981   4.105  18.407  0.00  0.00    +0.000 C 
ENDBRANCH   7   8
ENDBRANCH   6   7
ENDBRANCH   4   6
ENDBRANCH   1   3
BRANCH   1  14
ATOM     14  N   UNL     1      -0.097   9.764  20.353  0.00  0.00    +0.000 NA
ATOM     15  H   UNL     1      -0.327   8.792  20.127  0.00  0.00    +0.000 HD
BRANCH  14  16
ATOM     16  S   UNL     1       0.079   9.929  22.014  0.00  0.00    +0.000 S 
ATOM     17  O   UNL     1      -0.691   8.839  22.566  0.00  0.00    +0.000 OA
ATOM     18  O   UNL     1       1.484  10.060  22.358  0.00  0.00    +0.000 OA
BRANCH  16  19
ATOM     19  C   UNL     1      -0.786  11.432  22.404  0.00  0.00    +0.000 A 
ATOM     20  C   UNL     1      -2.017  11.323  23.073  0.00  0.00    +0.000 A 
ATOM     21  C   UNL     1      -2.748  12.464  23.381  0.00  0.00    +0.000 A 
ATOM     22  C   UNL     1      -2.280  13.698  22.947  0.00  0.00    +0.000 A 
ATOM     23  C   UNL     1      -1.074  13.794  22.233  0.00  0.00    +0.000 A 
ATOM     24  C   UNL     1      -0.698  15.017  21.666  0.00  0.00    +0.000 A 
ATOM     25  C   UNL     1       0.503  15.127  20.985  0.00  0.00    +0.000 A 
ATOM     26  C   UNL     1       1.336  14.032  20.979  0.00  0.00    +0.000 A 
ATOM     27  N   UNL     1       0.971  12.815  21.441  0.00  0.00    +0.000 NA
ATOM     28  C   UNL     1      -0.248  12.663  22.025  0.00  0.00    +0.000 A 
ENDBRANCH  16  19
ENDBRANCH  14  16
ENDBRANCH   1  14
BRANCH   1  29
ATOM     29  C   UNL     1       0.196  11.340  18.420  0.00  0.00    +0.000 C 
BRANCH  29  30
ATOM     30  C   UNL     1      -1.285  11.111  18.260  0.00  0.00    +0.000 A 
ATOM     31  C   UNL     1      -1.774  10.094  17.432  0.00  0.00    +0.000 A 
ATOM     32  C   UNL     1      -3.149   9.932  17.257  0.00  0.00    +0.000 A 
ATOM     33  C   UNL     1      -4.043  10.780  17.910  0.00  0.00    +0.000 A 
ATOM     34  C   UNL     1      -3.564  11.775  18.759  0.00  0.00    +0.000 A 
ATOM     35  C   UNL     1      -2.192  11.936  18.938  0.00  0.00    +0.000 A 
ENDBRANCH  29  30
ENDBRANCH   1  29
TORSDOF 9
ENDMDL
MODEL 5
REMARK VINA RESULT:      -8.8      2.416      4.039
REMARK  Name = 
REMARK  9 active torsions:
REMARK  status: ('A' for Active; 'I' for Inactive)
REMARK    1  A    between atoms: C_2  and  C_12
REMARK    2  A    between atoms: N_3  and  C_4
REMARK    3  A    between atoms: C_4  and  C_5
REMARK    4  A    between atoms: C_5  and  C_6
REMARK    5  A    between atoms: C_12  and  C_13
REMARK    6  A    between atoms: C_12  and  N_20
REMARK    7  A    between atoms: C_13  and  C_14
REMARK    8  A    between atoms: N_20  and  S_21
REMARK    9  A    between atoms: S_21  and  C_24
REMARK                            x       y       z     vdW  Elec       q    Type
REMARK                         _______ _______ _______ _____ _____    ______ ____
ROOT
ATOM      1  C   UNL     1       5.410   6.415  17.476  0.00  0.00    +0.000 C 
ENDROOT
BRANCH   1   3
ATOM      2  O   UNL     1       7.539   6.581  16.347  0.00  0.00    +0.000 OA
ATOM      3  C   UNL     1       6.758   7.070  17.161  0.00  0.00    +0.000 C 
ATOM      4  N   UNL     1       6.994   8.245  17.846  0.00  0.00    +0.000 N 
ATOM      5  H   UNL     1       6.551   8.304  18.762  0.00  0.00    +0.000 HD
BRANCH   4   6
ATOM      6  C   UNL     1       8.261   8.938  17.700  0.00  0.00    +0.000 C 
BRANCH   6   7
ATOM      7  C   UNL     1       8.156  10.389  18.183  0.00  0.00    +0.000 C 
BRANCH   7   8
ATOM      8  C   UNL     1       9.482  10.996  18.595  0.00  0.00    +0.000 C 
ATOM      9  C   UNL     1      10.382  11.411  17.683  0.00  0.00    +0.000 C 
ATOM     10  C   UNL     1      11.747  11.932  18.033  0.00  0.00    +0.000 C 
ATOM     11  C   UNL     1      12.152  11.621  19.473  0.00  0.00    +0.000 C 
ATOM     12  C   UNL     1      11.004  11.905  20.431  0.00  0.00    +0.000 C 
ATOM     13  C   UNL     1       9.769  11.068  20.080  0.00  0.00    +0.000 C 
ENDBRANCH   7   8
ENDBRANCH   6   7
ENDBRANCH   4   6
ENDBRANCH   1   3
BRANCH   1  14
ATOM     14  N   UNL     1       5.318   5.114  16.764  0.00  0.00    +0.000 NA
ATOM     15  H   UNL     1       6.017   4.979  16.027  0.00  0.00    +0.000 HD
BRANCH  14  16
ATOM     16  S   UNL     1       5.142   3.691  17.639  0.00  0.00    +0.000 S 
ATOM     17  O   UNL     1       5.388   2.645  16.674  0.00  0.00    +0.000 OA
ATOM     18  O   UNL     1       5.938   3.749  18.852  0.00  0.00    +0.000 OA
BRANCH  16  19
ATOM     19  C   UNL     1       3.414   3.633  18.046  0.00  0.00    +0.000 A 
ATOM     20  C   UNL     1       2.502   4.129  17.098  0.00  0.00    +0.000 A 
ATOM     21  C   UNL     1       1.140   4.130  17.374  0.00  0.00    +0.000 A 
ATOM     22  C   UNL     1       0.707   3.709  18.626  0.00  0.00    +0.000 A 
ATOM     23  C   UNL     1       1.631   3.263  19.587  0.00  0.00    +0.000 A 
ATOM     24  C   UNL     1       1.200   2.996  20.891  0.00  0.00    +0.000 A 
ATOM     25  C   UNL     1       2.097   2.528  21.838  0.00  0.00    +0.000 A 
ATOM     26  C   UNL     1       3.378   2.250  21.419  0.00  0.00    +0.000 A 
ATOM     27  N   UNL     1       3.849   2.574  20.195  0.00  0.00    +0.000 NA
ATOM     28  C   UNL     1       3.006   3.128  19.282  0.00  0.00    +0.000 A 
ENDBRANCH  16  19
ENDBRANCH  14  16
ENDBRANCH   1  14
BRANCH   1  29
ATOM     29  C   UNL     1       4.338   7.416  16.976  0.00  0.00    +0.000 C 
BRANCH  29  30
ATOM     30  C   UNL     1       3.276   7.755  17.989  0.00  0.00    +0.000 A 
ATOM     31  C   UNL     1       3.091   6.970  19.134  0.00  0.00    +0.000 A 
ATOM     32  C   UNL     1       2.068   7.272  20.034  0.00  0.00    +0.000 A 
ATOM     33  C   UNL     1       1.227   8.359  19.800  0.00  0.00    +0.000 A 
ATOM     34  C   UNL     1       1.424   9.163  18.679  0.00  0.00    +0.000 A 
ATOM     35  C   UNL     1       2.447   8.865  17.782  0.00  0.00    +0.000 A 
ENDBRANCH  29  30
ENDBRANCH   1  29
TORSDOF 9
ENDMDL
MODEL 6
REMARK VINA RESULT:      -8.7      6.874     11.478
REMARK  Name = 
REMARK  9 active torsions:
REMARK  status: ('A' for Active; 'I' for Inactive)
REMARK    1  A    between atoms: C_2  and  C_12
REMARK    2  A    between atoms: N_3  and  C_4
REMARK    3  A    between atoms: C_4  and  C_5
REMARK    4  A    between atoms: C_5  and  C_6
REMARK    5  A    between atoms: C_12  and  C_13
REMARK    6  A    between atoms: C_12  and  N_20
REMARK    7  A    between atoms: C_13  and  C_14
REMARK    8  A    between atoms: N_20  and  S_21
REMARK    9  A    between atoms: S_21  and  C_24
REMARK                            x       y       z     vdW  Elec       q    Type
REMARK                         _______ _______ _______ _____ _____    ______ ____
ROOT
ATOM      1  C   UNL     1      -0.388  10.578  21.427  0.00  0.00    +0.000 C 
ENDROOT
BRANCH   1   3
ATOM      2  O   UNL     1       1.636   9.607  22.321  0.00  0.00    +0.000 OA
ATOM      3  C   UNL     1       0.796   9.607  21.422  0.00  0.00    +0.000 C 
ATOM      4  N   UNL     1       0.815   8.737  20.350  0.00  0.00    +0.000 N 
ATOM      5  H   UNL     1       0.394   9.101  19.496  0.00  0.00    +0.000 HD
BRANCH   4   6
ATOM      6  C   UNL     1       1.917   7.808  20.178  0.00  0.00    +0.000 C 
BRANCH   6   7
ATOM      7  C   UNL     1       1.647   6.490  20.911  0.00  0.00    +0.000 C 
BRANCH   7   8
ATOM      8  C   UNL     1       1.551   5.286  19.996  0.00  0.00    +0.000 C 
ATOM      9  C   UNL     1       0.991   4.132  20.406  0.00  0.00    +0.000 C 
ATOM     10  C   UNL     1       0.953   2.880  19.573  0.00  0.00    +0.000 C 
ATOM     11  C   UNL     1       1.907   2.928  18.381  0.00  0.00    +0.000 C 
ATOM     12  C   UNL     1       1.814   4.271  17.669  0.00  0.00    +0.000 C 
ATOM     13  C   UNL     1       2.159   5.426  18.616  0.00  0.00    +0.000 C 
ENDBRANCH   7   8
ENDBRANCH   6   7
ENDBRANCH   4   6
ENDBRANCH   1   3
BRANCH   1  14
ATOM     14  N   UNL     1       0.031  11.866  20.816  0.00  0.00    +0.000 NA
ATOM     15  H   UNL     1       0.888  12.267  21.210  0.00  0.00    +0.000 HD
BRANCH  14  16
ATOM     16  S   UNL     1       0.047  12.035  19.146  0.00  0.00    +0.000 S 
ATOM     17  O   UNL     1      -0.015  13.462  18.930  0.00  0.00    +0.000 OA
ATOM     18  O   UNL     1       1.142  11.271  18.576  0.00  0.00    +0.000 OA
BRANCH  16  19
ATOM     19  C   UNL     1      -1.509  11.358  18.619  0.00  0.00    +0.000 A 
ATOM     20  C   UNL     1      -1.482  10.300  17.695  0.00  0.00    +0.000 A 
ATOM     21  C   UNL     1      -2.670   9.748  17.230  0.00  0.00    +0.000 A 
ATOM     22  C   UNL     1      -3.875  10.311  17.633  0.00  0.00    +0.000 A 
ATOM     23  C   UNL     1      -3.892  11.402  18.518  0.00  0.00    +0.000 A 
ATOM     24  C   UNL     1      -5.099  12.058  18.787  0.00  0.00    +0.000 A 
ATOM     25  C   UNL     1      -5.130  13.117  19.681  0.00  0.00    +0.000 A 
ATOM     26  C   UNL     1      -3.967  13.421  20.350  0.00  0.00    +0.000 A 
ATOM     27  N   UNL     1      -2.770  12.868  20.054  0.00  0.00    +0.000 NA
ATOM     28  C   UNL     1      -2.702  11.894  19.107  0.00  0.00    +0.000 A 
ENDBRANCH  16  19
ENDBRANCH  14  16
ENDBRANCH   1  14
BRANCH   1  29
ATOM     29  C   UNL     1      -0.773  10.752  22.918  0.00  0.00    +0.000 C 
BRANCH  29  30
ATOM     30  C   UNL     1      -1.589  11.983  23.215  0.00  0.00    +0.000 A 
ATOM     31  C   UNL     1      -1.015  13.259  23.177  0.00  0.00    +0.000 A 
ATOM     32  C   UNL     1      -1.776  14.381  23.506  0.00  0.00    +0.000 A 
ATOM     33  C   UNL     1      -3.115  14.238  23.868  0.00  0.00    +0.000 A 
ATOM     34  C   UNL     1      -3.702  12.975  23.878  0.00  0.00    +0.000 A 
ATOM     35  C   UNL     1      -2.944  11.853  23.547  0.00  0.00    +0.000 A 
ENDBRANCH  29  30
ENDBRANCH   1  29
TORSDOF 9
ENDMDL
MODEL 7
REMARK VINA RESULT:      -8.7      2.494      4.164
REMARK  Name = 
REMARK  9 active torsions:
REMARK  status: ('A' for Active; 'I' for Inactive)
REMARK    1  A    between atoms: C_2  and  C_12
REMARK    2  A    between atoms: N_3  and  C_4
REMARK    3  A    between atoms: C_4  and  C_5
REMARK    4  A    between atoms: C_5  and  C_6
REMARK    5  A    between atoms: C_12  and  C_13
REMARK    6  A    between atoms: C_12  and  N_20
REMARK    7  A    between atoms: C_13  and  C_14
REMARK    8  A    between atoms: N_20  and  S_21
REMARK    9  A    between atoms: S_21  and  C_24
REMARK                            x       y       z     vdW  Elec       q    Type
REMARK                         _______ _______ _______ _____ _____    ______ ____
ROOT
ATOM      1  C   UNL     1       5.343   6.531  17.466  0.00  0.00    +0.000 C 
ENDROOT
BRANCH   1   3
ATOM      2  O   UNL     1       7.494   6.681  16.376  0.00  0.00    +0.000 OA
ATOM      3  C   UNL     1       6.689   7.192  17.153  0.00  0.00    +0.000 C 
ATOM      4  N   UNL     1       6.895   8.397  17.794  0.00  0.00    +0.000 N 
ATOM      5  H   UNL     1       6.431   8.487  18.697  0.00  0.00    +0.000 HD
BRANCH   4   6
ATOM      6  C   UNL     1       8.155   9.102  17.646  0.00  0.00    +0.000 C 
BRANCH   6   7
ATOM      7  C   UNL     1       8.871   9.244  18.993  0.00  0.00    +0.000 C 
BRANCH   7   8
ATOM      8  C   UNL     1       9.553  10.583  19.188  0.00  0.00    +0.000 C 
ATOM      9  C   UNL     1       9.763  11.096  20.415  0.00  0.00    +0.000 C 
ATOM     10  C   UNL     1      10.349  12.458  20.662  0.00  0.00    +0.000 C 
ATOM     11  C   UNL     1      10.354  13.339  19.415  0.00  0.00    +0.000 C 
ATOM     12  C   UNL     1      10.837  12.556  18.202  0.00  0.00    +0.000 C 
ATOM     13  C   UNL     1       9.944  11.340  17.936  0.00  0.00    +0.000 C 
ENDBRANCH   7   8
ENDBRANCH   6   7
ENDBRANCH   4   6
ENDBRANCH   1   3
BRANCH   1  14
ATOM     14  N   UNL     1       5.257   5.231  16.752  0.00  0.00    +0.000 NA
ATOM     15  H   UNL     1       5.938   5.112  15.996  0.00  0.00    +0.000 HD
BRANCH  14  16
ATOM     16  S   UNL     1       5.131   3.802  17.626  0.00  0.00    +0.000 S 
ATOM     17  O   UNL     1       5.408   2.765  16.658  0.00  0.00    +0.000 OA
ATOM     18  O   UNL     1       5.930   3.884  18.836  0.00  0.00    +0.000 OA
BRANCH  16  19
ATOM     19  C   UNL     1       3.407   3.687  18.039  0.00  0.00    +0.000 A 
ATOM     20  C   UNL     1       2.476   4.166  17.102  0.00  0.00    +0.000 A 
ATOM     21  C   UNL     1       1.116   4.122  17.384  0.00  0.00    +0.000 A 
ATOM     22  C   UNL     1       0.702   3.674  18.632  0.00  0.00    +0.000 A 
ATOM     23  C   UNL     1       1.643   3.245  19.583  0.00  0.00    +0.000 A 
ATOM     24  C   UNL     1       1.227   2.950  20.887  0.00  0.00    +0.000 A 
ATOM     25  C   UNL     1       2.142   2.498  21.823  0.00  0.00    +0.000 A 
ATOM     26  C   UNL     1       3.429   2.265  21.396  0.00  0.00    +0.000 A 
ATOM     27  N   UNL     1       3.885   2.617  20.174  0.00  0.00    +0.000 NA
ATOM     28  C   UNL     1       3.021   3.155  19.271  0.00  0.00    +0.000 A 
ENDBRANCH  16  19
ENDBRANCH  14  16
ENDBRANCH   1  14
BRANCH   1  29
ATOM     29  C   UNL     1       4.268   7.528  16.968  0.00  0.00    +0.000 C 
BRANCH  29  30
ATOM     30  C   UNL     1       3.186   7.837  17.972  0.00  0.00    +0.000 A 
ATOM     31  C   UNL     1       2.324   8.925  17.795  0.00  0.00    +0.000 A 
ATOM     32  C   UNL     1       1.363   9.224  18.762  0.00  0.00    +0.000 A 
ATOM     33  C   UNL     1       1.254   8.436  19.907  0.00  0.00    +0.000 A 
ATOM     34  C   UNL     1       2.088   7.332  20.075  0.00  0.00    +0.000 A 
ATOM     35  C   UNL     1       3.045   7.031  19.109  0.00  0.00    +0.000 A 
ENDBRANCH  29  30
ENDBRANCH   1  29
TORSDOF 9
ENDMDL
MODEL 8
REMARK VINA RESULT:      -8.6      4.361      7.419
REMARK  Name = 
REMARK  9 active torsions:
REMARK  status: ('A' for Active; 'I' for Inactive)
REMARK    1  A    between atoms: C_2  and  C_12
REMARK    2  A    between atoms: N_3  and  C_4
REMARK    3  A    between atoms: C_4  and  C_5
REMARK    4  A    between atoms: C_5  and  C_6
REMARK    5  A    between atoms: C_12  and  C_13
REMARK    6  A    between atoms: C_12  and  N_20
REMARK    7  A    between atoms: C_13  and  C_14
REMARK    8  A    between atoms: N_20  and  S_21
REMARK    9  A    between atoms: S_21  and  C_24
REMARK                            x       y       z     vdW  Elec       q    Type
REMARK                         _______ _______ _______ _____ _____    ______ ____
ROOT
ATOM      1  C   UNL     1       1.840   7.680  19.162  0.00  0.00    +0.000 C 
ENDROOT
BRANCH   1   3
ATOM      2  O   UNL     1       2.271   9.100  17.256  0.00  0.00    +0.000 OA
ATOM      3  C   UNL     1       2.554   8.069  17.864  0.00  0.00    +0.000 C 
ATOM      4  N   UNL     1       3.537   7.185  17.466  0.00  0.00    +0.000 N 
ATOM      5  H   UNL     1       3.378   6.216  17.742  0.00  0.00    +0.000 HD
BRANCH   4   6
ATOM      6  C   UNL     1       4.248   7.389  16.218  0.00  0.00    +0.000 C 
BRANCH   6   7
ATOM      7  C   UNL     1       5.184   6.214  15.915  0.00  0.00    +0.000 C 
BRANCH   7   8
ATOM      8  C   UNL     1       6.317   6.060  16.909  0.00  0.00    +0.000 C 
ATOM      9  C   UNL     1       6.818   4.851  17.226  0.00  0.00    +0.000 C 
ATOM     10  C   UNL     1       7.875   4.633  18.272  0.00  0.00    +0.000 C 
ATOM     11  C   UNL     1       8.072   5.844  19.182  0.00  0.00    +0.000 C 
ATOM     12  C   UNL     1       8.119   7.129  18.367  0.00  0.00    +0.000 C 
ATOM     13  C   UNL     1       6.826   7.326  17.568  0.00  0.00    +0.000 C 
ENDBRANCH   7   8
ENDBRANCH   6   7
ENDBRANCH   4   6
ENDBRANCH   1   3
BRANCH   1  14
ATOM     14  N   UNL     1       1.664   8.890  20.007  0.00  0.00    +0.000 NA
ATOM     15  H   UNL     1       1.448   9.747  19.487  0.00  0.00    +0.000 HD
BRANCH  14  16
ATOM     16  S   UNL     1       0.713   8.815  21.388  0.00  0.00    +0.000 S 
ATOM     17  O   UNL     1      -0.172   7.697  21.154  0.00  0.00    +0.000 OA
ATOM     18  O   UNL     1       1.551   8.828  22.574  0.00  0.00    +0.000 OA
BRANCH  16  19
ATOM     19  C   UNL     1      -0.277  10.289  21.324  0.00  0.00    +0.000 A 
ATOM     20  C   UNL     1      -0.468  11.001  22.521  0.00  0.00    +0.000 A 
ATOM     21  C   UNL     1      -1.253  12.148  22.533  0.00  0.00    +0.000 A 
ATOM     22  C   UNL     1      -1.904  12.529  21.366  0.00  0.00    +0.000 A 
ATOM     23  C   UNL     1      -1.749  11.782  20.186  0.00  0.00    +0.000 A 
ATOM     24  C   UNL     1      -2.534  12.082  19.066  0.00  0.00    +0.000 A 
ATOM     25  C   UNL     1      -2.367  11.370  17.890  0.00  0.00    +0.000 A 
ATOM     26  C   UNL     1      -1.350  10.444  17.843  0.00  0.00    +0.000 A 
ATOM     27  N   UNL     1      -0.632  10.070  18.925  0.00  0.00    +0.000 NA
ATOM     28  C   UNL     1      -0.851  10.689  20.116  0.00  0.00    +0.000 A 
ENDBRANCH  16  19
ENDBRANCH  14  16
ENDBRANCH   1  14
BRANCH   1  29
ATOM     29  C   UNL     1       2.761   6.638  19.843  0.00  0.00    +0.000 C 
BRANCH  29  30
ATOM     30  C   UNL     1       2.172   5.254  19.947  0.00  0.00    +0.000 A 
ATOM     31  C   UNL     1       2.050   4.611  21.184  0.00  0.00    +0.000 A 
ATOM     32  C   UNL     1       1.550   3.310  21.252  0.00  0.00    +0.000 A 
ATOM     33  C   UNL     1       1.164   2.646  20.088  0.00  0.00    +0.000 A 
ATOM     34  C   UNL     1       1.253   3.291  18.857  0.00  0.00    +0.000 A 
ATOM     35  C   UNL     1       1.750   4.591  18.787  0.00  0.00    +0.000 A 
ENDBRANCH  29  30
ENDBRANCH   1  29
TORSDOF 9
ENDMDL
MODEL 9
REMARK VINA RESULT:      -8.6      6.021     10.087
REMARK  Name = 
REMARK  9 active torsions:
REMARK  status: ('A' for Active; 'I' for Inactive)
REMARK    1  A    between atoms: C_2  and  C_12
REMARK    2  A    between atoms: N_3  and  C_4
REMARK    3  A    between atoms: C_4  and  C_5
REMARK    4  A    between atoms: C_5  and  C_6
REMARK    5  A    between atoms: C_12  and  C_13
REMARK    6  A    between atoms: C_12  and  N_20
REMARK    7  A    between atoms: C_13  and  C_14
REMARK    8  A    between atoms: N_20  and  S_21
REMARK    9  A    between atoms: S_21  and  C_24
REMARK                            x       y       z     vdW  Elec       q    Type
REMARK                         _______ _______ _______ _____ _____    ______ ____
ROOT
ATOM      1  C   UNL     1       1.067   9.553  19.635  0.00  0.00    +0.000 C 
ENDROOT
BRANCH   1   3
ATOM      2  O   UNL     1       1.932   7.503  20.577  0.00  0.00    +0.000 OA
ATOM      3  C   UNL     1       1.803   8.210  19.579  0.00  0.00    +0.000 C 
ATOM      4  N   UNL     1       2.274   7.870  18.327  0.00  0.00    +0.000 N 
ATOM      5  H   UNL     1       2.519   8.660  17.732  0.00  0.00    +0.000 HD
BRANCH   4   6
ATOM      6  C   UNL     1       3.051   6.659  18.139  0.00  0.00    +0.000 C 
BRANCH   6   7
ATOM      7  C   UNL     1       2.142   5.450  17.895  0.00  0.00    +0.000 C 
BRANCH   7   8
ATOM      8  C   UNL     1       2.202   4.404  18.990  0.00  0.00    +0.000 C 
ATOM      9  C   UNL     1       1.222   4.285  19.906  0.00  0.00    +0.000 C 
ATOM     10  C   UNL     1       1.275   3.330  21.066  0.00  0.00    +0.000 C 
ATOM     11  C   UNL     1       2.675   2.771  21.314  0.00  0.00    +0.000 C 
ATOM     12  C   UNL     1       3.328   2.351  20.004  0.00  0.00    +0.000 C 
ATOM     13  C   UNL     1       3.441   3.534  19.036  0.00  0.00    +0.000 C 
ENDBRANCH   7   8
ENDBRANCH   6   7
ENDBRANCH   4   6
ENDBRANCH   1   3
BRANCH   1  14
ATOM     14  N   UNL     1      -0.084   9.444  20.568  0.00  0.00    +0.000 NA
ATOM     15  H   UNL     1      -0.610   8.567  20.498  0.00  0.00    +0.000 HD
BRANCH  14  16
ATOM     16  S   UNL     1       0.107   9.857  22.185  0.00  0.00    +0.000 S 
ATOM     17  O   UNL     1      -0.733   8.921  22.895  0.00  0.00    +0.000 OA
ATOM     18  O   UNL     1       1.518   9.946  22.515  0.00  0.00    +0.000 OA
BRANCH  16  19
ATOM     19  C   UNL     1      -0.655  11.456  22.325  0.00  0.00    +0.000 A 
ATOM     20  C   UNL     1      -1.887  11.537  22.996  0.00  0.00    +0.000 A 
ATOM     21  C   UNL     1      -2.539  12.759  23.113  0.00  0.00    +0.000 A 
ATOM     22  C   UNL     1      -1.992  13.875  22.492  0.00  0.00    +0.000 A 
ATOM     23  C   UNL     1      -0.786  13.775  21.779  0.00  0.00    +0.000 A 
ATOM     24  C   UNL     1      -0.332  14.864  21.026  0.00  0.00    +0.000 A 
ATOM     25  C   UNL     1       0.871  14.785  20.344  0.00  0.00    +0.000 A 
ATOM     26  C   UNL     1       1.629  13.650  20.517  0.00  0.00    +0.000 A 
ATOM     27  N   UNL     1       1.186  12.549  21.165  0.00  0.00    +0.000 NA
ATOM     28  C   UNL     1      -0.038  12.573  21.758  0.00  0.00    +0.000 A 
ENDBRANCH  16  19
ENDBRANCH  14  16
ENDBRANCH   1  14
BRANCH   1  29
ATOM     29  C   UNL     1       0.601   9.828  18.183  0.00  0.00    +0.000 C 
BRANCH  29  30
ATOM     30  C   UNL     1      -0.813  10.335  18.065  0.00  0.00    +0.000 A 
ATOM     31  C   UNL     1      -1.779   9.625  17.341  0.00  0.00    +0.000 A 
ATOM     32  C   UNL     1      -3.069  10.139  17.201  0.00  0.00    +0.000 A 
ATOM     33  C   UNL     1      -3.404  11.360  17.786  0.00  0.00    +0.000 A 
ATOM     34  C   UNL     1      -2.458  12.057  18.534  0.00  0.00    +0.000 A 
ATOM     35  C   UNL     1      -1.170  11.544  18.677  0.00  0.00    +0.000 A 
ENDBRANCH  29  30
ENDBRANCH   1  29
TORSDOF 9
ENDMDL
