MODEL 1
REMARK VINA RESULT:      -6.8      0.000      0.000
REMARK  Name = 
REMARK  9 active torsions:
REMARK  status: ('A' for Active; 'I' for Inactive)
REMARK    1  A    between atoms: C_1  and  O_2
REMARK    2  A    between atoms: O_2  and  C_3
REMARK    3  A    between atoms: C_6  and  C_7
REMARK    4  A    between atoms: C_7  and  O_9
REMARK    5  A    between atoms: O_9  and  C_10
REMARK    6  A    between atoms: C_10  and  C_11
REMARK    7  A    between atoms: C_11  and  C_13
REMARK    8  A    between atoms: C_18  and  O_19
REMARK    9  A    between atoms: O_19  and  C_20
REMARK                            x       y       z     vdW  Elec       q    Type
REMARK                         _______ _______ _______ _____ _____    ______ ____
ROOT
ATOM      1  C   UNL     1       2.923   3.801  17.620  0.00  0.00    +0.000 C 
ATOM      2  O   UNL     1       2.130   3.048  17.083  0.00  0.00    +0.000 OA
ENDROOT
BRANCH   1   6
ATOM      3  C   UNL     1       1.913   7.105  20.197  0.00  0.00    +0.000 A 
ATOM      4  C   UNL     1       2.468   7.326  18.938  0.00  0.00    +0.000 A 
ATOM      5  C   UNL     1       2.799   6.250  18.113  0.00  0.00    +0.000 A 
ATOM      6  C   UNL     1       2.581   4.929  18.540  0.00  0.00    +0.000 A 
ATOM      7  C   UNL     1       2.014   4.698  19.809  0.00  0.00    +0.000 A 
ATOM      8  C   UNL     1       1.693   5.795  20.629  0.00  0.00    +0.000 A 
BRANCH   3  10
ATOM      9  C   UNL     1       0.284   8.423  21.337  0.00  0.00    +0.000 C 
ATOM     10  O   UNL     1       1.626   8.245  20.900  0.00  0.00    +0.000 OA
ENDBRANCH   3  10
BRANCH   7  11
ATOM     11  O   UNL     1       1.828   3.394  20.189  0.00  0.00    +0.000 OA
ATOM     12  C   UNL     1       2.470   2.940  21.373  0.00  0.00    +0.000 C 
ENDBRANCH   7  11
ENDBRANCH   1   6
BRANCH   1  13
ATOM     13  O   UNL     1       4.276   3.739  17.472  0.00  0.00    +0.000 OA
BRANCH  13  14
ATOM     14  C   UNL     1       4.742   3.932  16.132  0.00  0.00    +0.000 C 
BRANCH  14  15
ATOM     15  C   UNL     1       6.250   4.202  16.054  0.00  0.00    +0.000 C 
ATOM     16  O   UNL     1       6.928   3.805  15.103  0.00  0.00    +0.000 OA
BRANCH  15  17
ATOM     17  C   UNL     1       6.848   5.002  17.113  0.00  0.00    +0.000 A 
ATOM     18  C   UNL     1       7.188   6.342  17.183  0.00  0.00    +0.000 A 
ATOM     19  C   UNL     1       7.775   6.580  18.453  0.00  0.00    +0.000 A 
ATOM     20  C   UNL     1       7.772   5.385  19.132  0.00  0.00    +0.000 A 
ATOM     21  N   UNL     1       7.203   4.442  18.321  0.00  0.00    +0.000 N 
ATOM     22  H   UNL     1       7.060   3.465  18.552  0.00  0.00    +0.000 HD
ENDBRANCH  15  17
ENDBRANCH  14  15
ENDBRANCH  13  14
ENDBRANCH   1  13
TORSDOF 7
ENDMDL
MODEL 2
REMARK VINA RESULT:      -6.8      2.176      6.470
REMARK  Name = 
REMARK  9 active torsions:
REMARK  status: ('A' for Active; 'I' for Inactive)
REMARK    1  A    between atoms: C_1  and  O_2
REMARK    2  A    between atoms: O_2  and  C_3
REMARK    3  A    between atoms: C_6  and  C_7
REMARK    4  A    between atoms: C_7  and  O_9
REMARK    5  A    between atoms: O_9  and  C_10
REMARK    6  A    between atoms: C_10  and  C_11
REMARK    7  A    between atoms: C_11  and  C_13
REMARK    8  A    between atoms: C_18  and  O_19
REMARK    9  A    between atoms: O_19  and  C_20
REMARK                            x       y       z     vdW  Elec       q    Type
REMARK                         _______ _______ _______ _____ _____    ______ ____
ROOT
ATOM      1  C   UNL     1       4.762   3.858  18.449  0.00  0.00    +0.000 C 
ATOM      2  O   UNL     1       4.246   2.780  18.689  0.00  0.00    +0.000 OA
ENDROOT
BRANCH   1   6
ATOM      3  C   UNL     1       6.896   4.911  14.855  0.00  0.00    +0.000 A 
ATOM      4  C   UNL     1       5.556   4.532  14.805  0.00  0.00    +0.000 A 
ATOM      5  C   UNL     1       4.875   4.186  15.973  0.00  0.00    +0.000 A 
ATOM      6  C   UNL     1       5.530   4.210  17.215  0.00  0.00    +0.000 A 
ATOM      7  C   UNL     1       6.884   4.597  17.275  0.00  0.00    +0.000 A 
ATOM      8  C   UNL     1       7.555   4.937  16.087  0.00  0.00    +0.000 A 
BRANCH   3  10
ATOM      9  C   UNL     1       7.133   4.390  12.539  0.00  0.00    +0.000 C 
ATOM     10  O   UNL     1       7.442   5.234  13.642  0.00  0.00    +0.000 OA
ENDBRANCH   3  10
BRANCH   7  11
ATOM     11  O   UNL     1       7.486   4.597  18.507  0.00  0.00    +0.000 OA
ATOM     12  C   UNL     1       7.953   5.834  19.027  0.00  0.00    +0.000 C 
ENDBRANCH   7  11
ENDBRANCH   1   6
BRANCH   1  13
ATOM     13  O   UNL     1       4.722   4.939  19.276  0.00  0.00    +0.000 OA
BRANCH  13  14
ATOM     14  C   UNL     1       3.769   5.942  18.906  0.00  0.00    +0.000 C 
BRANCH  14  15
ATOM     15  C   UNL     1       2.539   5.967  19.823  0.00  0.00    +0.000 C 
ATOM     16  O   UNL     1       2.005   7.028  20.156  0.00  0.00    +0.000 OA
BRANCH  15  17
ATOM     17  C   UNL     1       1.980   4.689  20.236  0.00  0.00    +0.000 A 
ATOM     18  C   UNL     1       2.064   3.980  21.423  0.00  0.00    +0.000 A 
ATOM     19  C   UNL     1       1.347   2.766  21.260  0.00  0.00    +0.000 A 
ATOM     20  C   UNL     1       0.833   2.765  19.984  0.00  0.00    +0.000 A 
ATOM     21  N   UNL     1       1.212   3.932  19.379  0.00  0.00    +0.000 N 
ATOM     22  H   UNL     1       0.978   4.215  18.433  0.00  0.00    +0.000 HD
ENDBRANCH  15  17
ENDBRANCH  14  15
ENDBRANCH  13  14
ENDBRANCH   1  13
TORSDOF 7
ENDMDL
MODEL 3
REMARK VINA RESULT:      -6.7      1.904      6.291
REMARK  Name = 
REMARK  9 active torsions:
REMARK  status: ('A' for Active; 'I' for Inactive)
REMARK    1  A    between atoms: C_1  and  O_2
REMARK    2  A    between atoms: O_2  and  C_3
REMARK    3  A    between atoms: C_6  and  C_7
REMARK    4  A    between atoms: C_7  and  O_9
REMARK    5  A    between atoms: O_9  and  C_10
REMARK    6  A    between atoms: C_10  and  C_11
REMARK    7  A    between atoms: C_11  and  C_13
REMARK    8  A    between atoms: C_18  and  O_19
REMARK    9  A    between atoms: O_19  and  C_20
REMARK                            x       y       z     vdW  Elec       q    Type
REMARK                         _______ _______ _______ _____ _____    ______ ____
ROOT
ATOM      1  C   UNL     1       3.926   3.824  17.652  0.00  0.00    +0.000 C 
ATOM      2  O   UNL     1       3.832   2.784  18.282  0.00  0.00    +0.000 OA
ENDROOT
BRANCH   1   6
ATOM      3  C   UNL     1       7.138   4.986  15.022  0.00  0.00    +0.000 A 
ATOM      4  C   UNL     1       5.887   4.640  14.513  0.00  0.00    +0.000 A 
ATOM      5  C   UNL     1       4.855   4.258  15.372  0.00  0.00    +0.000 A 
ATOM      6  C   UNL     1       5.062   4.213  16.761  0.00  0.00    +0.000 A 
ATOM      7  C   UNL     1       6.321   4.566  17.284  0.00  0.00    +0.000 A 
ATOM      8  C   UNL     1       7.351   4.943  16.403  0.00  0.00    +0.000 A 
BRANCH   3  10
ATOM      9  C   UNL     1       7.709   5.142  12.712  0.00  0.00    +0.000 C 
ATOM     10  O   UNL     1       8.057   5.350  14.076  0.00  0.00    +0.000 OA
ENDBRANCH   3  10
BRANCH   7  11
ATOM     11  O   UNL     1       6.481   4.498  18.644  0.00  0.00    +0.000 OA
ATOM     12  C   UNL     1       7.192   5.545  19.291  0.00  0.00    +0.000 C 
ENDBRANCH   7  11
ENDBRANCH   1   6
BRANCH   1  13
ATOM     13  O   UNL     1       2.996   4.819  17.652  0.00  0.00    +0.000 OA
BRANCH  13  14
ATOM     14  C   UNL     1       3.266   5.893  18.559  0.00  0.00    +0.000 C 
BRANCH  14  15
ATOM     15  C   UNL     1       2.327   5.905  19.772  0.00  0.00    +0.000 C 
ATOM     16  O   UNL     1       1.783   6.944  20.156  0.00  0.00    +0.000 OA
BRANCH  15  17
ATOM     17  C   UNL     1       2.045   4.633  20.420  0.00  0.00    +0.000 A 
ATOM     18  C   UNL     1       0.879   3.898  20.552  0.00  0.00    +0.000 A 
ATOM     19  C   UNL     1       1.176   2.740  21.317  0.00  0.00    +0.000 A 
ATOM     20  C   UNL     1       2.514   2.789  21.627  0.00  0.00    +0.000 A 
ATOM     21  N   UNL     1       3.032   3.928  21.074  0.00  0.00    +0.000 N 
ATOM     22  H   UNL     1       3.997   4.233  21.132  0.00  0.00    +0.000 HD
ENDBRANCH  15  17
ENDBRANCH  14  15
ENDBRANCH  13  14
ENDBRANCH   1  13
TORSDOF 7
ENDMDL
MODEL 4
REMARK VINA RESULT:      -6.7      1.924      2.734
REMARK  Name = 
REMARK  9 active torsions:
REMARK  status: ('A' for Active; 'I' for Inactive)
REMARK    1  A    between atoms: C_1  and  O_2
REMARK    2  A    between atoms: O_2  and  C_3
REMARK    3  A    between atoms: C_6  and  C_7
REMARK    4  A    between atoms: C_7  and  O_9
REMARK    5  A    between atoms: O_9  and  C_10
REMARK    6  A    between atoms: C_10  and  C_11
REMARK    7  A    between atoms: C_11  and  C_13
REMARK    8  A    between atoms: C_18  and  O_19
REMARK    9  A    between atoms: O_19  and  C_20
REMARK                            x       y       z     vdW  Elec       q    Type
REMARK                         _______ _______ _______ _____ _____    ______ ____
ROOT
ATOM      1  C   UNL     1       3.701   5.835  17.795  0.00  0.00    +0.000 C 
ATOM      2  O   UNL     1       3.281   4.779  17.356  0.00  0.00    +0.000 OA
ENDROOT
BRANCH   1   6
ATOM      3  C   UNL     1       1.318   8.911  19.649  0.00  0.00    +0.000 A 
ATOM      4  C   UNL     1       1.806   9.070  18.354  0.00  0.00    +0.000 A 
ATOM      5  C   UNL     1       2.583   8.072  17.764  0.00  0.00    +0.000 A 
ATOM      6  C   UNL     1       2.888   6.894  18.468  0.00  0.00    +0.000 A 
ATOM      7  C   UNL     1       2.393   6.724  19.776  0.00  0.00    +0.000 A 
ATOM      8  C   UNL     1       1.617   7.743  20.356  0.00  0.00    +0.000 A 
BRANCH   3  10
ATOM      9  C   UNL     1       0.958  11.268  19.716  0.00  0.00    +0.000 C 
ATOM     10  O   UNL     1       0.562   9.958  20.105  0.00  0.00    +0.000 OA
ENDBRANCH   3  10
BRANCH   7  11
ATOM     11  O   UNL     1       2.723   5.564  20.429  0.00  0.00    +0.000 OA
ATOM     12  C   UNL     1       1.695   4.613  20.670  0.00  0.00    +0.000 C 
ENDBRANCH   7  11
ENDBRANCH   1   6
BRANCH   1  13
ATOM     13  O   UNL     1       5.004   6.232  17.750  0.00  0.00    +0.000 OA
BRANCH  13  14
ATOM     14  C   UNL     1       5.891   5.474  18.578  0.00  0.00    +0.000 C 
BRANCH  14  15
ATOM     15  C   UNL     1       7.009   4.784  17.785  0.00  0.00    +0.000 C 
ATOM     16  O   UNL     1       8.043   4.394  18.334  0.00  0.00    +0.000 OA
BRANCH  15  17
ATOM     17  C   UNL     1       6.781   4.543  16.368  0.00  0.00    +0.000 A 
ATOM     18  C   UNL     1       7.368   5.072  15.231  0.00  0.00    +0.000 A 
ATOM     19  C   UNL     1       6.728   4.500  14.101  0.00  0.00    +0.000 A 
ATOM     20  C   UNL     1       5.774   3.628  14.571  0.00  0.00    +0.000 A 
ATOM     21  N   UNL     1       5.820   3.654  15.938  0.00  0.00    +0.000 N 
ATOM     22  H   UNL     1       5.234   3.111  16.563  0.00  0.00    +0.000 HD
ENDBRANCH  15  17
ENDBRANCH  14  15
ENDBRANCH  13  14
ENDBRANCH   1  13
TORSDOF 7
ENDMDL
MODEL 5
REMARK VINA RESULT:      -6.7      3.038      4.943
REMARK  Name = 
REMARK  9 active torsions:
REMARK  status: ('A' for Active; 'I' for Inactive)
REMARK    1  A    between atoms: C_1  and  O_2
REMARK    2  A    between atoms: O_2  and  C_3
REMARK    3  A    between atoms: C_6  and  C_7
REMARK    4  A    between atoms: C_7  and  O_9
REMARK    5  A    between atoms: O_9  and  C_10
REMARK    6  A    between atoms: C_10  and  C_11
REMARK    7  A    between atoms: C_11  and  C_13
REMARK    8  A    between atoms: C_18  and  O_19
REMARK    9  A    between atoms: O_19  and  C_20
REMARK                            x       y       z     vdW  Elec       q    Type
REMARK                         _______ _______ _______ _____ _____    ______ ____
ROOT
ATOM      1  C   UNL     1       5.507   5.978  16.452  0.00  0.00    +0.000 C 
ATOM      2  O   UNL     1       6.032   7.072  16.572  0.00  0.00    +0.000 OA
ENDROOT
BRANCH   1   6
ATOM      3  C   UNL     1       3.524   3.703  19.529  0.00  0.00    +0.000 A 
ATOM      4  C   UNL     1       2.791   4.368  18.549  0.00  0.00    +0.000 A 
ATOM      5  C   UNL     1       3.441   5.109  17.560  0.00  0.00    +0.000 A 
ATOM      6  C   UNL     1       4.844   5.197  17.541  0.00  0.00    +0.000 A 
ATOM      7  C   UNL     1       5.592   4.522  18.525  0.00  0.00    +0.000 A 
ATOM      8  C   UNL     1       4.919   3.786  19.517  0.00  0.00    +0.000 A 
BRANCH   3  10
ATOM      9  C   UNL     1       1.765   3.727  21.140  0.00  0.00    +0.000 C 
ATOM     10  O   UNL     1       2.766   3.006  20.431  0.00  0.00    +0.000 OA
ENDBRANCH   3  10
BRANCH   7  11
ATOM     11  O   UNL     1       6.956   4.644  18.474  0.00  0.00    +0.000 OA
ATOM     12  C   UNL     1       7.587   5.531  19.389  0.00  0.00    +0.000 C 
ENDBRANCH   7  11
ENDBRANCH   1   6
BRANCH   1  13
ATOM     13  O   UNL     1       5.434   5.275  15.288  0.00  0.00    +0.000 OA
BRANCH  13  14
ATOM     14  C   UNL     1       6.624   4.557  14.945  0.00  0.00    +0.000 C 
BRANCH  14  15
ATOM     15  C   UNL     1       6.933   4.588  13.443  0.00  0.00    +0.000 C 
ATOM     16  O   UNL     1       7.828   5.302  12.983  0.00  0.00    +0.000 OA
BRANCH  15  17
ATOM     17  C   UNL     1       6.175   3.695  12.580  0.00  0.00    +0.000 A 
ATOM     18  C   UNL     1       4.879   3.752  12.094  0.00  0.00    +0.000 A 
ATOM     19  C   UNL     1       4.650   2.586  11.318  0.00  0.00    +0.000 A 
ATOM     20  C   UNL     1       5.810   1.849  11.339  0.00  0.00    +0.000 A 
ATOM     21  N   UNL     1       6.726   2.529  12.094  0.00  0.00    +0.000 N 
ATOM     22  H   UNL     1       7.677   2.233  12.287  0.00  0.00    +0.000 HD
ENDBRANCH  15  17
ENDBRANCH  14  15
ENDBRANCH  13  14
ENDBRANCH   1  13
TORSDOF 7
ENDMDL
MODEL 6
REMARK VINA RESULT:      -6.6      1.451      2.285
REMARK  Name = 
REMARK  9 active torsions:
REMARK  status: ('A' for Active; 'I' for Inactive)
REMARK    1  A    between atoms: C_1  and  O_2
REMARK    2  A    between atoms: O_2  and  C_3
REMARK    3  A    between atoms: C_6  and  C_7
REMARK    4  A    between atoms: C_7  and  O_9
REMARK    5  A    between atoms: O_9  and  C_10
REMARK    6  A    between atoms: C_10  and  C_11
REMARK    7  A    between atoms: C_11  and  C_13
REMARK    8  A    between atoms: C_18  and  O_19
REMARK    9  A    between atoms: O_19  and  C_20
REMARK                            x       y       z     vdW  Elec       q    Type
REMARK                         _______ _______ _______ _____ _____    ______ ____
ROOT
ATOM      1  C   UNL     1       3.476   4.214  17.974  0.00  0.00    +0.000 C 
ATOM      2  O   UNL     1       2.898   3.589  17.102  0.00  0.00    +0.000 OA
ENDROOT
BRANCH   1   6
ATOM      3  C   UNL     1       1.869   7.628  20.058  0.00  0.00    +0.000 A 
ATOM      4  C   UNL     1       2.393   7.757  18.774  0.00  0.00    +0.000 A 
ATOM      5  C   UNL     1       2.918   6.648  18.109  0.00  0.00    +0.000 A 
ATOM      6  C   UNL     1       2.929   5.385  18.726  0.00  0.00    +0.000 A 
ATOM      7  C   UNL     1       2.396   5.245  20.022  0.00  0.00    +0.000 A 
ATOM      8  C   UNL     1       1.877   6.376  20.679  0.00  0.00    +0.000 A 
BRANCH   3  10
ATOM      9  C   UNL     1       0.112   8.727  21.238  0.00  0.00    +0.000 C 
ATOM     10  O   UNL     1       1.378   8.789  20.592  0.00  0.00    +0.000 OA
ENDBRANCH   3  10
BRANCH   7  11
ATOM     11  O   UNL     1       2.436   3.997  20.589  0.00  0.00    +0.000 OA
ATOM     12  C   UNL     1       1.212   3.294  20.755  0.00  0.00    +0.000 C 
ENDBRANCH   7  11
ENDBRANCH   1   6
BRANCH   1  13
ATOM     13  O   UNL     1       4.734   3.943  18.420  0.00  0.00    +0.000 OA
BRANCH  13  14
ATOM     14  C   UNL     1       5.661   5.028  18.296  0.00  0.00    +0.000 C 
BRANCH  14  15
ATOM     15  C   UNL     1       6.904   4.664  17.474  0.00  0.00    +0.000 C 
ATOM     16  O   UNL     1       7.989   4.432  18.014  0.00  0.00    +0.000 OA
BRANCH  15  17
ATOM     17  C   UNL     1       6.746   4.537  16.034  0.00  0.00    +0.000 A 
ATOM     18  C   UNL     1       5.893   3.771  15.257  0.00  0.00    +0.000 A 
ATOM     19  C   UNL     1       6.201   4.018  13.894  0.00  0.00    +0.000 A 
ATOM     20  C   UNL     1       7.226   4.933  13.867  0.00  0.00    +0.000 A 
ATOM     21  N   UNL     1       7.542   5.248  15.160  0.00  0.00    +0.000 N 
ATOM     22  H   UNL     1       8.259   5.901  15.456  0.00  0.00    +0.000 HD
ENDBRANCH  15  17
ENDBRANCH  14  15
ENDBRANCH  13  14
ENDBRANCH   1  13
TORSDOF 7
ENDMDL
MODEL 7
REMARK VINA RESULT:      -6.5      1.044      1.164
REMARK  Name = 
REMARK  9 active torsions:
REMARK  status: ('A' for Active; 'I' for Inactive)
REMARK    1  A    between atoms: C_1  and  O_2
REMARK    2  A    between atoms: O_2  and  C_3
REMARK    3  A    between atoms: C_6  and  C_7
REMARK    4  A    between atoms: C_7  and  O_9
REMARK    5  A    between atoms: O_9  and  C_10
REMARK    6  A    between atoms: C_10  and  C_11
REMARK    7  A    between atoms: C_11  and  C_13
REMARK    8  A    between atoms: C_18  and  O_19
REMARK    9  A    between atoms: O_19  and  C_20
REMARK                            x       y       z     vdW  Elec       q    Type
REMARK                         _______ _______ _______ _____ _____    ______ ____
ROOT
ATOM      1  C   UNL     1       3.227   4.092  17.529  0.00  0.00    +0.000 C 
ATOM      2  O   UNL     1       2.503   3.372  16.863  0.00  0.00    +0.000 OA
ENDROOT
BRANCH   1   6
ATOM      3  C   UNL     1       1.894   7.226  20.172  0.00  0.00    +0.000 A 
ATOM      4  C   UNL     1       2.333   7.518  18.882  0.00  0.00    +0.000 A 
ATOM      5  C   UNL     1       2.770   6.498  18.035  0.00  0.00    +0.000 A 
ATOM      6  C   UNL     1       2.777   5.162  18.471  0.00  0.00    +0.000 A 
ATOM      7  C   UNL     1       2.329   4.858  19.772  0.00  0.00    +0.000 A 
ATOM      8  C   UNL     1       1.898   5.900  20.613  0.00  0.00    +0.000 A 
BRANCH   3  10
ATOM      9  C   UNL     1       0.895   9.391  20.175  0.00  0.00    +0.000 C 
ATOM     10  O   UNL     1       1.484   8.314  20.894  0.00  0.00    +0.000 OA
ENDBRANCH   3  10
BRANCH   7  11
ATOM     11  O   UNL     1       2.362   3.543  20.159  0.00  0.00    +0.000 OA
ATOM     12  C   UNL     1       1.147   2.933  20.574  0.00  0.00    +0.000 C 
ENDBRANCH   7  11
ENDBRANCH   1   6
BRANCH   1  13
ATOM     13  O   UNL     1       4.588   4.039  17.528  0.00  0.00    +0.000 OA
BRANCH  13  14
ATOM     14  C   UNL     1       5.178   3.798  16.247  0.00  0.00    +0.000 C 
BRANCH  14  15
ATOM     15  C   UNL     1       6.089   4.941  15.781  0.00  0.00    +0.000 C 
ATOM     16  O   UNL     1       6.175   5.253  14.590  0.00  0.00    +0.000 OA
BRANCH  15  17
ATOM     17  C   UNL     1       6.804   5.692  16.801  0.00  0.00    +0.000 A 
ATOM     18  C   UNL     1       7.491   5.295  17.936  0.00  0.00    +0.000 A 
ATOM     19  C   UNL     1       7.968   6.460  18.591  0.00  0.00    +0.000 A 
ATOM     20  C   UNL     1       7.571   7.540  17.839  0.00  0.00    +0.000 A 
ATOM     21  N   UNL     1       6.879   7.068  16.758  0.00  0.00    +0.000 N 
ATOM     22  H   UNL     1       6.464   7.631  16.023  0.00  0.00    +0.000 HD
ENDBRANCH  15  17
ENDBRANCH  14  15
ENDBRANCH  13  14
ENDBRANCH   1  13
TORSDOF 7
ENDMDL
MODEL 8
REMARK VINA RESULT:      -6.5      2.168      6.687
REMARK  Name = 
REMARK  9 active torsions:
REMARK  status: ('A' for Active; 'I' for Inactive)
REMARK    1  A    between atoms: C_1  and  O_2
REMARK    2  A    between atoms: O_2  and  C_3
REMARK    3  A    between atoms: C_6  and  C_7
REMARK    4  A    between atoms: C_7  and  O_9
REMARK    5  A    between atoms: O_9  and  C_10
REMARK    6  A    between atoms: C_10  and  C_11
REMARK    7  A    between atoms: C_11  and  C_13
REMARK    8  A    between atoms: C_18  and  O_19
REMARK    9  A    between atoms: O_19  and  C_20
REMARK                            x       y       z     vdW  Elec       q    Type
REMARK                         _______ _______ _______ _____ _____    ______ ____
ROOT
ATOM      1  C   UNL     1       4.809   5.076  18.379  0.00  0.00    +0.000 C 
ATOM      2  O   UNL     1       5.388   4.966  19.446  0.00  0.00    +0.000 OA
ENDROOT
BRANCH   1   6
ATOM      3  C   UNL     1       6.527   4.663  14.447  0.00  0.00    +0.000 A 
ATOM      4  C   UNL     1       5.806   3.620  15.024  0.00  0.00    +0.000 A 
ATOM      5  C   UNL     1       5.259   3.759  16.301  0.00  0.00    +0.000 A 
ATOM      6  C   UNL     1       5.431   4.952  17.024  0.00  0.00    +0.000 A 
ATOM      7  C   UNL     1       6.154   6.013  16.445  0.00  0.00    +0.000 A 
ATOM      8  C   UNL     1       6.703   5.852  15.160  0.00  0.00    +0.000 A 
BRANCH   3  10
ATOM      9  C   UNL     1       6.294   3.440  12.412  0.00  0.00    +0.000 C 
ATOM     10  O   UNL     1       7.000   4.400  13.190  0.00  0.00    +0.000 OA
ENDBRANCH   3  10
BRANCH   7  11
ATOM     11  O   UNL     1       6.305   7.154  17.191  0.00  0.00    +0.000 OA
ATOM     12  C   UNL     1       7.614   7.513  17.612  0.00  0.00    +0.000 C 
ENDBRANCH   7  11
ENDBRANCH   1   6
BRANCH   1  13
ATOM     13  O   UNL     1       3.478   5.330  18.239  0.00  0.00    +0.000 OA
BRANCH  13  14
ATOM     14  C   UNL     1       3.044   6.575  18.795  0.00  0.00    +0.000 C 
BRANCH  14  15
ATOM     15  C   UNL     1       2.158   6.402  20.036  0.00  0.00    +0.000 C 
ATOM     16  O   UNL     1       1.631   7.369  20.592  0.00  0.00    +0.000 OA
BRANCH  15  17
ATOM     17  C   UNL     1       1.904   5.047  20.499  0.00  0.00    +0.000 A 
ATOM     18  C   UNL     1       0.879   4.153  20.238  0.00  0.00    +0.000 A 
ATOM     19  C   UNL     1       1.121   2.976  20.992  0.00  0.00    +0.000 A 
ATOM     20  C   UNL     1       2.290   3.171  21.688  0.00  0.00    +0.000 A 
ATOM     21  N   UNL     1       2.760   4.417  21.378  0.00  0.00    +0.000 N 
ATOM     22  H   UNL     1       3.609   4.840  21.737  0.00  0.00    +0.000 HD
ENDBRANCH  15  17
ENDBRANCH  14  15
ENDBRANCH  13  14
ENDBRANCH   1  13
TORSDOF 7
ENDMDL
MODEL 9
REMARK VINA RESULT:      -6.5      2.319      4.225
REMARK  Name = 
REMARK  9 active torsions:
REMARK  status: ('A' for Active; 'I' for Inactive)
REMARK    1  A    between atoms: C_1  and  O_2
REMARK    2  A    between atoms: O_2  and  C_3
REMARK    3  A    between atoms: C_6  and  C_7
REMARK    4  A    between atoms: C_7  and  O_9
REMARK    5  A    between atoms: O_9  and  C_10
REMARK    6  A    between atoms: C_10  and  C_11
REMARK    7  A    between atoms: C_11  and  C_13
REMARK    8  A    between atoms: C_18  and  O_19
REMARK    9  A    between atoms: O_19  and  C_20
REMARK                            x       y       z     vdW  Elec       q    Type
REMARK                         _______ _______ _______ _____ _____    ______ ____
ROOT
ATOM      1  C   UNL     1       5.035   6.759  16.640  0.00  0.00    +0.000 C 
ATOM      2  O   UNL     1       4.930   7.165  15.496  0.00  0.00    +0.000 OA
ENDROOT
BRANCH   1   6
ATOM      3  C   UNL     1       2.124   4.462  18.838  0.00  0.00    +0.000 A 
ATOM      4  C   UNL     1       3.115   3.830  18.090  0.00  0.00    +0.000 A 
ATOM      5  C   UNL     1       4.050   4.581  17.376  0.00  0.00    +0.000 A 
ATOM      6  C   UNL     1       4.003   5.986  17.397  0.00  0.00    +0.000 A 
ATOM      7  C   UNL     1       3.007   6.632  18.155  0.00  0.00    +0.000 A 
ATOM      8  C   UNL     1       2.070   5.858  18.864  0.00  0.00    +0.000 A 
BRANCH   3  10
ATOM      9  C   UNL     1       0.788   2.487  18.777  0.00  0.00    +0.000 C 
ATOM     10  O   UNL     1       1.279   3.610  19.498  0.00  0.00    +0.000 OA
ENDBRANCH   3  10
BRANCH   7  11
ATOM     11  O   UNL     1       2.992   8.003  18.139  0.00  0.00    +0.000 OA
ATOM     12  C   UNL     1       1.779   8.658  17.793  0.00  0.00    +0.000 C 
ENDBRANCH   7  11
ENDBRANCH   1   6
BRANCH   1  13
ATOM     13  O   UNL     1       6.128   6.940  17.432  0.00  0.00    +0.000 OA
BRANCH  13  14
ATOM     14  C   UNL     1       7.379   6.638  16.806  0.00  0.00    +0.000 C 
BRANCH  14  15
ATOM     15  C   UNL     1       7.521   5.158  16.430  0.00  0.00    +0.000 C 
ATOM     16  O   UNL     1       7.896   4.317  17.251  0.00  0.00    +0.000 OA
BRANCH  15  17
ATOM     17  C   UNL     1       7.134   4.764  15.083  0.00  0.00    +0.000 A 
ATOM     18  C   UNL     1       6.233   3.824  14.615  0.00  0.00    +0.000 A 
ATOM     19  C   UNL     1       6.283   3.836  13.197  0.00  0.00    +0.000 A 
ATOM     20  C   UNL     1       7.204   4.789  12.831  0.00  0.00    +0.000 A 
ATOM     21  N   UNL     1       7.705   5.349  13.973  0.00  0.00    +0.000 N 
ATOM     22  H   UNL     1       8.402   6.085  14.020  0.00  0.00    +0.000 HD
ENDBRANCH  15  17
ENDBRANCH  14  15
ENDBRANCH  13  14
ENDBRANCH   1  13
TORSDOF 7
ENDMDL
