MODEL 1
REMARK VINA RESULT:      -8.7      0.000      0.000
REMARK  Name = 
REMARK  10 active torsions:
REMARK  status: ('A' for Active; 'I' for Inactive)
REMARK    1  A    between atoms: C_1  and  C_2
REMARK    2  A    between atoms: C_3  and  C_4
REMARK    3  A    between atoms: C_7  and  C_8
REMARK    4  A    between atoms: C_9  and  N_10
REMARK    5  A    between atoms: C_12  and  C_13
REMARK    6  A    between atoms: C_12  and  C_14
REMARK    7  A    between atoms: C_14  and  N_15
REMARK    8  A    between atoms: N_15  and  C_16
REMARK    9  A    between atoms: C_16  and  C_17
REMARK   10  A    between atoms: C_17  and  C_18
REMARK                            x       y       z     vdW  Elec       q    Type
REMARK                         _______ _______ _______ _____ _____    ______ ____
ROOT
ATOM      1  C   UNL     1       2.209   4.649  21.170  0.00  0.00    +0.000 C 
ATOM      2  C   UNL     1       2.905   5.215  19.953  0.00  0.00    +0.000 A 
ATOM      3  C   UNL     1       3.933   4.511  19.282  0.00  0.00    +0.000 A 
ATOM      4  C   UNL     1       4.458   3.155  19.664  0.00  0.00    +0.000 C 
ATOM      5  C   UNL     1       4.517   5.138  18.186  0.00  0.00    +0.000 A 
ATOM      6  C   UNL     1       4.122   6.385  17.725  0.00  0.00    +0.000 A 
ATOM      7  C   UNL     1       3.121   7.104  18.362  0.00  0.00    +0.000 A 
ATOM      8  C   UNL     1       2.739   8.475  17.879  0.00  0.00    +0.000 C 
ATOM      9  C   UNL     1       2.485   6.503  19.475  0.00  0.00    +0.000 A 
ATOM     10  C   UNL     1       4.899   6.713  16.503  0.00  0.00    +0.000 C 
ATOM     11  C   UNL     1       6.064   5.723  16.669  0.00  0.00    +0.000 C 
ATOM     12  C   UNL     1       6.515   5.164  15.316  0.00  0.00    +0.000 C 
ATOM     13  O   UNL     1       5.561   4.604  17.461  0.00  0.00    +0.000 OA
ENDROOT
BRANCH   9  14
ATOM     14  N   UNL     1       1.587   7.277  20.245  0.00  0.00    +0.000 N 
ATOM     15  H   UNL     1       1.056   7.952  19.707  0.00  0.00    +0.000 HD
ATOM     16  H   UNL     1       0.986   6.736  20.855  0.00  0.00    +0.000 HD
ENDBRANCH   9  14
BRANCH  11  17
ATOM     17  C   UNL     1       7.274   6.341  17.430  0.00  0.00    +0.000 C 
BRANCH  17  18
ATOM     18  N   UNL     1       7.603   7.720  17.031  0.00  0.00    +0.000 NA
ATOM     19  H   UNL     1       6.740   8.219  16.808  0.00  0.00    +0.000 HD
BRANCH  18  20
ATOM     20  C   UNL     1       8.269   8.467  18.107  0.00  0.00    +0.000 C 
BRANCH  20  21
ATOM     21  C   UNL     1       8.184   9.988  17.934  0.00  0.00    +0.000 C 
BRANCH  21  22
ATOM     22  C   UNL     1       9.344  10.683  18.598  0.00  0.00    +0.000 A 
ATOM     23  C   UNL     1      10.417  11.147  17.826  0.00  0.00    +0.000 A 
ATOM     24  C   UNL     1      11.497  11.786  18.435  0.00  0.00    +0.000 A 
ATOM     25  C   UNL     1      11.513  11.956  19.819  0.00  0.00    +0.000 A 
ATOM     26  C   UNL     1      10.451  11.488  20.592  0.00  0.00    +0.000 A 
ATOM     27  C   UNL     1       9.369  10.851  19.986  0.00  0.00    +0.000 A 
ENDBRANCH  21  22
ENDBRANCH  20  21
ENDBRANCH  18  20
ENDBRANCH  17  18
ENDBRANCH  11  17
TORSDOF 6
ENDMDL
MODEL 2
REMARK VINA RESULT:      -8.0      0.595      1.053
REMARK  Name = 
REMARK  10 active torsions:
REMARK  status: ('A' for Active; 'I' for Inactive)
REMARK    1  A    between atoms: C_1  and  C_2
REMARK    2  A    between atoms: C_3  and  C_4
REMARK    3  A    between atoms: C_7  and  C_8
REMARK    4  A    between atoms: C_9  and  N_10
REMARK    5  A    between atoms: C_12  and  C_13
REMARK    6  A    between atoms: C_12  and  C_14
REMARK    7  A    between atoms: C_14  and  N_15
REMARK    8  A    between atoms: N_15  and  C_16
REMARK    9  A    between atoms: C_16  and  C_17
REMARK   10  A    between atoms: C_17  and  C_18
REMARK                            x       y       z     vdW  Elec       q    Type
REMARK                         _______ _______ _______ _____ _____    ______ ____
ROOT
ATOM      1  C   UNL     1       2.238   4.233  21.245  0.00  0.00    +0.000 C 
ATOM      2  C   UNL     1       2.893   4.890  20.052  0.00  0.00    +0.000 A 
ATOM      3  C   UNL     1       3.963   4.281  19.354  0.00  0.00    +0.000 A 
ATOM      4  C   UNL     1       4.576   2.949  19.684  0.00  0.00    +0.000 C 
ATOM      5  C   UNL     1       4.503   4.987  18.284  0.00  0.00    +0.000 A 
ATOM      6  C   UNL     1       4.026   6.222  17.872  0.00  0.00    +0.000 A 
ATOM      7  C   UNL     1       2.982   6.849  18.535  0.00  0.00    +0.000 A 
ATOM      8  C   UNL     1       2.510   8.210  18.105  0.00  0.00    +0.000 C 
ATOM      9  C   UNL     1       2.388   6.165  19.623  0.00  0.00    +0.000 A 
ATOM     10  C   UNL     1       4.778   6.648  16.664  0.00  0.00    +0.000 C 
ATOM     11  C   UNL     1       6.006   5.731  16.792  0.00  0.00    +0.000 C 
ATOM     12  C   UNL     1       6.490   5.254  15.419  0.00  0.00    +0.000 C 
ATOM     13  O   UNL     1       5.578   4.551  17.540  0.00  0.00    +0.000 OA
ENDROOT
BRANCH   9  14
ATOM     14  N   UNL     1       1.443   6.849  20.422  0.00  0.00    +0.000 N 
ATOM     15  H   UNL     1       0.966   6.261  21.094  0.00  0.00    +0.000 HD
ATOM     16  H   UNL     1       1.796   7.694  20.856  0.00  0.00    +0.000 HD
ENDBRANCH   9  14
BRANCH  11  17
ATOM     17  C   UNL     1       7.174   6.396  17.577  0.00  0.00    +0.000 C 
BRANCH  17  18
ATOM     18  N   UNL     1       7.662   7.656  16.989  0.00  0.00    +0.000 NA
ATOM     19  H   UNL     1       6.899   8.105  16.481  0.00  0.00    +0.000 HD
BRANCH  18  20
ATOM     20  C   UNL     1       8.121   8.605  18.011  0.00  0.00    +0.000 C 
BRANCH  20  21
ATOM     21  C   UNL     1       8.452   9.992  17.447  0.00  0.00    +0.000 C 
BRANCH  21  22
ATOM     22  C   UNL     1       9.161  10.846  18.466  0.00  0.00    +0.000 A 
ATOM     23  C   UNL     1       9.289  10.399  19.787  0.00  0.00    +0.000 A 
ATOM     24  C   UNL     1       9.940  11.186  20.737  0.00  0.00    +0.000 A 
ATOM     25  C   UNL     1      10.458  12.428  20.371  0.00  0.00    +0.000 A 
ATOM     26  C   UNL     1      10.326  12.881  19.059  0.00  0.00    +0.000 A 
ATOM     27  C   UNL     1       9.678  12.095  18.107  0.00  0.00    +0.000 A 
ENDBRANCH  21  22
ENDBRANCH  20  21
ENDBRANCH  18  20
ENDBRANCH  17  18
ENDBRANCH  11  17
TORSDOF 6
ENDMDL
MODEL 3
REMARK VINA RESULT:      -7.7      1.409      1.953
REMARK  Name = 
REMARK  10 active torsions:
REMARK  status: ('A' for Active; 'I' for Inactive)
REMARK    1  A    between atoms: C_1  and  C_2
REMARK    2  A    between atoms: C_3  and  C_4
REMARK    3  A    between atoms: C_7  and  C_8
REMARK    4  A    between atoms: C_9  and  N_10
REMARK    5  A    between atoms: C_12  and  C_13
REMARK    6  A    between atoms: C_12  and  C_14
REMARK    7  A    between atoms: C_14  and  N_15
REMARK    8  A    between atoms: N_15  and  C_16
REMARK    9  A    between atoms: C_16  and  C_17
REMARK   10  A    between atoms: C_17  and  C_18
REMARK                            x       y       z     vdW  Elec       q    Type
REMARK                         _______ _______ _______ _____ _____    ______ ____
ROOT
ATOM      1  C   UNL     1       1.725   2.438  20.491  0.00  0.00    +0.000 C 
ATOM      2  C   UNL     1       2.414   3.404  19.554  0.00  0.00    +0.000 A 
ATOM      3  C   UNL     1       3.296   2.963  18.539  0.00  0.00    +0.000 A 
ATOM      4  C   UNL     1       3.659   1.532  18.257  0.00  0.00    +0.000 C 
ATOM      5  C   UNL     1       3.889   3.942  17.749  0.00  0.00    +0.000 A 
ATOM      6  C   UNL     1       3.635   5.297  17.901  0.00  0.00    +0.000 A 
ATOM      7  C   UNL     1       2.780   5.763  18.888  0.00  0.00    +0.000 A 
ATOM      8  C   UNL     1       2.554   7.238  19.070  0.00  0.00    +0.000 C 
ATOM      9  C   UNL     1       2.139   4.805  19.710  0.00  0.00    +0.000 A 
ATOM     10  C   UNL     1       4.373   6.043  16.850  0.00  0.00    +0.000 C 
ATOM     11  C   UNL     1       5.404   4.974  16.454  0.00  0.00    +0.000 C 
ATOM     12  C   UNL     1       5.693   5.010  14.949  0.00  0.00    +0.000 C 
ATOM     13  O   UNL     1       4.806   3.676  16.755  0.00  0.00    +0.000 OA
ENDROOT
BRANCH   9  14
ATOM     14  N   UNL     1       1.401   5.254  20.829  0.00  0.00    +0.000 N 
ATOM     15  H   UNL     1       0.476   5.600  20.604  0.00  0.00    +0.000 HD
ATOM     16  H   UNL     1       1.373   4.599  21.601  0.00  0.00    +0.000 HD
ENDBRANCH   9  14
BRANCH  11  17
ATOM     17  C   UNL     1       6.730   5.089  17.262  0.00  0.00    +0.000 C 
BRANCH  17  18
ATOM     18  N   UNL     1       6.680   6.049  18.378  0.00  0.00    +0.000 NA
ATOM     19  H   UNL     1       6.686   5.537  19.261  0.00  0.00    +0.000 HD
BRANCH  18  20
ATOM     20  C   UNL     1       7.842   6.948  18.391  0.00  0.00    +0.000 C 
BRANCH  20  21
ATOM     21  C   UNL     1       7.671   8.175  17.488  0.00  0.00    +0.000 C 
BRANCH  21  22
ATOM     22  C   UNL     1       8.337   9.390  18.079  0.00  0.00    +0.000 A 
ATOM     23  C   UNL     1       9.036   9.287  19.288  0.00  0.00    +0.000 A 
ATOM     24  C   UNL     1       9.650  10.410  19.844  0.00  0.00    +0.000 A 
ATOM     25  C   UNL     1       9.559  11.642  19.197  0.00  0.00    +0.000 A 
ATOM     26  C   UNL     1       8.857  11.751  17.998  0.00  0.00    +0.000 A 
ATOM     27  C   UNL     1       8.244  10.631  17.439  0.00  0.00    +0.000 A 
ENDBRANCH  21  22
ENDBRANCH  20  21
ENDBRANCH  18  20
ENDBRANCH  17  18
ENDBRANCH  11  17
TORSDOF 6
ENDMDL
MODEL 4
REMARK VINA RESULT:      -7.6      0.879      1.311
REMARK  Name = 
REMARK  10 active torsions:
REMARK  status: ('A' for Active; 'I' for Inactive)
REMARK    1  A    between atoms: C_1  and  C_2
REMARK    2  A    between atoms: C_3  and  C_4
REMARK    3  A    between atoms: C_7  and  C_8
REMARK    4  A    between atoms: C_9  and  N_10
REMARK    5  A    between atoms: C_12  and  C_13
REMARK    6  A    between atoms: C_12  and  C_14
REMARK    7  A    between atoms: C_14  and  N_15
REMARK    8  A    between atoms: N_15  and  C_16
REMARK    9  A    between atoms: C_16  and  C_17
REMARK   10  A    between atoms: C_17  and  C_18
REMARK                            x       y       z     vdW  Elec       q    Type
REMARK                         _______ _______ _______ _____ _____    ______ ____
ROOT
ATOM      1  C   UNL     1       2.385   4.260  21.131  0.00  0.00    +0.000 C 
ATOM      2  C   UNL     1       2.992   4.867  19.887  0.00  0.00    +0.000 A 
ATOM      3  C   UNL     1       3.903   4.153  19.073  0.00  0.00    +0.000 A 
ATOM      4  C   UNL     1       4.377   2.748  19.316  0.00  0.00    +0.000 C 
ATOM      5  C   UNL     1       4.415   4.819  17.964  0.00  0.00    +0.000 A 
ATOM      6  C   UNL     1       4.055   6.114  17.623  0.00  0.00    +0.000 A 
ATOM      7  C   UNL     1       3.168   6.843  18.401  0.00  0.00    +0.000 A 
ATOM      8  C   UNL     1       2.827   8.263  18.045  0.00  0.00    +0.000 C 
ATOM      9  C   UNL     1       2.608   6.205  19.534  0.00  0.00    +0.000 A 
ATOM     10  C   UNL     1       4.727   6.480  16.351  0.00  0.00    +0.000 C 
ATOM     11  C   UNL     1       5.839   5.418  16.335  0.00  0.00    +0.000 C 
ATOM     12  C   UNL     1       6.119   4.926  14.912  0.00  0.00    +0.000 C 
ATOM     13  O   UNL     1       5.347   4.278  17.105  0.00  0.00    +0.000 OA
ENDROOT
BRANCH   9  14
ATOM     14  N   UNL     1       1.840   6.975  20.438  0.00  0.00    +0.000 N 
ATOM     15  H   UNL     1       1.363   7.761  20.011  0.00  0.00    +0.000 HD
ATOM     16  H   UNL     1       1.211   6.433  21.019  0.00  0.00    +0.000 HD
ENDBRANCH   9  14
BRANCH  11  17
ATOM     17  C   UNL     1       7.154   5.914  17.005  0.00  0.00    +0.000 C 
BRANCH  17  18
ATOM     18  N   UNL     1       6.967   7.009  17.973  0.00  0.00    +0.000 NA
ATOM     19  H   UNL     1       7.308   6.709  18.887  0.00  0.00    +0.000 HD
BRANCH  18  20
ATOM     20  C   UNL     1       7.722   8.214  17.603  0.00  0.00    +0.000 C 
BRANCH  20  21
ATOM     21  C   UNL     1       8.701   8.675  18.689  0.00  0.00    +0.000 C 
BRANCH  21  22
ATOM     22  C   UNL     1       8.963  10.156  18.601  0.00  0.00    +0.000 A 
ATOM     23  C   UNL     1       9.885  10.757  19.467  0.00  0.00    +0.000 A 
ATOM     24  C   UNL     1      10.128  12.129  19.394  0.00  0.00    +0.000 A 
ATOM     25  C   UNL     1       9.443  12.907  18.461  0.00  0.00    +0.000 A 
ATOM     26  C   UNL     1       8.518  12.314  17.602  0.00  0.00    +0.000 A 
ATOM     27  C   UNL     1       8.275  10.943  17.672  0.00  0.00    +0.000 A 
ENDBRANCH  21  22
ENDBRANCH  20  21
ENDBRANCH  18  20
ENDBRANCH  17  18
ENDBRANCH  11  17
TORSDOF 6
ENDMDL
MODEL 5
REMARK VINA RESULT:      -7.4      0.998      1.182
REMARK  Name = 
REMARK  10 active torsions:
REMARK  status: ('A' for Active; 'I' for Inactive)
REMARK    1  A    between atoms: C_1  and  C_2
REMARK    2  A    between atoms: C_3  and  C_4
REMARK    3  A    between atoms: C_7  and  C_8
REMARK    4  A    between atoms: C_9  and  N_10
REMARK    5  A    between atoms: C_12  and  C_13
REMARK    6  A    between atoms: C_12  and  C_14
REMARK    7  A    between atoms: C_14  and  N_15
REMARK    8  A    between atoms: N_15  and  C_16
REMARK    9  A    between atoms: C_16  and  C_17
REMARK   10  A    between atoms: C_17  and  C_18
REMARK                            x       y       z     vdW  Elec       q    Type
REMARK                         _______ _______ _______ _____ _____    ______ ____
ROOT
ATOM      1  C   UNL     1       2.396   4.851  21.049  0.00  0.00    +0.000 C 
ATOM      2  C   UNL     1       3.057   5.267  19.755  0.00  0.00    +0.000 A 
ATOM      3  C   UNL     1       3.923   4.402  19.044  0.00  0.00    +0.000 A 
ATOM      4  C   UNL     1       4.291   3.004  19.453  0.00  0.00    +0.000 C 
ATOM      5  C   UNL     1       4.492   4.899  17.876  0.00  0.00    +0.000 A 
ATOM      6  C   UNL     1       4.230   6.169  17.384  0.00  0.00    +0.000 A 
ATOM      7  C   UNL     1       3.391   7.043  18.058  0.00  0.00    +0.000 A 
ATOM      8  C   UNL     1       3.157   8.434  17.536  0.00  0.00    +0.000 C 
ATOM      9  C   UNL     1       2.774   6.580  19.246  0.00  0.00    +0.000 A 
ATOM     10  C   UNL     1       4.940   6.338  16.091  0.00  0.00    +0.000 C 
ATOM     11  C   UNL     1       5.972   5.205  16.216  0.00  0.00    +0.000 C 
ATOM     12  C   UNL     1       6.230   4.535  14.863  0.00  0.00    +0.000 C 
ATOM     13  O   UNL     1       5.391   4.198  17.101  0.00  0.00    +0.000 OA
ENDROOT
BRANCH   9  14
ATOM     14  N   UNL     1       2.055   7.501  20.042  0.00  0.00    +0.000 N 
ATOM     15  H   UNL     1       2.623   8.242  20.434  0.00  0.00    +0.000 HD
ATOM     16  H   UNL     1       1.219   7.869  19.603  0.00  0.00    +0.000 HD
ENDBRANCH   9  14
BRANCH  11  17
ATOM     17  C   UNL     1       7.313   5.681  16.849  0.00  0.00    +0.000 C 
BRANCH  17  18
ATOM     18  N   UNL     1       7.194   6.159  18.238  0.00  0.00    +0.000 NA
ATOM     19  H   UNL     1       7.464   5.408  18.874  0.00  0.00    +0.000 HD
BRANCH  18  20
ATOM     20  C   UNL     1       8.078   7.299  18.512  0.00  0.00    +0.000 C 
BRANCH  20  21
ATOM     21  C   UNL     1       7.798   8.514  17.620  0.00  0.00    +0.000 C 
BRANCH  21  22
ATOM     22  C   UNL     1       8.418   9.765  18.183  0.00  0.00    +0.000 A 
ATOM     23  C   UNL     1       8.246  10.990  17.526  0.00  0.00    +0.000 A 
ATOM     24  C   UNL     1       8.823  12.152  18.039  0.00  0.00    +0.000 A 
ATOM     25  C   UNL     1       9.582  12.092  19.208  0.00  0.00    +0.000 A 
ATOM     26  C   UNL     1       9.763  10.874  19.861  0.00  0.00    +0.000 A 
ATOM     27  C   UNL     1       9.186   9.712  19.351  0.00  0.00    +0.000 A 
ENDBRANCH  21  22
ENDBRANCH  20  21
ENDBRANCH  18  20
ENDBRANCH  17  18
ENDBRANCH  11  17
TORSDOF 6
ENDMDL
MODEL 6
REMARK VINA RESULT:      -7.1      1.000      1.485
REMARK  Name = 
REMARK  10 active torsions:
REMARK  status: ('A' for Active; 'I' for Inactive)
REMARK    1  A    between atoms: C_1  and  C_2
REMARK    2  A    between atoms: C_3  and  C_4
REMARK    3  A    between atoms: C_7  and  C_8
REMARK    4  A    between atoms: C_9  and  N_10
REMARK    5  A    between atoms: C_12  and  C_13
REMARK    6  A    between atoms: C_12  and  C_14
REMARK    7  A    between atoms: C_14  and  N_15
REMARK    8  A    between atoms: N_15  and  C_16
REMARK    9  A    between atoms: C_16  and  C_17
REMARK   10  A    between atoms: C_17  and  C_18
REMARK                            x       y       z     vdW  Elec       q    Type
REMARK                         _______ _______ _______ _____ _____    ______ ____
ROOT
ATOM      1  C   UNL     1       1.981   2.696  20.806  0.00  0.00    +0.000 C 
ATOM      2  C   UNL     1       2.684   3.650  19.867  0.00  0.00    +0.000 A 
ATOM      3  C   UNL     1       3.804   3.254  19.098  0.00  0.00    +0.000 A 
ATOM      4  C   UNL     1       4.428   1.887  19.101  0.00  0.00    +0.000 C 
ATOM      5  C   UNL     1       4.384   4.221  18.283  0.00  0.00    +0.000 A 
ATOM      6  C   UNL     1       3.903   5.518  18.183  0.00  0.00    +0.000 A 
ATOM      7  C   UNL     1       2.810   5.940  18.925  0.00  0.00    +0.000 A 
ATOM      8  C   UNL     1       2.332   7.362  18.841  0.00  0.00    +0.000 C 
ATOM      9  C   UNL     1       2.174   4.988  19.760  0.00  0.00    +0.000 A 
ATOM     10  C   UNL     1       4.709   6.252  17.175  0.00  0.00    +0.000 C 
ATOM     11  C   UNL     1       5.948   5.343  17.128  0.00  0.00    +0.000 C 
ATOM     12  C   UNL     1       6.517   5.249  15.709  0.00  0.00    +0.000 C 
ATOM     13  O   UNL     1       5.508   4.005  17.514  0.00  0.00    +0.000 OA
ENDROOT
BRANCH   9  14
ATOM     14  N   UNL     1       1.172   5.430  20.654  0.00  0.00    +0.000 N 
ATOM     15  H   UNL     1       1.428   6.251  21.190  0.00  0.00    +0.000 HD
ATOM     16  H   UNL     1       0.255   5.533  20.235  0.00  0.00    +0.000 HD
ENDBRANCH   9  14
BRANCH  11  17
ATOM     17  C   UNL     1       7.057   5.787  18.127  0.00  0.00    +0.000 C 
BRANCH  17  18
ATOM     18  N   UNL     1       7.020   7.217  18.480  0.00  0.00    +0.000 NA
ATOM     19  H   UNL     1       6.959   7.309  19.495  0.00  0.00    +0.000 HD
BRANCH  18  20
ATOM     20  C   UNL     1       8.233   7.928  18.052  0.00  0.00    +0.000 C 
BRANCH  20  21
ATOM     21  C   UNL     1       8.007   9.425  17.815  0.00  0.00    +0.000 C 
BRANCH  21  22
ATOM     22  C   UNL     1       9.059  10.256  18.503  0.00  0.00    +0.000 A 
ATOM     23  C   UNL     1       9.060  10.367  19.900  0.00  0.00    +0.000 A 
ATOM     24  C   UNL     1      10.027  11.139  20.543  0.00  0.00    +0.000 A 
ATOM     25  C   UNL     1      10.992  11.810  19.793  0.00  0.00    +0.000 A 
ATOM     26  C   UNL     1      10.990  11.710  18.402  0.00  0.00    +0.000 A 
ATOM     27  C   UNL     1      10.025  10.937  17.756  0.00  0.00    +0.000 A 
ENDBRANCH  21  22
ENDBRANCH  20  21
ENDBRANCH  18  20
ENDBRANCH  17  18
ENDBRANCH  11  17
TORSDOF 6
ENDMDL
MODEL 7
REMARK VINA RESULT:      -7.0      5.692      9.272
REMARK  Name = 
REMARK  10 active torsions:
REMARK  status: ('A' for Active; 'I' for Inactive)
REMARK    1  A    between atoms: C_1  and  C_2
REMARK    2  A    between atoms: C_3  and  C_4
REMARK    3  A    between atoms: C_7  and  C_8
REMARK    4  A    between atoms: C_9  and  N_10
REMARK    5  A    between atoms: C_12  and  C_13
REMARK    6  A    between atoms: C_12  and  C_14
REMARK    7  A    between atoms: C_14  and  N_15
REMARK    8  A    between atoms: N_15  and  C_16
REMARK    9  A    between atoms: C_16  and  C_17
REMARK   10  A    between atoms: C_17  and  C_18
REMARK                            x       y       z     vdW  Elec       q    Type
REMARK                         _______ _______ _______ _____ _____    ______ ____
ROOT
ATOM      1  C   UNL     1      -5.134  11.397  17.228  0.00  0.00    +0.000 C 
ATOM      2  C   UNL     1      -3.759  11.430  17.855  0.00  0.00    +0.000 A 
ATOM      3  C   UNL     1      -2.687  10.656  17.351  0.00  0.00    +0.000 A 
ATOM      4  C   UNL     1      -2.756   9.730  16.170  0.00  0.00    +0.000 C 
ATOM      5  C   UNL     1      -1.471  10.751  18.021  0.00  0.00    +0.000 A 
ATOM      6  C   UNL     1      -1.271  11.572  19.120  0.00  0.00    +0.000 A 
ATOM      7  C   UNL     1      -2.301  12.341  19.642  0.00  0.00    +0.000 A 
ATOM      8  C   UNL     1      -2.080  13.188  20.863  0.00  0.00    +0.000 C 
ATOM      9  C   UNL     1      -3.556  12.291  18.987  0.00  0.00    +0.000 A 
ATOM     10  C   UNL     1       0.153  11.484  19.533  0.00  0.00    +0.000 C 
ATOM     11  C   UNL     1       0.539  10.170  18.834  0.00  0.00    +0.000 C 
ATOM     12  C   UNL     1       1.975  10.224  18.302  0.00  0.00    +0.000 C 
ATOM     13  O   UNL     1      -0.349  10.024  17.684  0.00  0.00    +0.000 OA
ENDROOT
BRANCH   9  14
ATOM     14  N   UNL     1      -4.665  12.925  19.594  0.00  0.00    +0.000 N 
ATOM     15  H   UNL     1      -4.416  13.621  20.286  0.00  0.00    +0.000 HD
ATOM     16  H   UNL     1      -5.350  13.283  18.939  0.00  0.00    +0.000 HD
ENDBRANCH   9  14
BRANCH  11  17
ATOM     17  C   UNL     1       0.347   8.924  19.747  0.00  0.00    +0.000 C 
BRANCH  17  18
ATOM     18  N   UNL     1       1.433   8.709  20.719  0.00  0.00    +0.000 NA
ATOM     19  H   UNL     1       1.136   9.051  21.634  0.00  0.00    +0.000 HD
BRANCH  18  20
ATOM     20  C   UNL     1       1.766   7.286  20.876  0.00  0.00    +0.000 C 
BRANCH  20  21
ATOM     21  C   UNL     1       2.423   6.676  19.633  0.00  0.00    +0.000 C 
BRANCH  21  22
ATOM     22  C   UNL     1       1.933   5.273  19.385  0.00  0.00    +0.000 A 
ATOM     23  C   UNL     1       1.361   4.535  20.430  0.00  0.00    +0.000 A 
ATOM     24  C   UNL     1       0.910   3.234  20.208  0.00  0.00    +0.000 A 
ATOM     25  C   UNL     1       1.037   2.661  18.943  0.00  0.00    +0.000 A 
ATOM     26  C   UNL     1       1.614   3.388  17.902  0.00  0.00    +0.000 A 
ATOM     27  C   UNL     1       2.063   4.689  18.120  0.00  0.00    +0.000 A 
ENDBRANCH  21  22
ENDBRANCH  20  21
ENDBRANCH  18  20
ENDBRANCH  17  18
ENDBRANCH  11  17
TORSDOF 6
ENDMDL
MODEL 8
REMARK VINA RESULT:      -6.8      3.692      7.154
REMARK  Name = 
REMARK  10 active torsions:
REMARK  status: ('A' for Active; 'I' for Inactive)
REMARK    1  A    between atoms: C_1  and  C_2
REMARK    2  A    between atoms: C_3  and  C_4
REMARK    3  A    between atoms: C_7  and  C_8
REMARK    4  A    between atoms: C_9  and  N_10
REMARK    5  A    between atoms: C_12  and  C_13
REMARK    6  A    between atoms: C_12  and  C_14
REMARK    7  A    between atoms: C_14  and  N_15
REMARK    8  A    between atoms: N_15  and  C_16
REMARK    9  A    between atoms: C_16  and  C_17
REMARK   10  A    between atoms: C_17  and  C_18
REMARK                            x       y       z     vdW  Elec       q    Type
REMARK                         _______ _______ _______ _____ _____    ______ ____
ROOT
ATOM      1  C   UNL     1       0.557   4.197  20.332  0.00  0.00    +0.000 C 
ATOM      2  C   UNL     1       1.927   4.150  19.696  0.00  0.00    +0.000 A 
ATOM      3  C   UNL     1       2.739   5.304  19.579  0.00  0.00    +0.000 A 
ATOM      4  C   UNL     1       2.372   6.682  20.052  0.00  0.00    +0.000 C 
ATOM      5  C   UNL     1       3.974   5.146  18.957  0.00  0.00    +0.000 A 
ATOM      6  C   UNL     1       4.435   3.928  18.482  0.00  0.00    +0.000 A 
ATOM      7  C   UNL     1       3.664   2.779  18.577  0.00  0.00    +0.000 A 
ATOM      8  C   UNL     1       4.159   1.477  18.012  0.00  0.00    +0.000 C 
ATOM      9  C   UNL     1       2.404   2.883  19.215  0.00  0.00    +0.000 A 
ATOM     10  C   UNL     1       5.810   4.110  17.951  0.00  0.00    +0.000 C 
ATOM     11  C   UNL     1       5.811   5.637  17.766  0.00  0.00    +0.000 C 
ATOM     12  C   UNL     1       7.183   6.235  18.094  0.00  0.00    +0.000 C 
ATOM     13  O   UNL     1       4.854   6.182  18.724  0.00  0.00    +0.000 OA
ENDROOT
BRANCH   9  14
ATOM     14  N   UNL     1       1.527   1.775  19.172  0.00  0.00    +0.000 N 
ATOM     15  H   UNL     1       1.008   1.624  20.029  0.00  0.00    +0.000 HD
ATOM     16  H   UNL     1       0.918   1.755  18.363  0.00  0.00    +0.000 HD
ENDBRANCH   9  14
BRANCH  11  17
ATOM     17  C   UNL     1       5.359   6.069  16.340  0.00  0.00    +0.000 C 
BRANCH  17  18
ATOM     18  N   UNL     1       6.394   5.921  15.303  0.00  0.00    +0.000 NA
ATOM     19  H   UNL     1       7.201   5.439  15.701  0.00  0.00    +0.000 HD
BRANCH  18  20
ATOM     20  C   UNL     1       5.930   5.119  14.163  0.00  0.00    +0.000 C 
BRANCH  20  21
ATOM     21  C   UNL     1       7.038   4.797  13.155  0.00  0.00    +0.000 C 
BRANCH  21  22
ATOM     22  C   UNL     1       6.688   3.594  12.318  0.00  0.00    +0.000 A 
ATOM     23  C   UNL     1       5.348   3.221  12.153  0.00  0.00    +0.000 A 
ATOM     24  C   UNL     1       5.017   2.105  11.384  0.00  0.00    +0.000 A 
ATOM     25  C   UNL     1       6.026   1.352  10.785  0.00  0.00    +0.000 A 
ATOM     26  C   UNL     1       7.362   1.713  10.953  0.00  0.00    +0.000 A 
ATOM     27  C   UNL     1       7.695   2.829  11.719  0.00  0.00    +0.000 A 
ENDBRANCH  21  22
ENDBRANCH  20  21
ENDBRANCH  18  20
ENDBRANCH  17  18
ENDBRANCH  11  17
TORSDOF 6
ENDMDL
MODEL 9
REMARK VINA RESULT:      -6.8      3.761      6.727
REMARK  Name = 
REMARK  10 active torsions:
REMARK  status: ('A' for Active; 'I' for Inactive)
REMARK    1  A    between atoms: C_1  and  C_2
REMARK    2  A    between atoms: C_3  and  C_4
REMARK    3  A    between atoms: C_7  and  C_8
REMARK    4  A    between atoms: C_9  and  N_10
REMARK    5  A    between atoms: C_12  and  C_13
REMARK    6  A    between atoms: C_12  and  C_14
REMARK    7  A    between atoms: C_14  and  N_15
REMARK    8  A    between atoms: N_15  and  C_16
REMARK    9  A    between atoms: C_16  and  C_17
REMARK   10  A    between atoms: C_17  and  C_18
REMARK                            x       y       z     vdW  Elec       q    Type
REMARK                         _______ _______ _______ _____ _____    ______ ____
ROOT
ATOM      1  C   UNL     1       7.126   5.746  14.297  0.00  0.00    +0.000 C 
ATOM      2  C   UNL     1       6.541   5.183  15.572  0.00  0.00    +0.000 A 
ATOM      3  C   UNL     1       5.525   4.197  15.559  0.00  0.00    +0.000 A 
ATOM      4  C   UNL     1       4.909   3.593  14.329  0.00  0.00    +0.000 C 
ATOM      5  C   UNL     1       5.046   3.768  16.793  0.00  0.00    +0.000 A 
ATOM      6  C   UNL     1       5.533   4.240  18.002  0.00  0.00    +0.000 A 
ATOM      7  C   UNL     1       6.525   5.208  18.051  0.00  0.00    +0.000 A 
ATOM      8  C   UNL     1       7.006   5.744  19.370  0.00  0.00    +0.000 C 
ATOM      9  C   UNL     1       7.056   5.669  16.822  0.00  0.00    +0.000 A 
ATOM     10  C   UNL     1       4.854   3.516  19.107  0.00  0.00    +0.000 C 
ATOM     11  C   UNL     1       3.633   2.976  18.346  0.00  0.00    +0.000 C 
ATOM     12  C   UNL     1       3.244   1.578  18.839  0.00  0.00    +0.000 C 
ATOM     13  O   UNL     1       4.026   2.853  16.945  0.00  0.00    +0.000 OA
ENDROOT
BRANCH   9  14
ATOM     14  N   UNL     1       7.939   6.772  16.834  0.00  0.00    +0.000 N 
ATOM     15  H   UNL     1       7.491   7.660  17.028  0.00  0.00    +0.000 HD
ATOM     16  H   UNL     1       8.763   6.641  17.409  0.00  0.00    +0.000 HD
ENDBRANCH   9  14
BRANCH  11  17
ATOM     17  C   UNL     1       2.408   3.935  18.416  0.00  0.00    +0.000 C 
BRANCH  17  18
ATOM     18  N   UNL     1       1.792   4.038  19.750  0.00  0.00    +0.000 NA
ATOM     19  H   UNL     1       2.316   3.457  20.406  0.00  0.00    +0.000 HD
BRANCH  18  20
ATOM     20  C   UNL     1       1.817   5.411  20.270  0.00  0.00    +0.000 C 
BRANCH  20  21
ATOM     21  C   UNL     1       2.760   6.338  19.494  0.00  0.00    +0.000 C 
BRANCH  21  22
ATOM     22  C   UNL     1       2.146   7.698  19.287  0.00  0.00    +0.000 A 
ATOM     23  C   UNL     1       1.428   8.308  20.324  0.00  0.00    +0.000 A 
ATOM     24  C   UNL     1       0.853   9.565  20.137  0.00  0.00    +0.000 A 
ATOM     25  C   UNL     1       0.986  10.214  18.910  0.00  0.00    +0.000 A 
ATOM     26  C   UNL     1       1.693   9.608  17.872  0.00  0.00    +0.000 A 
ATOM     27  C   UNL     1       2.270   8.352  18.057  0.00  0.00    +0.000 A 
ENDBRANCH  21  22
ENDBRANCH  20  21
ENDBRANCH  18  20
ENDBRANCH  17  18
ENDBRANCH  11  17
TORSDOF 6
ENDMDL
