MODEL 1
REMARK VINA RESULT:      -6.1      0.000      0.000
REMARK  Name = 
REMARK  18 active torsions:
REMARK  status: ('A' for Active; 'I' for Inactive)
REMARK    1  A    between atoms: C_1  and  N_2
REMARK    2  A    between atoms: N_2  and  C_3
REMARK    3  A    between atoms: N_2  and  C_4
REMARK    4  A    between atoms: C_4  and  C_5
REMARK    5  A    between atoms: C_5  and  C_6
REMARK    6  A    between atoms: C_6  and  C_7
REMARK    7  A    between atoms: C_7  and  C_8
REMARK    8  A    between atoms: C_8  and  C_9
REMARK    9  A    between atoms: C_9  and  C_10
REMARK   10  A    between atoms: C_10  and  C_11
REMARK   11  A    between atoms: C_11  and  C_12
REMARK   12  A    between atoms: C_12  and  C_13
REMARK   13  A    between atoms: C_13  and  C_14
REMARK   14  A    between atoms: C_14  and  C_15
REMARK   15  A    between atoms: N_17  and  C_18
REMARK   16  A    between atoms: C_18  and  C_19
REMARK   17  A    between atoms: C_19  and  O_20
REMARK   18  A    between atoms: C_19  and  C_21
REMARK                            x       y       z     vdW  Elec       q    Type
REMARK                         _______ _______ _______ _____ _____    ______ ____
ROOT
ATOM      1  C   UNL     1       1.813   7.967  19.876  0.00  0.00    +0.000 C 
ENDROOT
BRANCH   1   2
ATOM      2  C   UNL     1       1.309   9.115  19.018  0.00  0.00    +0.000 C 
ATOM      3  O   UNL     1       1.577   9.224  17.825  0.00  0.00    +0.000 OA
ATOM      4  N   UNL     1       0.523  10.021  19.684  0.00  0.00    +0.000 N 
ATOM      5  H   UNL     1       0.200   9.770  20.615  0.00  0.00    +0.000 HD
BRANCH   4   6
ATOM      6  C   UNL     1      -0.063  11.107  18.927  0.00  0.00    +0.000 C 
BRANCH   6   7
ATOM      7  C   UNL     1      -1.562  11.176  19.179  0.00  0.00    +0.000 C 
BRANCH   7   8
ATOM      8  C   UNL     1      -2.369  10.930  17.935  0.00  0.00    +0.000 A 
ATOM      9  C   UNL     1      -1.915  10.046  16.943  0.00  0.00    +0.000 A 
ATOM     10  C   UNL     1      -2.668   9.844  15.788  0.00  0.00    +0.000 A 
ATOM     11  C   UNL     1      -3.883  10.502  15.615  0.00  0.00    +0.000 A 
ATOM     12  C   UNL     1      -4.351  11.368  16.602  0.00  0.00    +0.000 A 
ATOM     13  C   UNL     1      -3.599  11.576  17.753  0.00  0.00    +0.000 A 
ENDBRANCH   7   8
BRANCH   7  14
ATOM     14  O   UNL     1      -1.843  12.477  19.703  0.00  0.00    +0.000 OA
ATOM     15  H   UNL     1      -2.772  12.668  19.483  0.00  0.00    +0.000 HD
ENDBRANCH   7  14
ENDBRANCH   6   7
ENDBRANCH   4   6
ENDBRANCH   1   2
BRANCH   1  16
ATOM     16  C   UNL     1       2.650   7.006  19.030  0.00  0.00    +0.000 C 
BRANCH  16  17
ATOM     17  C   UNL     1       2.908   5.674  19.723  0.00  0.00    +0.000 C 
BRANCH  17  18
ATOM     18  C   UNL     1       1.806   5.385  20.745  0.00  0.00    +0.000 C 
BRANCH  18  19
ATOM     19  C   UNL     1       0.897   4.262  20.263  0.00  0.00    +0.000 C 
BRANCH  19  20
ATOM     20  C   UNL     1       1.580   2.908  20.410  0.00  0.00    +0.000 C 
BRANCH  20  21
ATOM     21  C   UNL     1       1.334   2.053  19.172  0.00  0.00    +0.000 C 
BRANCH  21  22
ATOM     22  C   UNL     1       2.044   2.645  17.965  0.00  0.00    +0.000 C 
BRANCH  22  23
ATOM     23  C   UNL     1       3.475   2.127  17.870  0.00  0.00    +0.000 C 
BRANCH  23  24
ATOM     24  C   UNL     1       4.451   3.288  18.003  0.00  0.00    +0.000 C 
BRANCH  24  25
ATOM     25  C   UNL     1       4.647   4.009  16.669  0.00  0.00    +0.000 C 
BRANCH  25  27
ATOM     26  C   UNL     1       6.854   4.607  15.941  0.00  0.00    +0.000 C 
ATOM     27  N   UNL     1       5.696   5.041  16.725  0.00  0.00    +0.000 NA
ATOM     28  C   UNL     1       5.227   6.339  16.235  0.00  0.00    +0.000 C 
ENDBRANCH  25  27
ENDBRANCH  24  25
ENDBRANCH  23  24
ENDBRANCH  22  23
ENDBRANCH  21  22
ENDBRANCH  20  21
ENDBRANCH  19  20
ENDBRANCH  18  19
ENDBRANCH  17  18
ENDBRANCH  16  17
ENDBRANCH   1  16
TORSDOF 16
ENDMDL
MODEL 2
REMARK VINA RESULT:      -6.0      3.725      8.639
REMARK  Name = 
REMARK  18 active torsions:
REMARK  status: ('A' for Active; 'I' for Inactive)
REMARK    1  A    between atoms: C_1  and  N_2
REMARK    2  A    between atoms: N_2  and  C_3
REMARK    3  A    between atoms: N_2  and  C_4
REMARK    4  A    between atoms: C_4  and  C_5
REMARK    5  A    between atoms: C_5  and  C_6
REMARK    6  A    between atoms: C_6  and  C_7
REMARK    7  A    between atoms: C_7  and  C_8
REMARK    8  A    between atoms: C_8  and  C_9
REMARK    9  A    between atoms: C_9  and  C_10
REMARK   10  A    between atoms: C_10  and  C_11
REMARK   11  A    between atoms: C_11  and  C_12
REMARK   12  A    between atoms: C_12  and  C_13
REMARK   13  A    between atoms: C_13  and  C_14
REMARK   14  A    between atoms: C_14  and  C_15
REMARK   15  A    between atoms: N_17  and  C_18
REMARK   16  A    between atoms: C_18  and  C_19
REMARK   17  A    between atoms: C_19  and  O_20
REMARK   18  A    between atoms: C_19  and  C_21
REMARK                            x       y       z     vdW  Elec       q    Type
REMARK                         _______ _______ _______ _____ _____    ______ ____
ROOT
ATOM      1  C   UNL     1       7.018   4.763  17.785  0.00  0.00    +0.000 C 
ENDROOT
BRANCH   1   2
ATOM      2  C   UNL     1       6.031   3.948  16.968  0.00  0.00    +0.000 C 
ATOM      3  O   UNL     1       6.153   3.766  15.760  0.00  0.00    +0.000 OA
ATOM      4  N   UNL     1       4.988   3.428  17.691  0.00  0.00    +0.000 N 
ATOM      5  H   UNL     1       5.050   3.469  18.705  0.00  0.00    +0.000 HD
BRANCH   4   6
ATOM      6  C   UNL     1       4.038   2.575  17.008  0.00  0.00    +0.000 C 
BRANCH   6   7
ATOM      7  C   UNL     1       3.351   1.650  18.001  0.00  0.00    +0.000 C 
BRANCH   7   8
ATOM      8  C   UNL     1       2.665   2.398  19.110  0.00  0.00    +0.000 A 
ATOM      9  C   UNL     1       3.192   2.401  20.411  0.00  0.00    +0.000 A 
ATOM     10  C   UNL     1       2.533   3.084  21.432  0.00  0.00    +0.000 A 
ATOM     11  C   UNL     1       1.359   3.784  21.166  0.00  0.00    +0.000 A 
ATOM     12  C   UNL     1       0.837   3.801  19.874  0.00  0.00    +0.000 A 
ATOM     13  C   UNL     1       1.490   3.116  18.855  0.00  0.00    +0.000 A 
ENDBRANCH   7   8
BRANCH   7  14
ATOM     14  O   UNL     1       4.355   0.783  18.536  0.00  0.00    +0.000 OA
ATOM     15  H   UNL     1       4.185   0.720  19.493  0.00  0.00    +0.000 HD
ENDBRANCH   7  14
ENDBRANCH   6   7
ENDBRANCH   4   6
ENDBRANCH   1   2
BRANCH   1  16
ATOM     16  C   UNL     1       6.378   6.082  18.223  0.00  0.00    +0.000 C 
BRANCH  16  17
ATOM     17  C   UNL     1       5.973   6.965  17.050  0.00  0.00    +0.000 C 
BRANCH  17  18
ATOM     18  C   UNL     1       4.454   7.151  17.026  0.00  0.00    +0.000 C 
BRANCH  18  19
ATOM     19  C   UNL     1       3.812   6.547  18.268  0.00  0.00    +0.000 C 
BRANCH  19  20
ATOM     20  C   UNL     1       2.318   6.842  18.307  0.00  0.00    +0.000 C 
BRANCH  20  21
ATOM     21  C   UNL     1       2.054   8.294  17.926  0.00  0.00    +0.000 C 
BRANCH  21  22
ATOM     22  C   UNL     1       1.573   9.084  19.132  0.00  0.00    +0.000 C 
BRANCH  22  23
ATOM     23  C   UNL     1       0.421  10.007  18.749  0.00  0.00    +0.000 C 
BRANCH  23  24
ATOM     24  C   UNL     1       0.339  11.162  19.739  0.00  0.00    +0.000 C 
BRANCH  24  25
ATOM     25  C   UNL     1       0.715  10.715  21.152  0.00  0.00    +0.000 C 
BRANCH  25  27
ATOM     26  C   UNL     1      -0.105   9.473  23.034  0.00  0.00    +0.000 C 
ATOM     27  N   UNL     1      -0.460  10.443  21.996  0.00  0.00    +0.000 NA
ATOM     28  C   UNL     1      -0.992  11.658  22.619  0.00  0.00    +0.000 C 
ENDBRANCH  25  27
ENDBRANCH  24  25
ENDBRANCH  23  24
ENDBRANCH  22  23
ENDBRANCH  21  22
ENDBRANCH  20  21
ENDBRANCH  19  20
ENDBRANCH  18  19
ENDBRANCH  17  18
ENDBRANCH  16  17
ENDBRANCH   1  16
TORSDOF 16
ENDMDL
MODEL 3
REMARK VINA RESULT:      -6.0      6.328     10.085
REMARK  Name = 
REMARK  18 active torsions:
REMARK  status: ('A' for Active; 'I' for Inactive)
REMARK    1  A    between atoms: C_1  and  N_2
REMARK    2  A    between atoms: N_2  and  C_3
REMARK    3  A    between atoms: N_2  and  C_4
REMARK    4  A    between atoms: C_4  and  C_5
REMARK    5  A    between atoms: C_5  and  C_6
REMARK    6  A    between atoms: C_6  and  C_7
REMARK    7  A    between atoms: C_7  and  C_8
REMARK    8  A    between atoms: C_8  and  C_9
REMARK    9  A    between atoms: C_9  and  C_10
REMARK   10  A    between atoms: C_10  and  C_11
REMARK   11  A    between atoms: C_11  and  C_12
REMARK   12  A    between atoms: C_12  and  C_13
REMARK   13  A    between atoms: C_13  and  C_14
REMARK   14  A    between atoms: C_14  and  C_15
REMARK   15  A    between atoms: N_17  and  C_18
REMARK   16  A    between atoms: C_18  and  C_19
REMARK   17  A    between atoms: C_19  and  O_20
REMARK   18  A    between atoms: C_19  and  C_21
REMARK                            x       y       z     vdW  Elec       q    Type
REMARK                         _______ _______ _______ _____ _____    ______ ____
ROOT
ATOM      1  C   UNL     1       7.729   4.812  18.052  0.00  0.00    +0.000 C 
ENDROOT
BRANCH   1   2
ATOM      2  C   UNL     1       6.587   4.277  17.206  0.00  0.00    +0.000 C 
ATOM      3  O   UNL     1       6.652   4.177  15.984  0.00  0.00    +0.000 OA
ATOM      4  N   UNL     1       5.474   3.910  17.918  0.00  0.00    +0.000 N 
ATOM      5  H   UNL     1       5.559   3.853  18.929  0.00  0.00    +0.000 HD
BRANCH   4   6
ATOM      6  C   UNL     1       4.364   3.320  17.200  0.00  0.00    +0.000 C 
BRANCH   6   7
ATOM      7  C   UNL     1       3.070   4.043  17.543  0.00  0.00    +0.000 C 
BRANCH   7   8
ATOM      8  C   UNL     1       2.701   3.912  18.994  0.00  0.00    +0.000 A 
ATOM      9  C   UNL     1       2.429   5.047  19.774  0.00  0.00    +0.000 A 
ATOM     10  C   UNL     1       2.107   4.909  21.124  0.00  0.00    +0.000 A 
ATOM     11  C   UNL     1       2.033   3.645  21.703  0.00  0.00    +0.000 A 
ATOM     12  C   UNL     1       2.284   2.511  20.933  0.00  0.00    +0.000 A 
ATOM     13  C   UNL     1       2.611   2.646  19.588  0.00  0.00    +0.000 A 
ENDBRANCH   7   8
BRANCH   7  14
ATOM     14  O   UNL     1       2.042   3.484  16.719  0.00  0.00    +0.000 OA
ATOM     15  H   UNL     1       1.238   4.007  16.887  0.00  0.00    +0.000 HD
ENDBRANCH   7  14
ENDBRANCH   6   7
ENDBRANCH   4   6
ENDBRANCH   1   2
BRANCH   1  16
ATOM     16  C   UNL     1       7.343   6.158  18.668  0.00  0.00    +0.000 C 
BRANCH  16  17
ATOM     17  C   UNL     1       7.624   7.337  17.745  0.00  0.00    +0.000 C 
BRANCH  17  18
ATOM     18  C   UNL     1       8.468   8.388  18.469  0.00  0.00    +0.000 C 
BRANCH  18  19
ATOM     19  C   UNL     1       8.298   9.759  17.827  0.00  0.00    +0.000 C 
BRANCH  19  20
ATOM     20  C   UNL     1       8.966  10.840  18.666  0.00  0.00    +0.000 C 
BRANCH  20  21
ATOM     21  C   UNL     1      10.440  10.962  18.297  0.00  0.00    +0.000 C 
BRANCH  21  22
ATOM     22  C   UNL     1      11.201  11.712  19.378  0.00  0.00    +0.000 C 
BRANCH  22  23
ATOM     23  C   UNL     1      12.146  12.738  18.762  0.00  0.00    +0.000 C 
BRANCH  23  24
ATOM     24  C   UNL     1      11.764  12.978  17.307  0.00  0.00    +0.000 C 
BRANCH  24  25
ATOM     25  C   UNL     1      11.063  14.326  17.129  0.00  0.00    +0.000 C 
BRANCH  25  27
ATOM     26  C   UNL     1      12.323  16.332  17.511  0.00  0.00    +0.000 C 
ATOM     27  N   UNL     1      11.470  15.319  18.136  0.00  0.00    +0.000 NA
ATOM     28  C   UNL     1      10.322  15.968  18.773  0.00  0.00    +0.000 C 
ENDBRANCH  25  27
ENDBRANCH  24  25
ENDBRANCH  23  24
ENDBRANCH  22  23
ENDBRANCH  21  22
ENDBRANCH  20  21
ENDBRANCH  19  20
ENDBRANCH  18  19
ENDBRANCH  17  18
ENDBRANCH  16  17
ENDBRANCH   1  16
TORSDOF 16
ENDMDL
MODEL 4
REMARK VINA RESULT:      -6.0      3.340      8.512
REMARK  Name = 
REMARK  18 active torsions:
REMARK  status: ('A' for Active; 'I' for Inactive)
REMARK    1  A    between atoms: C_1  and  N_2
REMARK    2  A    between atoms: N_2  and  C_3
REMARK    3  A    between atoms: N_2  and  C_4
REMARK    4  A    between atoms: C_4  and  C_5
REMARK    5  A    between atoms: C_5  and  C_6
REMARK    6  A    between atoms: C_6  and  C_7
REMARK    7  A    between atoms: C_7  and  C_8
REMARK    8  A    between atoms: C_8  and  C_9
REMARK    9  A    between atoms: C_9  and  C_10
REMARK   10  A    between atoms: C_10  and  C_11
REMARK   11  A    between atoms: C_11  and  C_12
REMARK   12  A    between atoms: C_12  and  C_13
REMARK   13  A    between atoms: C_13  and  C_14
REMARK   14  A    between atoms: C_14  and  C_15
REMARK   15  A    between atoms: N_17  and  C_18
REMARK   16  A    between atoms: C_18  and  C_19
REMARK   17  A    between atoms: C_19  and  O_20
REMARK   18  A    between atoms: C_19  and  C_21
REMARK                            x       y       z     vdW  Elec       q    Type
REMARK                         _______ _______ _______ _____ _____    ______ ____
ROOT
ATOM      1  C   UNL     1       1.237   2.058  18.266  0.00  0.00    +0.000 C 
ENDROOT
BRANCH   1   2
ATOM      2  C   UNL     1       2.712   2.354  18.056  0.00  0.00    +0.000 C 
ATOM      3  O   UNL     1       3.599   1.548  18.325  0.00  0.00    +0.000 OA
ATOM      4  N   UNL     1       2.975   3.596  17.538  0.00  0.00    +0.000 N 
ATOM      5  H   UNL     1       2.191   4.132  17.177  0.00  0.00    +0.000 HD
BRANCH   4   6
ATOM      6  C   UNL     1       4.350   3.935  17.235  0.00  0.00    +0.000 C 
BRANCH   6   7
ATOM      7  C   UNL     1       5.067   4.402  18.494  0.00  0.00    +0.000 C 
BRANCH   7   8
ATOM      8  C   UNL     1       6.023   5.531  18.230  0.00  0.00    +0.000 A 
ATOM      9  C   UNL     1       5.780   6.456  17.202  0.00  0.00    +0.000 A 
ATOM     10  C   UNL     1       6.687   7.487  16.959  0.00  0.00    +0.000 A 
ATOM     11  C   UNL     1       7.829   7.619  17.745  0.00  0.00    +0.000 A 
ATOM     12  C   UNL     1       8.070   6.716  18.779  0.00  0.00    +0.000 A 
ATOM     13  C   UNL     1       7.170   5.684  19.020  0.00  0.00    +0.000 A 
ENDBRANCH   7   8
BRANCH   7  14
ATOM     14  O   UNL     1       5.768   3.273  19.023  0.00  0.00    +0.000 OA
ATOM     15  H   UNL     1       5.186   2.878  19.698  0.00  0.00    +0.000 HD
ENDBRANCH   7  14
ENDBRANCH   6   7
ENDBRANCH   4   6
ENDBRANCH   1   2
BRANCH   1  16
ATOM     16  C   UNL     1       0.876   2.204  19.745  0.00  0.00    +0.000 C 
BRANCH  16  17
ATOM     17  C   UNL     1       0.739   3.656  20.184  0.00  0.00    +0.000 C 
BRANCH  17  18
ATOM     18  C   UNL     1       1.839   4.013  21.186  0.00  0.00    +0.000 C 
BRANCH  18  19
ATOM     19  C   UNL     1       2.672   5.186  20.686  0.00  0.00    +0.000 C 
BRANCH  19  20
ATOM     20  C   UNL     1       1.781   6.297  20.147  0.00  0.00    +0.000 C 
BRANCH  20  21
ATOM     21  C   UNL     1       2.284   6.768  18.788  0.00  0.00    +0.000 C 
BRANCH  21  22
ATOM     22  C   UNL     1       2.239   8.285  18.698  0.00  0.00    +0.000 C 
BRANCH  22  23
ATOM     23  C   UNL     1       1.276   8.860  19.731  0.00  0.00    +0.000 C 
BRANCH  23  24
ATOM     24  C   UNL     1       0.730  10.193  19.237  0.00  0.00    +0.000 C 
BRANCH  24  25
ATOM     25  C   UNL     1      -0.678  10.454  19.774  0.00  0.00    +0.000 C 
BRANCH  25  27
ATOM     26  C   UNL     1      -0.158  12.560  18.750  0.00  0.00    +0.000 C 
ATOM     27  N   UNL     1      -1.092  11.860  19.633  0.00  0.00    +0.000 NA
ATOM     28  C   UNL     1      -2.454  11.989  19.112  0.00  0.00    +0.000 C 
ENDBRANCH  25  27
ENDBRANCH  24  25
ENDBRANCH  23  24
ENDBRANCH  22  23
ENDBRANCH  21  22
ENDBRANCH  20  21
ENDBRANCH  19  20
ENDBRANCH  18  19
ENDBRANCH  17  18
ENDBRANCH  16  17
ENDBRANCH   1  16
TORSDOF 16
ENDMDL
MODEL 5
REMARK VINA RESULT:      -5.9      2.794      8.675
REMARK  Name = 
REMARK  18 active torsions:
REMARK  status: ('A' for Active; 'I' for Inactive)
REMARK    1  A    between atoms: C_1  and  N_2
REMARK    2  A    between atoms: N_2  and  C_3
REMARK    3  A    between atoms: N_2  and  C_4
REMARK    4  A    between atoms: C_4  and  C_5
REMARK    5  A    between atoms: C_5  and  C_6
REMARK    6  A    between atoms: C_6  and  C_7
REMARK    7  A    between atoms: C_7  and  C_8
REMARK    8  A    between atoms: C_8  and  C_9
REMARK    9  A    between atoms: C_9  and  C_10
REMARK   10  A    between atoms: C_10  and  C_11
REMARK   11  A    between atoms: C_11  and  C_12
REMARK   12  A    between atoms: C_12  and  C_13
REMARK   13  A    between atoms: C_13  and  C_14
REMARK   14  A    between atoms: C_14  and  C_15
REMARK   15  A    between atoms: N_17  and  C_18
REMARK   16  A    between atoms: C_18  and  C_19
REMARK   17  A    between atoms: C_19  and  O_20
REMARK   18  A    between atoms: C_19  and  C_21
REMARK                            x       y       z     vdW  Elec       q    Type
REMARK                         _______ _______ _______ _____ _____    ______ ____
ROOT
ATOM      1  C   UNL     1       3.853   2.767  18.319  0.00  0.00    +0.000 C 
ENDROOT
BRANCH   1   2
ATOM      2  C   UNL     1       4.193   3.769  17.230  0.00  0.00    +0.000 C 
ATOM      3  O   UNL     1       3.684   4.885  17.168  0.00  0.00    +0.000 OA
ATOM      4  N   UNL     1       5.119   3.328  16.320  0.00  0.00    +0.000 N 
ATOM      5  H   UNL     1       5.623   2.473  16.537  0.00  0.00    +0.000 HD
BRANCH   4   6
ATOM      6  C   UNL     1       5.558   4.246  15.290  0.00  0.00    +0.000 C 
BRANCH   6   7
ATOM      7  C   UNL     1       7.045   4.533  15.439  0.00  0.00    +0.000 C 
BRANCH   7   8
ATOM      8  C   UNL     1       7.361   5.319  16.681  0.00  0.00    +0.000 A 
ATOM      9  C   UNL     1       7.289   6.722  16.683  0.00  0.00    +0.000 A 
ATOM     10  C   UNL     1       7.603   7.436  17.839  0.00  0.00    +0.000 A 
ATOM     11  C   UNL     1       7.973   6.767  19.002  0.00  0.00    +0.000 A 
ATOM     12  C   UNL     1       8.030   5.374  19.014  0.00  0.00    +0.000 A 
ATOM     13  C   UNL     1       7.722   4.659  17.862  0.00  0.00    +0.000 A 
ENDBRANCH   7   8
BRANCH   7  14
ATOM     14  O   UNL     1       7.454   5.258  14.276  0.00  0.00    +0.000 OA
ATOM     15  H   UNL     1       8.426   5.203  14.243  0.00  0.00    +0.000 HD
ENDBRANCH   7  14
ENDBRANCH   6   7
ENDBRANCH   4   6
ENDBRANCH   1   2
BRANCH   1  16
ATOM     16  C   UNL     1       4.079   3.390  19.698  0.00  0.00    +0.000 C 
BRANCH  16  17
ATOM     17  C   UNL     1       2.877   3.245  20.621  0.00  0.00    +0.000 C 
BRANCH  17  18
ATOM     18  C   UNL     1       1.593   3.638  19.887  0.00  0.00    +0.000 C 
BRANCH  18  19
ATOM     19  C   UNL     1       1.125   5.023  20.312  0.00  0.00    +0.000 C 
BRANCH  19  20
ATOM     20  C   UNL     1       2.308   5.960  20.516  0.00  0.00    +0.000 C 
BRANCH  20  21
ATOM     21  C   UNL     1       2.018   7.323  19.898  0.00  0.00    +0.000 C 
BRANCH  21  22
ATOM     22  C   UNL     1       2.459   7.354  18.444  0.00  0.00    +0.000 C 
BRANCH  22  23
ATOM     23  C   UNL     1       2.414   8.777  17.896  0.00  0.00    +0.000 C 
BRANCH  23  24
ATOM     24  C   UNL     1       1.045   9.387  18.166  0.00  0.00    +0.000 C 
BRANCH  24  25
ATOM     25  C   UNL     1       1.165  10.821  18.685  0.00  0.00    +0.000 C 
BRANCH  25  27
ATOM     26  C   UNL     1      -0.329  12.689  18.496  0.00  0.00    +0.000 C 
ATOM     27  N   UNL     1      -0.125  11.380  19.121  0.00  0.00    +0.000 NA
ATOM     28  C   UNL     1      -1.251  10.500  18.798  0.00  0.00    +0.000 C 
ENDBRANCH  25  27
ENDBRANCH  24  25
ENDBRANCH  23  24
ENDBRANCH  22  23
ENDBRANCH  21  22
ENDBRANCH  20  21
ENDBRANCH  19  20
ENDBRANCH  18  19
ENDBRANCH  17  18
ENDBRANCH  16  17
ENDBRANCH   1  16
TORSDOF 16
ENDMDL
MODEL 6
REMARK VINA RESULT:      -5.8      3.810      8.793
REMARK  Name = 
REMARK  18 active torsions:
REMARK  status: ('A' for Active; 'I' for Inactive)
REMARK    1  A    between atoms: C_1  and  N_2
REMARK    2  A    between atoms: N_2  and  C_3
REMARK    3  A    between atoms: N_2  and  C_4
REMARK    4  A    between atoms: C_4  and  C_5
REMARK    5  A    between atoms: C_5  and  C_6
REMARK    6  A    between atoms: C_6  and  C_7
REMARK    7  A    between atoms: C_7  and  C_8
REMARK    8  A    between atoms: C_8  and  C_9
REMARK    9  A    between atoms: C_9  and  C_10
REMARK   10  A    between atoms: C_10  and  C_11
REMARK   11  A    between atoms: C_11  and  C_12
REMARK   12  A    between atoms: C_12  and  C_13
REMARK   13  A    between atoms: C_13  and  C_14
REMARK   14  A    between atoms: C_14  and  C_15
REMARK   15  A    between atoms: N_17  and  C_18
REMARK   16  A    between atoms: C_18  and  C_19
REMARK   17  A    between atoms: C_19  and  O_20
REMARK   18  A    between atoms: C_19  and  C_21
REMARK                            x       y       z     vdW  Elec       q    Type
REMARK                         _______ _______ _______ _____ _____    ______ ____
ROOT
ATOM      1  C   UNL     1       3.981   2.096  20.224  0.00  0.00    +0.000 C 
ENDROOT
BRANCH   1   2
ATOM      2  C   UNL     1       3.941   2.356  18.729  0.00  0.00    +0.000 C 
ATOM      3  O   UNL     1       3.290   1.668  17.948  0.00  0.00    +0.000 OA
ATOM      4  N   UNL     1       4.693   3.427  18.318  0.00  0.00    +0.000 N 
ATOM      5  H   UNL     1       5.056   4.051  19.033  0.00  0.00    +0.000 HD
BRANCH   4   6
ATOM      6  C   UNL     1       4.655   3.795  16.918  0.00  0.00    +0.000 C 
BRANCH   6   7
ATOM      7  C   UNL     1       5.887   4.609  16.553  0.00  0.00    +0.000 C 
BRANCH   7   8
ATOM      8  C   UNL     1       6.255   4.483  15.101  0.00  0.00    +0.000 A 
ATOM      9  C   UNL     1       7.349   5.188  14.571  0.00  0.00    +0.000 A 
ATOM     10  C   UNL     1       7.665   5.073  13.218  0.00  0.00    +0.000 A 
ATOM     11  C   UNL     1       6.913   4.248  12.387  0.00  0.00    +0.000 A 
ATOM     12  C   UNL     1       5.837   3.531  12.907  0.00  0.00    +0.000 A 
ATOM     13  C   UNL     1       5.516   3.647  14.255  0.00  0.00    +0.000 A 
ENDBRANCH   7   8
BRANCH   7  14
ATOM     14  O   UNL     1       6.960   4.145  17.378  0.00  0.00    +0.000 OA
ATOM     15  H   UNL     1       6.551   3.641  18.104  0.00  0.00    +0.000 HD
ENDBRANCH   7  14
ENDBRANCH   6   7
ENDBRANCH   4   6
ENDBRANCH   1   2
BRANCH   1  16
ATOM     16  C   UNL     1       3.118   3.122  20.961  0.00  0.00    +0.000 C 
BRANCH  16  17
ATOM     17  C   UNL     1       1.627   2.926  20.722  0.00  0.00    +0.000 C 
BRANCH  17  18
ATOM     18  C   UNL     1       1.004   4.212  20.174  0.00  0.00    +0.000 C 
BRANCH  18  19
ATOM     19  C   UNL     1       1.799   5.434  20.615  0.00  0.00    +0.000 C 
BRANCH  19  20
ATOM     20  C   UNL     1       2.487   6.094  19.427  0.00  0.00    +0.000 C 
BRANCH  20  21
ATOM     21  C   UNL     1       2.201   7.591  19.414  0.00  0.00    +0.000 C 
BRANCH  21  22
ATOM     22  C   UNL     1       2.238   8.130  17.994  0.00  0.00    +0.000 C 
BRANCH  22  23
ATOM     23  C   UNL     1       1.150   9.178  17.783  0.00  0.00    +0.000 C 
BRANCH  23  24
ATOM     24  C   UNL     1       1.035  10.054  19.024  0.00  0.00    +0.000 C 
BRANCH  24  25
ATOM     25  C   UNL     1       1.650  11.434  18.792  0.00  0.00    +0.000 C 
BRANCH  25  27
ATOM     26  C   UNL     1       0.394  12.544  20.509  0.00  0.00    +0.000 C 
ATOM     27  N   UNL     1       0.713  12.533  19.080  0.00  0.00    +0.000 NA
ATOM     28  C   UNL     1       1.248  13.838  18.685  0.00  0.00    +0.000 C 
ENDBRANCH  25  27
ENDBRANCH  24  25
ENDBRANCH  23  24
ENDBRANCH  22  23
ENDBRANCH  21  22
ENDBRANCH  20  21
ENDBRANCH  19  20
ENDBRANCH  18  19
ENDBRANCH  17  18
ENDBRANCH  16  17
ENDBRANCH   1  16
TORSDOF 16
ENDMDL
MODEL 7
REMARK VINA RESULT:      -5.8      3.529      8.718
REMARK  Name = 
REMARK  18 active torsions:
REMARK  status: ('A' for Active; 'I' for Inactive)
REMARK    1  A    between atoms: C_1  and  N_2
REMARK    2  A    between atoms: N_2  and  C_3
REMARK    3  A    between atoms: N_2  and  C_4
REMARK    4  A    between atoms: C_4  and  C_5
REMARK    5  A    between atoms: C_5  and  C_6
REMARK    6  A    between atoms: C_6  and  C_7
REMARK    7  A    between atoms: C_7  and  C_8
REMARK    8  A    between atoms: C_8  and  C_9
REMARK    9  A    between atoms: C_9  and  C_10
REMARK   10  A    between atoms: C_10  and  C_11
REMARK   11  A    between atoms: C_11  and  C_12
REMARK   12  A    between atoms: C_12  and  C_13
REMARK   13  A    between atoms: C_13  and  C_14
REMARK   14  A    between atoms: C_14  and  C_15
REMARK   15  A    between atoms: N_17  and  C_18
REMARK   16  A    between atoms: C_18  and  C_19
REMARK   17  A    between atoms: C_19  and  O_20
REMARK   18  A    between atoms: C_19  and  C_21
REMARK                            x       y       z     vdW  Elec       q    Type
REMARK                         _______ _______ _______ _____ _____    ______ ____
ROOT
ATOM      1  C   UNL     1       4.198   7.402  17.446  0.00  0.00    +0.000 C 
ENDROOT
BRANCH   1   2
ATOM      2  C   UNL     1       4.826   6.037  17.230  0.00  0.00    +0.000 C 
ATOM      3  O   UNL     1       6.040   5.861  17.177  0.00  0.00    +0.000 OA
ATOM      4  N   UNL     1       3.926   5.010  17.100  0.00  0.00    +0.000 N 
ATOM      5  H   UNL     1       2.955   5.203  17.331  0.00  0.00    +0.000 HD
BRANCH   4   6
ATOM      6  C   UNL     1       4.437   3.663  16.965  0.00  0.00    +0.000 C 
BRANCH   6   7
ATOM      7  C   UNL     1       4.382   2.942  18.303  0.00  0.00    +0.000 C 
BRANCH   7   8
ATOM      8  C   UNL     1       3.110   3.214  19.056  0.00  0.00    +0.000 A 
ATOM      9  C   UNL     1       1.901   2.613  18.669  0.00  0.00    +0.000 A 
ATOM     10  C   UNL     1       0.726   2.890  19.367  0.00  0.00    +0.000 A 
ATOM     11  C   UNL     1       0.745   3.749  20.462  0.00  0.00    +0.000 A 
ATOM     12  C   UNL     1       1.943   4.336  20.865  0.00  0.00    +0.000 A 
ATOM     13  C   UNL     1       3.115   4.066  20.168  0.00  0.00    +0.000 A 
ENDBRANCH   7   8
BRANCH   7  14
ATOM     14  O   UNL     1       5.511   3.379  19.066  0.00  0.00    +0.000 OA
ATOM     15  H   UNL     1       5.194   3.514  19.977  0.00  0.00    +0.000 HD
ENDBRANCH   7  14
ENDBRANCH   6   7
ENDBRANCH   4   6
ENDBRANCH   1   2
BRANCH   1  16
ATOM     16  C   UNL     1       2.730   7.250  17.846  0.00  0.00    +0.000 C 
BRANCH  16  17
ATOM     17  C   UNL     1       1.967   8.568  17.825  0.00  0.00    +0.000 C 
BRANCH  17  18
ATOM     18  C   UNL     1       1.502   8.935  19.235  0.00  0.00    +0.000 C 
BRANCH  18  19
ATOM     19  C   UNL     1       1.748   7.787  20.206  0.00  0.00    +0.000 C 
BRANCH  19  20
ATOM     20  C   UNL     1       0.950   7.977  21.489  0.00  0.00    +0.000 C 
BRANCH  20  21
ATOM     21  C   UNL     1       1.116   9.400  22.010  0.00  0.00    +0.000 C 
BRANCH  21  22
ATOM     22  C   UNL     1       0.119   9.683  23.121  0.00  0.00    +0.000 C 
BRANCH  22  23
ATOM     23  C   UNL     1      -1.121  10.379  22.571  0.00  0.00    +0.000 C 
BRANCH  23  24
ATOM     24  C   UNL     1      -1.136  11.833  23.025  0.00  0.00    +0.000 C 
BRANCH  24  25
ATOM     25  C   UNL     1      -1.969  12.704  22.083  0.00  0.00    +0.000 C 
BRANCH  25  27
ATOM     26  C   UNL     1       0.095  13.916  21.914  0.00  0.00    +0.000 C 
ATOM     27  N   UNL     1      -1.142  13.560  21.216  0.00  0.00    +0.000 NA
ATOM     28  C   UNL     1      -0.821  12.915  19.941  0.00  0.00    +0.000 C 
ENDBRANCH  25  27
ENDBRANCH  24  25
ENDBRANCH  23  24
ENDBRANCH  22  23
ENDBRANCH  21  22
ENDBRANCH  20  21
ENDBRANCH  19  20
ENDBRANCH  18  19
ENDBRANCH  17  18
ENDBRANCH  16  17
ENDBRANCH   1  16
TORSDOF 16
ENDMDL
MODEL 8
REMARK VINA RESULT:      -5.8      6.039     10.131
REMARK  Name = 
REMARK  18 active torsions:
REMARK  status: ('A' for Active; 'I' for Inactive)
REMARK    1  A    between atoms: C_1  and  N_2
REMARK    2  A    between atoms: N_2  and  C_3
REMARK    3  A    between atoms: N_2  and  C_4
REMARK    4  A    between atoms: C_4  and  C_5
REMARK    5  A    between atoms: C_5  and  C_6
REMARK    6  A    between atoms: C_6  and  C_7
REMARK    7  A    between atoms: C_7  and  C_8
REMARK    8  A    between atoms: C_8  and  C_9
REMARK    9  A    between atoms: C_9  and  C_10
REMARK   10  A    between atoms: C_10  and  C_11
REMARK   11  A    between atoms: C_11  and  C_12
REMARK   12  A    between atoms: C_12  and  C_13
REMARK   13  A    between atoms: C_13  and  C_14
REMARK   14  A    between atoms: C_14  and  C_15
REMARK   15  A    between atoms: N_17  and  C_18
REMARK   16  A    between atoms: C_18  and  C_19
REMARK   17  A    between atoms: C_19  and  O_20
REMARK   18  A    between atoms: C_19  and  C_21
REMARK                            x       y       z     vdW  Elec       q    Type
REMARK                         _______ _______ _______ _____ _____    ______ ____
ROOT
ATOM      1  C   UNL     1       6.193   7.232  17.442  0.00  0.00    +0.000 C 
ENDROOT
BRANCH   1   2
ATOM      2  C   UNL     1       6.031   5.799  16.969  0.00  0.00    +0.000 C 
ATOM      3  O   UNL     1       6.896   5.206  16.329  0.00  0.00    +0.000 OA
ATOM      4  N   UNL     1       4.840   5.215  17.317  0.00  0.00    +0.000 N 
ATOM      5  H   UNL     1       4.257   5.701  17.993  0.00  0.00    +0.000 HD
BRANCH   4   6
ATOM      6  C   UNL     1       4.631   3.824  16.972  0.00  0.00    +0.000 C 
BRANCH   6   7
ATOM      7  C   UNL     1       4.504   2.982  18.232  0.00  0.00    +0.000 C 
BRANCH   7   8
ATOM      8  C   UNL     1       3.172   3.150  18.909  0.00  0.00    +0.000 A 
ATOM      9  C   UNL     1       2.013   2.566  18.373  0.00  0.00    +0.000 A 
ATOM     10  C   UNL     1       0.783   2.747  19.004  0.00  0.00    +0.000 A 
ATOM     11  C   UNL     1       0.696   3.491  20.178  0.00  0.00    +0.000 A 
ATOM     12  C   UNL     1       1.844   4.059  20.727  0.00  0.00    +0.000 A 
ATOM     13  C   UNL     1       3.072   3.885  20.097  0.00  0.00    +0.000 A 
ENDBRANCH   7   8
BRANCH   7  14
ATOM     14  O   UNL     1       5.560   3.377  19.113  0.00  0.00    +0.000 OA
ATOM     15  H   UNL     1       6.377   3.375  18.583  0.00  0.00    +0.000 HD
ENDBRANCH   7  14
ENDBRANCH   6   7
ENDBRANCH   4   6
ENDBRANCH   1   2
BRANCH   1  16
ATOM     16  C   UNL     1       7.649   7.500  17.827  0.00  0.00    +0.000 C 
BRANCH  16  17
ATOM     17  C   UNL     1       8.095   8.922  17.515  0.00  0.00    +0.000 C 
BRANCH  17  18
ATOM     18  C   UNL     1       8.773   9.546  18.737  0.00  0.00    +0.000 C 
BRANCH  18  19
ATOM     19  C   UNL     1       9.526  10.813  18.354  0.00  0.00    +0.000 C 
BRANCH  19  20
ATOM     20  C   UNL     1      10.562  11.172  19.412  0.00  0.00    +0.000 C 
BRANCH  20  21
ATOM     21  C   UNL     1      11.504  12.249  18.886  0.00  0.00    +0.000 C 
BRANCH  21  22
ATOM     22  C   UNL     1      11.573  13.418  19.855  0.00  0.00    +0.000 C 
BRANCH  22  23
ATOM     23  C   UNL     1      10.386  13.398  20.812  0.00  0.00    +0.000 C 
BRANCH  23  24
ATOM     24  C   UNL     1       9.446  14.552  20.487  0.00  0.00    +0.000 C 
BRANCH  24  25
ATOM     25  C   UNL     1       8.263  14.088  19.637  0.00  0.00    +0.000 C 
BRANCH  25  27
ATOM     26  C   UNL     1       7.750  16.422  19.852  0.00  0.00    +0.000 C 
ATOM     27  N   UNL     1       7.201  15.103  19.533  0.00  0.00    +0.000 NA
ATOM     28  C   UNL     1       6.589  15.132  18.202  0.00  0.00    +0.000 C 
ENDBRANCH  25  27
ENDBRANCH  24  25
ENDBRANCH  23  24
ENDBRANCH  22  23
ENDBRANCH  21  22
ENDBRANCH  20  21
ENDBRANCH  19  20
ENDBRANCH  18  19
ENDBRANCH  17  18
ENDBRANCH  16  17
ENDBRANCH   1  16
TORSDOF 16
ENDMDL
MODEL 9
REMARK VINA RESULT:      -5.8      2.985      9.588
REMARK  Name = 
REMARK  18 active torsions:
REMARK  status: ('A' for Active; 'I' for Inactive)
REMARK    1  A    between atoms: C_1  and  N_2
REMARK    2  A    between atoms: N_2  and  C_3
REMARK    3  A    between atoms: N_2  and  C_4
REMARK    4  A    between atoms: C_4  and  C_5
REMARK    5  A    between atoms: C_5  and  C_6
REMARK    6  A    between atoms: C_6  and  C_7
REMARK    7  A    between atoms: C_7  and  C_8
REMARK    8  A    between atoms: C_8  and  C_9
REMARK    9  A    between atoms: C_9  and  C_10
REMARK   10  A    between atoms: C_10  and  C_11
REMARK   11  A    between atoms: C_11  and  C_12
REMARK   12  A    between atoms: C_12  and  C_13
REMARK   13  A    between atoms: C_13  and  C_14
REMARK   14  A    between atoms: C_14  and  C_15
REMARK   15  A    between atoms: N_17  and  C_18
REMARK   16  A    between atoms: C_18  and  C_19
REMARK   17  A    between atoms: C_19  and  O_20
REMARK   18  A    between atoms: C_19  and  C_21
REMARK                            x       y       z     vdW  Elec       q    Type
REMARK                         _______ _______ _______ _____ _____    ______ ____
ROOT
ATOM      1  C   UNL     1       1.497   6.159  20.543  0.00  0.00    +0.000 C 
ENDROOT
BRANCH   1   2
ATOM      2  C   UNL     1       1.619   4.647  20.469  0.00  0.00    +0.000 C 
ATOM      3  O   UNL     1       0.648   3.903  20.362  0.00  0.00    +0.000 OA
ATOM      4  N   UNL     1       2.906   4.176  20.529  0.00  0.00    +0.000 N 
ATOM      5  H   UNL     1       3.660   4.852  20.437  0.00  0.00    +0.000 HD
BRANCH   4   6
ATOM      6  C   UNL     1       3.122   2.752  20.391  0.00  0.00    +0.000 C 
BRANCH   6   7
ATOM      7  C   UNL     1       4.374   2.486  19.568  0.00  0.00    +0.000 C 
BRANCH   7   8
ATOM      8  C   UNL     1       4.741   3.643  18.681  0.00  0.00    +0.000 A 
ATOM      9  C   UNL     1       5.616   4.645  19.129  0.00  0.00    +0.000 A 
ATOM     10  C   UNL     1       5.931   5.721  18.300  0.00  0.00    +0.000 A 
ATOM     11  C   UNL     1       5.396   5.801  17.017  0.00  0.00    +0.000 A 
ATOM     12  C   UNL     1       4.541   4.802  16.557  0.00  0.00    +0.000 A 
ATOM     13  C   UNL     1       4.220   3.730  17.384  0.00  0.00    +0.000 A 
ENDBRANCH   7   8
BRANCH   7  14
ATOM     14  O   UNL     1       4.122   1.319  18.780  0.00  0.00    +0.000 OA
ATOM     15  H   UNL     1       3.160   1.170  18.807  0.00  0.00    +0.000 HD
ENDBRANCH   7  14
ENDBRANCH   6   7
ENDBRANCH   4   6
ENDBRANCH   1   2
BRANCH   1  16
ATOM     16  C   UNL     1       2.606   6.818  19.721  0.00  0.00    +0.000 C 
BRANCH  16  17
ATOM     17  C   UNL     1       2.198   7.086  18.278  0.00  0.00    +0.000 C 
BRANCH  17  18
ATOM     18  C   UNL     1       2.715   8.453  17.825  0.00  0.00    +0.000 C 
BRANCH  18  19
ATOM     19  C   UNL     1       1.569   9.442  17.661  0.00  0.00    +0.000 C 
BRANCH  19  20
ATOM     20  C   UNL     1       0.874   9.698  18.992  0.00  0.00    +0.000 C 
BRANCH  20  21
ATOM     21  C   UNL     1      -0.142  10.824  18.851  0.00  0.00    +0.000 C 
BRANCH  21  22
ATOM     22  C   UNL     1      -1.506  10.270  18.472  0.00  0.00    +0.000 C 
BRANCH  22  23
ATOM     23  C   UNL     1      -2.349  11.335  17.779  0.00  0.00    +0.000 C 
BRANCH  23  24
ATOM     24  C   UNL     1      -3.400  11.866  18.745  0.00  0.00    +0.000 C 
BRANCH  24  25
ATOM     25  C   UNL     1      -4.812  11.472  18.308  0.00  0.00    +0.000 C 
BRANCH  25  27
ATOM     26  C   UNL     1      -7.075  12.152  17.892  0.00  0.00    +0.000 C 
ATOM     27  N   UNL     1      -5.756  12.601  18.344  0.00  0.00    +0.000 NA
ATOM     28  C   UNL     1      -5.868  13.191  19.680  0.00  0.00    +0.000 C 
ENDBRANCH  25  27
ENDBRANCH  24  25
ENDBRANCH  23  24
ENDBRANCH  22  23
ENDBRANCH  21  22
ENDBRANCH  20  21
ENDBRANCH  19  20
ENDBRANCH  18  19
ENDBRANCH  17  18
ENDBRANCH  16  17
ENDBRANCH   1  16
TORSDOF 16
ENDMDL
