MODEL 1
REMARK VINA RESULT:      -8.0      0.000      0.000
REMARK  Name = 
REMARK  4 active torsions:
REMARK  status: ('A' for Active; 'I' for Inactive)
REMARK    1  A    between atoms: C_1  and  C_2
REMARK    2  A    between atoms: C_5  and  N_6
REMARK    3  A    between atoms: C_12  and  C_13
REMARK    4  A    between atoms: C_13  and  C_14
REMARK                            x       y       z     vdW  Elec       q    Type
REMARK                         _______ _______ _______ _____ _____    ______ ____
ROOT
ATOM      1  N   UNL     1       2.261   8.088  19.499  0.00  0.00    +0.000 N 
ATOM      2  C   UNL     1       2.525   6.729  19.560  0.00  0.00    +0.000 C 
ATOM      3  O   UNL     1       1.903   5.961  20.287  0.00  0.00    +0.000 OA
ATOM      4  N   UNL     1       3.550   6.241  18.738  0.00  0.00    +0.000 N 
ATOM      5  C   UNL     1       3.641   4.779  18.717  0.00  0.00    +0.000 C 
ATOM      6  C   UNL     1       4.980   4.220  18.255  0.00  0.00    +0.000 C 
ATOM      7  C   UNL     1       5.494   4.840  16.956  0.00  0.00    +0.000 C 
ATOM      8  C   UNL     1       5.447   6.372  17.098  0.00  0.00    +0.000 C 
ATOM      9  C   UNL     1       4.113   6.946  17.589  0.00  0.00    +0.000 C 
ATOM     10  H   UNL     1       2.570   8.593  18.687  0.00  0.00    +0.000 HD
ENDROOT
BRANCH   1  15
ATOM     11  C   UNL     1      -1.308  10.943  23.011  0.00  0.00    +0.000 C 
ATOM     12  C   UNL     1      -0.416  10.163  22.087  0.00  0.00    +0.000 A 
ATOM     13  C   UNL     1      -0.505  10.336  20.708  0.00  0.00    +0.000 A 
ATOM     14  C   UNL     1       0.349   9.636  19.848  0.00  0.00    +0.000 A 
ATOM     15  C   UNL     1       1.329   8.766  20.340  0.00  0.00    +0.000 A 
ATOM     16  C   UNL     1       1.381   8.556  21.724  0.00  0.00    +0.000 A 
ATOM     17  C   UNL     1       0.522   9.254  22.590  0.00  0.00    +0.000 A 
ENDBRANCH   1  15
BRANCH   7  18
ATOM     18  C   UNL     1       4.777   4.318  15.686  0.00  0.00    +0.000 C 
BRANCH  18  19
ATOM     19  C   UNL     1       5.613   4.307  14.414  0.00  0.00    +0.000 A 
ATOM     20  C   UNL     1       6.846   4.974  14.362  0.00  0.00    +0.000 A 
ATOM     21  C   UNL     1       7.651   4.914  13.216  0.00  0.00    +0.000 A 
ATOM     22  C   UNL     1       7.238   4.182  12.105  0.00  0.00    +0.000 A 
ATOM     23  C   UNL     1       6.024   3.503  12.144  0.00  0.00    +0.000 A 
ATOM     24  C   UNL     1       5.223   3.559  13.290  0.00  0.00    +0.000 A 
ENDBRANCH  18  19
ENDBRANCH   7  18
TORSDOF 3
ENDMDL
MODEL 2
REMARK VINA RESULT:      -8.0      0.045      1.004
REMARK  Name = 
REMARK  4 active torsions:
REMARK  status: ('A' for Active; 'I' for Inactive)
REMARK    1  A    between atoms: C_1  and  C_2
REMARK    2  A    between atoms: C_5  and  N_6
REMARK    3  A    between atoms: C_12  and  C_13
REMARK    4  A    between atoms: C_13  and  C_14
REMARK                            x       y       z     vdW  Elec       q    Type
REMARK                         _______ _______ _______ _____ _____    ______ ____
ROOT
ATOM      1  N   UNL     1       2.248   8.094  19.528  0.00  0.00    +0.000 N 
ATOM      2  C   UNL     1       2.516   6.736  19.582  0.00  0.00    +0.000 C 
ATOM      3  O   UNL     1       1.896   5.962  20.306  0.00  0.00    +0.000 OA
ATOM      4  N   UNL     1       3.544   6.255  18.759  0.00  0.00    +0.000 N 
ATOM      5  C   UNL     1       3.640   4.793  18.732  0.00  0.00    +0.000 C 
ATOM      6  C   UNL     1       4.982   4.241  18.269  0.00  0.00    +0.000 C 
ATOM      7  C   UNL     1       5.494   4.868  16.973  0.00  0.00    +0.000 C 
ATOM      8  C   UNL     1       5.442   6.399  17.122  0.00  0.00    +0.000 C 
ATOM      9  C   UNL     1       4.105   6.967  17.614  0.00  0.00    +0.000 C 
ATOM     10  H   UNL     1       2.555   8.604  18.718  0.00  0.00    +0.000 HD
ENDROOT
BRANCH   1  15
ATOM     11  C   UNL     1      -1.334  10.925  23.044  0.00  0.00    +0.000 C 
ATOM     12  C   UNL     1      -0.439  10.150  22.120  0.00  0.00    +0.000 A 
ATOM     13  C   UNL     1      -0.545  10.306  20.740  0.00  0.00    +0.000 A 
ATOM     14  C   UNL     1       0.313   9.613  19.879  0.00  0.00    +0.000 A 
ATOM     15  C   UNL     1       1.312   8.765  20.371  0.00  0.00    +0.000 A 
ATOM     16  C   UNL     1       1.382   8.570  21.756  0.00  0.00    +0.000 A 
ATOM     17  C   UNL     1       0.520   9.263  22.623  0.00  0.00    +0.000 A 
ENDBRANCH   1  15
BRANCH   7  18
ATOM     18  C   UNL     1       4.780   4.349  15.700  0.00  0.00    +0.000 C 
BRANCH  18  19
ATOM     19  C   UNL     1       5.647   4.245  14.453  0.00  0.00    +0.000 A 
ATOM     20  C   UNL     1       5.219   3.502  13.343  0.00  0.00    +0.000 A 
ATOM     21  C   UNL     1       5.983   3.455  12.168  0.00  0.00    +0.000 A 
ATOM     22  C   UNL     1       7.186   4.154  12.084  0.00  0.00    +0.000 A 
ATOM     23  C   UNL     1       7.619   4.906  13.172  0.00  0.00    +0.000 A 
ATOM     24  C   UNL     1       6.854   4.957  14.342  0.00  0.00    +0.000 A 
ENDBRANCH  18  19
ENDBRANCH   7  18
TORSDOF 3
ENDMDL
MODEL 3
REMARK VINA RESULT:      -7.6      0.132      1.423
REMARK  Name = 
REMARK  4 active torsions:
REMARK  status: ('A' for Active; 'I' for Inactive)
REMARK    1  A    between atoms: C_1  and  C_2
REMARK    2  A    between atoms: C_5  and  N_6
REMARK    3  A    between atoms: C_12  and  C_13
REMARK    4  A    between atoms: C_13  and  C_14
REMARK                            x       y       z     vdW  Elec       q    Type
REMARK                         _______ _______ _______ _____ _____    ______ ____
ROOT
ATOM      1  N   UNL     1       2.321   8.117  19.615  0.00  0.00    +0.000 N 
ATOM      2  C   UNL     1       2.515   6.745  19.637  0.00  0.00    +0.000 C 
ATOM      3  O   UNL     1       1.849   5.989  20.337  0.00  0.00    +0.000 OA
ATOM      4  N   UNL     1       3.522   6.230  18.809  0.00  0.00    +0.000 N 
ATOM      5  C   UNL     1       3.539   4.766  18.746  0.00  0.00    +0.000 C 
ATOM      6  C   UNL     1       4.852   4.154  18.278  0.00  0.00    +0.000 C 
ATOM      7  C   UNL     1       5.408   4.783  17.002  0.00  0.00    +0.000 C 
ATOM      8  C   UNL     1       5.438   6.311  17.188  0.00  0.00    +0.000 C 
ATOM      9  C   UNL     1       4.130   6.938  17.686  0.00  0.00    +0.000 C 
ATOM     10  H   UNL     1       2.662   8.629  18.820  0.00  0.00    +0.000 HD
ENDROOT
BRANCH   1  15
ATOM     11  C   UNL     1      -1.526  10.826  22.942  0.00  0.00    +0.000 C 
ATOM     12  C   UNL     1      -0.488  10.159  22.087  0.00  0.00    +0.000 A 
ATOM     13  C   UNL     1       0.472   9.329  22.661  0.00  0.00    +0.000 A 
ATOM     14  C   UNL     1       1.418   8.677  21.861  0.00  0.00    +0.000 A 
ATOM     15  C   UNL     1       1.417   8.817  20.468  0.00  0.00    +0.000 A 
ATOM     16  C   UNL     1       0.483   9.692  19.899  0.00  0.00    +0.000 A 
ATOM     17  C   UNL     1      -0.466  10.350  20.700  0.00  0.00    +0.000 A 
ENDBRANCH   1  15
BRANCH   7  18
ATOM     18  C   UNL     1       4.677   4.335  15.711  0.00  0.00    +0.000 C 
BRANCH  18  19
ATOM     19  C   UNL     1       5.545   4.225  14.466  0.00  0.00    +0.000 A 
ATOM     20  C   UNL     1       5.094   3.524  13.338  0.00  0.00    +0.000 A 
ATOM     21  C   UNL     1       5.861   3.473  12.165  0.00  0.00    +0.000 A 
ATOM     22  C   UNL     1       7.090   4.126  12.100  0.00  0.00    +0.000 A 
ATOM     23  C   UNL     1       7.547   4.837  13.206  0.00  0.00    +0.000 A 
ATOM     24  C   UNL     1       6.779   4.892  14.374  0.00  0.00    +0.000 A 
ENDBRANCH  18  19
ENDBRANCH   7  18
TORSDOF 3
ENDMDL
MODEL 4
REMARK VINA RESULT:      -7.6      0.111      1.006
REMARK  Name = 
REMARK  4 active torsions:
REMARK  status: ('A' for Active; 'I' for Inactive)
REMARK    1  A    between atoms: C_1  and  C_2
REMARK    2  A    between atoms: C_5  and  N_6
REMARK    3  A    between atoms: C_12  and  C_13
REMARK    4  A    between atoms: C_13  and  C_14
REMARK                            x       y       z     vdW  Elec       q    Type
REMARK                         _______ _______ _______ _____ _____    ______ ____
ROOT
ATOM      1  N   UNL     1       2.332   8.128  19.574  0.00  0.00    +0.000 N 
ATOM      2  C   UNL     1       2.567   6.763  19.618  0.00  0.00    +0.000 C 
ATOM      3  O   UNL     1       1.939   6.002  20.348  0.00  0.00    +0.000 OA
ATOM      4  N   UNL     1       3.569   6.261  18.776  0.00  0.00    +0.000 N 
ATOM      5  C   UNL     1       3.628   4.797  18.741  0.00  0.00    +0.000 C 
ATOM      6  C   UNL     1       4.948   4.214  18.254  0.00  0.00    +0.000 C 
ATOM      7  C   UNL     1       5.455   4.834  16.953  0.00  0.00    +0.000 C 
ATOM      8  C   UNL     1       5.444   6.365  17.110  0.00  0.00    +0.000 C 
ATOM      9  C   UNL     1       4.130   6.964  17.626  0.00  0.00    +0.000 C 
ATOM     10  H   UNL     1       2.640   8.634  18.762  0.00  0.00    +0.000 HD
ENDROOT
BRANCH   1  15
ATOM     11  C   UNL     1      -1.516  10.801  22.929  0.00  0.00    +0.000 C 
ATOM     12  C   UNL     1      -0.478  10.143  22.067  0.00  0.00    +0.000 A 
ATOM     13  C   UNL     1       0.475   9.297  22.632  0.00  0.00    +0.000 A 
ATOM     14  C   UNL     1       1.421   8.654  21.825  0.00  0.00    +0.000 A 
ATOM     15  C   UNL     1       1.427   8.818  20.435  0.00  0.00    +0.000 A 
ATOM     16  C   UNL     1       0.502   9.709  19.876  0.00  0.00    +0.000 A 
ATOM     17  C   UNL     1      -0.447  10.358  20.684  0.00  0.00    +0.000 A 
ENDBRANCH   1  15
BRANCH   7  18
ATOM     18  C   UNL     1       4.708   4.340  15.689  0.00  0.00    +0.000 C 
BRANCH  18  19
ATOM     19  C   UNL     1       5.538   4.280  14.414  0.00  0.00    +0.000 A 
ATOM     20  C   UNL     1       6.793   4.903  14.346  0.00  0.00    +0.000 A 
ATOM     21  C   UNL     1       7.590   4.798  13.198  0.00  0.00    +0.000 A 
ATOM     22  C   UNL     1       7.146   4.063  12.100  0.00  0.00    +0.000 A 
ATOM     23  C   UNL     1       5.909   3.428  12.155  0.00  0.00    +0.000 A 
ATOM     24  C   UNL     1       5.116   3.529  13.303  0.00  0.00    +0.000 A 
ENDBRANCH  18  19
ENDBRANCH   7  18
TORSDOF 3
ENDMDL
MODEL 5
REMARK VINA RESULT:      -7.5      1.690      2.964
REMARK  Name = 
REMARK  4 active torsions:
REMARK  status: ('A' for Active; 'I' for Inactive)
REMARK    1  A    between atoms: C_1  and  C_2
REMARK    2  A    between atoms: C_5  and  N_6
REMARK    3  A    between atoms: C_12  and  C_13
REMARK    4  A    between atoms: C_13  and  C_14
REMARK                            x       y       z     vdW  Elec       q    Type
REMARK                         _______ _______ _______ _____ _____    ______ ____
ROOT
ATOM      1  N   UNL     1       1.203   7.938  21.262  0.00  0.00    +0.000 N 
ATOM      2  C   UNL     1       1.624   7.709  19.962  0.00  0.00    +0.000 C 
ATOM      3  O   UNL     1       1.611   8.576  19.094  0.00  0.00    +0.000 OA
ATOM      4  N   UNL     1       2.083   6.420  19.658  0.00  0.00    +0.000 N 
ATOM      5  C   UNL     1       2.683   6.308  18.326  0.00  0.00    +0.000 C 
ATOM      6  C   UNL     1       2.753   4.894  17.764  0.00  0.00    +0.000 C 
ATOM      7  C   UNL     1       3.336   3.871  18.737  0.00  0.00    +0.000 C 
ATOM      8  C   UNL     1       2.591   3.997  20.078  0.00  0.00    +0.000 C 
ATOM      9  C   UNL     1       2.488   5.419  20.642  0.00  0.00    +0.000 C 
ATOM     10  H   UNL     1       1.523   7.311  21.979  0.00  0.00    +0.000 HD
ENDROOT
BRANCH   1  15
ATOM     11  C   UNL     1      -1.305  12.874  22.861  0.00  0.00    +0.000 C 
ATOM     12  C   UNL     1      -0.614  11.596  22.483  0.00  0.00    +0.000 A 
ATOM     13  C   UNL     1      -0.865  10.422  23.190  0.00  0.00    +0.000 A 
ATOM     14  C   UNL     1      -0.250   9.222  22.815  0.00  0.00    +0.000 A 
ATOM     15  C   UNL     1       0.611   9.155  21.714  0.00  0.00    +0.000 A 
ATOM     16  C   UNL     1       0.901  10.347  21.037  0.00  0.00    +0.000 A 
ATOM     17  C   UNL     1       0.287  11.554  21.413  0.00  0.00    +0.000 A 
ENDBRANCH   1  15
BRANCH   7  18
ATOM     18  C   UNL     1       4.877   3.948  18.881  0.00  0.00    +0.000 C 
BRANCH  18  19
ATOM     19  C   UNL     1       5.640   4.318  17.617  0.00  0.00    +0.000 A 
ATOM     20  C   UNL     1       5.475   3.577  16.437  0.00  0.00    +0.000 A 
ATOM     21  C   UNL     1       6.124   3.951  15.253  0.00  0.00    +0.000 A 
ATOM     22  C   UNL     1       6.946   5.076  15.227  0.00  0.00    +0.000 A 
ATOM     23  C   UNL     1       7.110   5.831  16.385  0.00  0.00    +0.000 A 
ATOM     24  C   UNL     1       6.458   5.460  17.566  0.00  0.00    +0.000 A 
ENDBRANCH  18  19
ENDBRANCH   7  18
TORSDOF 3
ENDMDL
MODEL 6
REMARK VINA RESULT:      -7.4      1.358      1.857
REMARK  Name = 
REMARK  4 active torsions:
REMARK  status: ('A' for Active; 'I' for Inactive)
REMARK    1  A    between atoms: C_1  and  C_2
REMARK    2  A    between atoms: C_5  and  N_6
REMARK    3  A    between atoms: C_12  and  C_13
REMARK    4  A    between atoms: C_13  and  C_14
REMARK                            x       y       z     vdW  Elec       q    Type
REMARK                         _______ _______ _______ _____ _____    ______ ____
ROOT
ATOM      1  N   UNL     1       2.202   8.593  18.048  0.00  0.00    +0.000 N 
ATOM      2  C   UNL     1       2.573   7.376  18.597  0.00  0.00    +0.000 C 
ATOM      3  O   UNL     1       1.948   6.834  19.503  0.00  0.00    +0.000 OA
ATOM      4  N   UNL     1       3.717   6.761  18.069  0.00  0.00    +0.000 N 
ATOM      5  C   UNL     1       3.934   5.400  18.566  0.00  0.00    +0.000 C 
ATOM      6  C   UNL     1       5.358   4.878  18.420  0.00  0.00    +0.000 C 
ATOM      7  C   UNL     1       5.948   5.073  17.024  0.00  0.00    +0.000 C 
ATOM      8  C   UNL     1       5.756   6.546  16.619  0.00  0.00    +0.000 C 
ATOM      9  C   UNL     1       4.333   7.094  16.787  0.00  0.00    +0.000 C 
ATOM     10  H   UNL     1       2.549   8.824  17.133  0.00  0.00    +0.000 HD
ENDROOT
BRANCH   1  15
ATOM     11  C   UNL     1      -1.960  12.066  20.005  0.00  0.00    +0.000 C 
ATOM     12  C   UNL     1      -0.902  11.119  19.515  0.00  0.00    +0.000 A 
ATOM     13  C   UNL     1      -1.068  10.438  18.311  0.00  0.00    +0.000 A 
ATOM     14  C   UNL     1      -0.067   9.583  17.835  0.00  0.00    +0.000 A 
ATOM     15  C   UNL     1       1.132   9.403  18.534  0.00  0.00    +0.000 A 
ATOM     16  C   UNL     1       1.274  10.049  19.769  0.00  0.00    +0.000 A 
ATOM     17  C   UNL     1       0.269  10.905  20.251  0.00  0.00    +0.000 A 
ENDBRANCH   1  15
BRANCH   7  18
ATOM     18  C   UNL     1       5.415   4.071  15.970  0.00  0.00    +0.000 C 
BRANCH  18  19
ATOM     19  C   UNL     1       6.076   4.139  14.601  0.00  0.00    +0.000 A 
ATOM     20  C   UNL     1       5.508   3.484  13.498  0.00  0.00    +0.000 A 
ATOM     21  C   UNL     1       6.077   3.596  12.221  0.00  0.00    +0.000 A 
ATOM     22  C   UNL     1       7.221   4.368  12.027  0.00  0.00    +0.000 A 
ATOM     23  C   UNL     1       7.790   5.035  13.108  0.00  0.00    +0.000 A 
ATOM     24  C   UNL     1       7.219   4.927  14.381  0.00  0.00    +0.000 A 
ENDBRANCH  18  19
ENDBRANCH   7  18
TORSDOF 3
ENDMDL
MODEL 7
REMARK VINA RESULT:      -7.4      2.153      3.324
REMARK  Name = 
REMARK  4 active torsions:
REMARK  status: ('A' for Active; 'I' for Inactive)
REMARK    1  A    between atoms: C_1  and  C_2
REMARK    2  A    between atoms: C_5  and  N_6
REMARK    3  A    between atoms: C_12  and  C_13
REMARK    4  A    between atoms: C_13  and  C_14
REMARK                            x       y       z     vdW  Elec       q    Type
REMARK                         _______ _______ _______ _____ _____    ______ ____
ROOT
ATOM      1  N   UNL     1       1.034   7.870  21.140  0.00  0.00    +0.000 N 
ATOM      2  C   UNL     1       1.665   7.646  19.927  0.00  0.00    +0.000 C 
ATOM      3  O   UNL     1       1.881   8.538  19.113  0.00  0.00    +0.000 OA
ATOM      4  N   UNL     1       2.065   6.332  19.650  0.00  0.00    +0.000 N 
ATOM      5  C   UNL     1       2.887   6.210  18.444  0.00  0.00    +0.000 C 
ATOM      6  C   UNL     1       2.943   4.814  17.837  0.00  0.00    +0.000 C 
ATOM      7  C   UNL     1       3.254   3.712  18.849  0.00  0.00    +0.000 C 
ATOM      8  C   UNL     1       2.289   3.861  20.039  0.00  0.00    +0.000 C 
ATOM      9  C   UNL     1       2.201   5.268  20.642  0.00  0.00    +0.000 C 
ATOM     10  H   UNL     1       1.165   7.195  21.873  0.00  0.00    +0.000 HD
ENDROOT
BRANCH   1  15
ATOM     11  C   UNL     1      -1.125  12.893  22.964  0.00  0.00    +0.000 C 
ATOM     12  C   UNL     1      -0.602  11.582  22.453  0.00  0.00    +0.000 A 
ATOM     13  C   UNL     1       0.210  11.538  21.321  0.00  0.00    +0.000 A 
ATOM     14  C   UNL     1       0.728  10.321  20.865  0.00  0.00    +0.000 A 
ATOM     15  C   UNL     1       0.470   9.120  21.536  0.00  0.00    +0.000 A 
ATOM     16  C   UNL     1      -0.388   9.160  22.643  0.00  0.00    +0.000 A 
ATOM     17  C   UNL     1      -0.912  10.380  23.102  0.00  0.00    +0.000 A 
ENDBRANCH   1  15
BRANCH   7  18
ATOM     18  C   UNL     1       4.744   3.648  19.270  0.00  0.00    +0.000 C 
BRANCH  18  19
ATOM     19  C   UNL     1       5.703   4.479  18.430  0.00  0.00    +0.000 A 
ATOM     20  C   UNL     1       5.818   4.262  17.049  0.00  0.00    +0.000 A 
ATOM     21  C   UNL     1       6.651   5.066  16.259  0.00  0.00    +0.000 A 
ATOM     22  C   UNL     1       7.380   6.104  16.837  0.00  0.00    +0.000 A 
ATOM     23  C   UNL     1       7.267   6.342  18.204  0.00  0.00    +0.000 A 
ATOM     24  C   UNL     1       6.431   5.542  18.991  0.00  0.00    +0.000 A 
ENDBRANCH  18  19
ENDBRANCH   7  18
TORSDOF 3
ENDMDL
MODEL 8
REMARK VINA RESULT:      -7.4      2.160      3.210
REMARK  Name = 
REMARK  4 active torsions:
REMARK  status: ('A' for Active; 'I' for Inactive)
REMARK    1  A    between atoms: C_1  and  C_2
REMARK    2  A    between atoms: C_5  and  N_6
REMARK    3  A    between atoms: C_12  and  C_13
REMARK    4  A    between atoms: C_13  and  C_14
REMARK                            x       y       z     vdW  Elec       q    Type
REMARK                         _______ _______ _______ _____ _____    ______ ____
ROOT
ATOM      1  N   UNL     1       1.033   7.903  21.183  0.00  0.00    +0.000 N 
ATOM      2  C   UNL     1       1.628   7.662  19.956  0.00  0.00    +0.000 C 
ATOM      3  O   UNL     1       1.807   8.539  19.117  0.00  0.00    +0.000 OA
ATOM      4  N   UNL     1       2.036   6.346  19.692  0.00  0.00    +0.000 N 
ATOM      5  C   UNL     1       2.820   6.210  18.463  0.00  0.00    +0.000 C 
ATOM      6  C   UNL     1       2.875   4.802  17.883  0.00  0.00    +0.000 C 
ATOM      7  C   UNL     1       3.231   3.725  18.907  0.00  0.00    +0.000 C 
ATOM      8  C   UNL     1       2.303   3.887  20.124  0.00  0.00    +0.000 C 
ATOM      9  C   UNL     1       2.216   5.305  20.701  0.00  0.00    +0.000 C 
ATOM     10  H   UNL     1       1.196   7.245  21.925  0.00  0.00    +0.000 HD
ENDROOT
BRANCH   1  15
ATOM     11  C   UNL     1      -1.139  12.930  22.979  0.00  0.00    +0.000 C 
ATOM     12  C   UNL     1      -0.612  11.618  22.474  0.00  0.00    +0.000 A 
ATOM     13  C   UNL     1       0.212  11.572  21.352  0.00  0.00    +0.000 A 
ATOM     14  C   UNL     1       0.733  10.354  20.902  0.00  0.00    +0.000 A 
ATOM     15  C   UNL     1       0.466   9.154  21.572  0.00  0.00    +0.000 A 
ATOM     16  C   UNL     1      -0.404   9.196  22.669  0.00  0.00    +0.000 A 
ATOM     17  C   UNL     1      -0.931  10.418  23.121  0.00  0.00    +0.000 A 
ENDBRANCH   1  15
BRANCH   7  18
ATOM     18  C   UNL     1       4.734   3.688  19.281  0.00  0.00    +0.000 C 
BRANCH  18  19
ATOM     19  C   UNL     1       5.651   4.544  18.419  0.00  0.00    +0.000 A 
ATOM     20  C   UNL     1       6.429   5.561  18.992  0.00  0.00    +0.000 A 
ATOM     21  C   UNL     1       7.323   6.311  18.215  0.00  0.00    +0.000 A 
ATOM     22  C   UNL     1       7.456   6.052  16.852  0.00  0.00    +0.000 A 
ATOM     23  C   UNL     1       6.701   5.038  16.269  0.00  0.00    +0.000 A 
ATOM     24  C   UNL     1       5.813   4.287  17.047  0.00  0.00    +0.000 A 
ENDBRANCH  18  19
ENDBRANCH   7  18
TORSDOF 3
ENDMDL
MODEL 9
REMARK VINA RESULT:      -7.4      4.858      7.507
REMARK  Name = 
REMARK  4 active torsions:
REMARK  status: ('A' for Active; 'I' for Inactive)
REMARK    1  A    between atoms: C_1  and  C_2
REMARK    2  A    between atoms: C_5  and  N_6
REMARK    3  A    between atoms: C_12  and  C_13
REMARK    4  A    between atoms: C_13  and  C_14
REMARK                            x       y       z     vdW  Elec       q    Type
REMARK                         _______ _______ _______ _____ _____    ______ ____
ROOT
ATOM      1  N   UNL     1       8.113   9.305  17.915  0.00  0.00    +0.000 N 
ATOM      2  C   UNL     1       7.982   7.974  18.278  0.00  0.00    +0.000 C 
ATOM      3  O   UNL     1       8.686   7.442  19.131  0.00  0.00    +0.000 OA
ATOM      4  N   UNL     1       6.988   7.230  17.626  0.00  0.00    +0.000 N 
ATOM      5  C   UNL     1       6.786   5.895  18.193  0.00  0.00    +0.000 C 
ATOM      6  C   UNL     1       6.101   4.896  17.270  0.00  0.00    +0.000 C 
ATOM      7  C   UNL     1       4.829   5.432  16.614  0.00  0.00    +0.000 C 
ATOM      8  C   UNL     1       5.153   6.792  15.969  0.00  0.00    +0.000 C 
ATOM      9  C   UNL     1       5.869   7.798  16.879  0.00  0.00    +0.000 C 
ATOM     10  H   UNL     1       7.333   9.750  17.464  0.00  0.00    +0.000 HD
ENDROOT
BRANCH   1  15
ATOM     11  C   UNL     1      12.135  13.008  19.737  0.00  0.00    +0.000 C 
ATOM     12  C   UNL     1      11.121  12.003  19.273  0.00  0.00    +0.000 A 
ATOM     13  C   UNL     1      10.303  11.349  20.193  0.00  0.00    +0.000 A 
ATOM     14  C   UNL     1       9.333  10.439  19.759  0.00  0.00    +0.000 A 
ATOM     15  C   UNL     1       9.136  10.174  18.399  0.00  0.00    +0.000 A 
ATOM     16  C   UNL     1       9.993  10.794  17.480  0.00  0.00    +0.000 A 
ATOM     17  C   UNL     1      10.971  11.706  17.913  0.00  0.00    +0.000 A 
ENDBRANCH   1  15
BRANCH   7  18
ATOM     18  C   UNL     1       3.605   5.478  17.563  0.00  0.00    +0.000 C 
BRANCH  18  19
ATOM     19  C   UNL     1       3.194   4.146  18.174  0.00  0.00    +0.000 A 
ATOM     20  C   UNL     1       3.263   3.942  19.560  0.00  0.00    +0.000 A 
ATOM     21  C   UNL     1       2.826   2.741  20.136  0.00  0.00    +0.000 A 
ATOM     22  C   UNL     1       2.307   1.726  19.335  0.00  0.00    +0.000 A 
ATOM     23  C   UNL     1       2.218   1.917  17.959  0.00  0.00    +0.000 A 
ATOM     24  C   UNL     1       2.650   3.118  17.385  0.00  0.00    +0.000 A 
ENDBRANCH  18  19
ENDBRANCH   7  18
TORSDOF 3
ENDMDL
