MODEL 1
REMARK VINA RESULT:      -8.6      0.000      0.000
REMARK  Name = 
REMARK  8 active torsions:
REMARK  status: ('A' for Active; 'I' for Inactive)
REMARK    1  A    between atoms: C_1  and  O_2
REMARK    2  A    between atoms: O_2  and  C_3
REMARK    3  A    between atoms: C_6  and  C_7
REMARK    4  A    between atoms: C_7  and  C_8
REMARK    5  A    between atoms: C_8  and  N_9
REMARK    6  A    between atoms: C_10  and  C_12
REMARK    7  A    between atoms: N_16  and  C_17
REMARK    8  A    between atoms: C_20  and  C_21
REMARK                            x       y       z     vdW  Elec       q    Type
REMARK                         _______ _______ _______ _____ _____    ______ ____
ROOT
ATOM      1  N   UNL     1       8.388   7.848  18.242  0.00  0.00    +0.000 N 
ATOM      2  C   UNL     1       7.446   7.142  17.525  0.00  0.00    +0.000 C 
ATOM      3  O   UNL     1       6.500   7.701  16.974  0.00  0.00    +0.000 OA
ATOM      4  H   UNL     1       9.172   7.375  18.672  0.00  0.00    +0.000 HD
ENDROOT
BRANCH   2   5
ATOM      5  C   UNL     1       7.613   5.631  17.537  0.00  0.00    +0.000 C 
ATOM      6  C   UNL     1       6.954   4.950  16.351  0.00  0.00    +0.000 C 
ATOM      7  C   UNL     1       5.585   4.568  16.863  0.00  0.00    +0.000 C 
ATOM      8  O   UNL     1       4.683   4.245  16.107  0.00  0.00    +0.000 OA
ATOM      9  N   UNL     1       5.610   4.621  18.262  0.00  0.00    +0.000 N 
ATOM     10  C   UNL     1       6.923   5.003  18.737  0.00  0.00    +0.000 C 
BRANCH   9  11
ATOM     11  C   UNL     1       4.563   4.217  19.139  0.00  0.00    +0.000 A 
ATOM     12  C   UNL     1       3.614   5.129  19.617  0.00  0.00    +0.000 A 
ATOM     13  C   UNL     1       2.558   4.721  20.441  0.00  0.00    +0.000 A 
ATOM     14  C   UNL     1       2.430   3.387  20.826  0.00  0.00    +0.000 A 
ATOM     15  C   UNL     1       1.295   2.938  21.696  0.00  0.00    +0.000 C 
ATOM     16  C   UNL     1       3.385   2.470  20.383  0.00  0.00    +0.000 A 
ATOM     17  C   UNL     1       4.432   2.881  19.546  0.00  0.00    +0.000 A 
ENDBRANCH   9  11
ENDBRANCH   2   5
BRANCH   1  18
ATOM     18  C   UNL     1       8.315   9.300  18.281  0.00  0.00    +0.000 C 
BRANCH  18  19
ATOM     19  C   UNL     1       9.174   9.917  19.382  0.00  0.00    +0.000 C 
BRANCH  19  23
ATOM     20  C   UNL     1      11.205  13.490  18.032  0.00  0.00    +0.000 A 
ATOM     21  C   UNL     1      11.751  12.708  19.050  0.00  0.00    +0.000 A 
ATOM     22  C   UNL     1      11.106  11.544  19.478  0.00  0.00    +0.000 A 
ATOM     23  C   UNL     1       9.893  11.153  18.899  0.00  0.00    +0.000 A 
ATOM     24  C   UNL     1       9.335  11.956  17.895  0.00  0.00    +0.000 A 
ATOM     25  C   UNL     1       9.989  13.116  17.463  0.00  0.00    +0.000 A 
BRANCH  20  27
ATOM     26  C   UNL     1      11.242  15.567  16.901  0.00  0.00    +0.000 C 
ATOM     27  O   UNL     1      11.919  14.612  17.711  0.00  0.00    +0.000 OA
ENDBRANCH  20  27
ENDBRANCH  19  23
ENDBRANCH  18  19
ENDBRANCH   1  18
TORSDOF 6
ENDMDL
MODEL 2
REMARK VINA RESULT:      -8.0      1.454      1.529
REMARK  Name = 
REMARK  8 active torsions:
REMARK  status: ('A' for Active; 'I' for Inactive)
REMARK    1  A    between atoms: C_1  and  O_2
REMARK    2  A    between atoms: O_2  and  C_3
REMARK    3  A    between atoms: C_6  and  C_7
REMARK    4  A    between atoms: C_7  and  C_8
REMARK    5  A    between atoms: C_8  and  N_9
REMARK    6  A    between atoms: C_10  and  C_12
REMARK    7  A    between atoms: N_16  and  C_17
REMARK    8  A    between atoms: C_20  and  C_21
REMARK                            x       y       z     vdW  Elec       q    Type
REMARK                         _______ _______ _______ _____ _____    ______ ____
ROOT
ATOM      1  N   UNL     1       8.279   7.898  17.585  0.00  0.00    +0.000 N 
ATOM      2  C   UNL     1       7.153   7.148  17.318  0.00  0.00    +0.000 C 
ATOM      3  O   UNL     1       6.029   7.642  17.328  0.00  0.00    +0.000 OA
ATOM      4  H   UNL     1       9.199   7.480  17.553  0.00  0.00    +0.000 HD
ENDROOT
BRANCH   2   5
ATOM      5  C   UNL     1       7.396   5.663  17.098  0.00  0.00    +0.000 C 
ATOM      6  C   UNL     1       7.111   5.218  15.675  0.00  0.00    +0.000 C 
ATOM      7  C   UNL     1       5.679   4.738  15.721  0.00  0.00    +0.000 C 
ATOM      8  O   UNL     1       5.027   4.562  14.704  0.00  0.00    +0.000 OA
ATOM      9  N   UNL     1       5.332   4.524  17.060  0.00  0.00    +0.000 N 
ATOM     10  C   UNL     1       6.450   4.814  17.933  0.00  0.00    +0.000 C 
BRANCH   9  11
ATOM     11  C   UNL     1       4.115   3.955  17.534  0.00  0.00    +0.000 A 
ATOM     12  C   UNL     1       2.959   4.727  17.696  0.00  0.00    +0.000 A 
ATOM     13  C   UNL     1       1.751   4.157  18.117  0.00  0.00    +0.000 A 
ATOM     14  C   UNL     1       1.670   2.794  18.405  0.00  0.00    +0.000 A 
ATOM     15  C   UNL     1       0.378   2.173  18.842  0.00  0.00    +0.000 C 
ATOM     16  C   UNL     1       2.821   2.016  18.278  0.00  0.00    +0.000 A 
ATOM     17  C   UNL     1       4.024   2.589  17.842  0.00  0.00    +0.000 A 
ENDBRANCH   9  11
ENDBRANCH   2   5
BRANCH   1  18
ATOM     18  C   UNL     1       8.147   9.331  17.800  0.00  0.00    +0.000 C 
BRANCH  18  19
ATOM     19  C   UNL     1       8.906   9.827  19.029  0.00  0.00    +0.000 C 
BRANCH  19  23
ATOM     20  C   UNL     1      10.876  13.610  18.313  0.00  0.00    +0.000 A 
ATOM     21  C   UNL     1      11.074  12.535  17.446  0.00  0.00    +0.000 A 
ATOM     22  C   UNL     1      10.426  11.316  17.666  0.00  0.00    +0.000 A 
ATOM     23  C   UNL     1       9.579  11.152  18.768  0.00  0.00    +0.000 A 
ATOM     24  C   UNL     1       9.405  12.227  19.650  0.00  0.00    +0.000 A 
ATOM     25  C   UNL     1      10.048  13.449  19.422  0.00  0.00    +0.000 A 
BRANCH  20  27
ATOM     26  C   UNL     1      10.910  15.672  17.153  0.00  0.00    +0.000 C 
ATOM     27  O   UNL     1      11.576  14.746  18.004  0.00  0.00    +0.000 OA
ENDBRANCH  20  27
ENDBRANCH  19  23
ENDBRANCH  18  19
ENDBRANCH   1  18
TORSDOF 6
ENDMDL
MODEL 3
REMARK VINA RESULT:      -7.9      1.841      2.318
REMARK  Name = 
REMARK  8 active torsions:
REMARK  status: ('A' for Active; 'I' for Inactive)
REMARK    1  A    between atoms: C_1  and  O_2
REMARK    2  A    between atoms: O_2  and  C_3
REMARK    3  A    between atoms: C_6  and  C_7
REMARK    4  A    between atoms: C_7  and  C_8
REMARK    5  A    between atoms: C_8  and  N_9
REMARK    6  A    between atoms: C_10  and  C_12
REMARK    7  A    between atoms: N_16  and  C_17
REMARK    8  A    between atoms: C_20  and  C_21
REMARK                            x       y       z     vdW  Elec       q    Type
REMARK                         _______ _______ _______ _____ _____    ______ ____
ROOT
ATOM      1  N   UNL     1       7.790   8.222  17.658  0.00  0.00    +0.000 N 
ATOM      2  C   UNL     1       7.608   6.902  18.013  0.00  0.00    +0.000 C 
ATOM      3  O   UNL     1       8.145   6.418  19.006  0.00  0.00    +0.000 OA
ATOM      4  H   UNL     1       7.324   8.609  16.849  0.00  0.00    +0.000 HD
ENDROOT
BRANCH   2   5
ATOM      5  C   UNL     1       6.772   6.076  17.048  0.00  0.00    +0.000 C 
ATOM      6  C   UNL     1       5.608   6.850  16.455  0.00  0.00    +0.000 C 
ATOM      7  C   UNL     1       4.449   6.525  17.369  0.00  0.00    +0.000 C 
ATOM      8  O   UNL     1       3.420   7.181  17.360  0.00  0.00    +0.000 OA
ATOM      9  N   UNL     1       4.785   5.388  18.113  0.00  0.00    +0.000 N 
ATOM     10  C   UNL     1       6.101   4.907  17.751  0.00  0.00    +0.000 C 
BRANCH   9  11
ATOM     11  C   UNL     1       3.926   4.680  19.002  0.00  0.00    +0.000 A 
ATOM     12  C   UNL     1       3.839   3.282  18.979  0.00  0.00    +0.000 A 
ATOM     13  C   UNL     1       3.031   2.585  19.885  0.00  0.00    +0.000 A 
ATOM     14  C   UNL     1       2.270   3.270  20.834  0.00  0.00    +0.000 A 
ATOM     15  C   UNL     1       1.414   2.531  21.817  0.00  0.00    +0.000 C 
ATOM     16  C   UNL     1       2.323   4.664  20.850  0.00  0.00    +0.000 A 
ATOM     17  C   UNL     1       3.145   5.357  19.951  0.00  0.00    +0.000 A 
ENDBRANCH   9  11
ENDBRANCH   2   5
BRANCH   1  18
ATOM     18  C   UNL     1       8.569   9.092  18.525  0.00  0.00    +0.000 C 
BRANCH  18  19
ATOM     19  C   UNL     1       8.950  10.415  17.864  0.00  0.00    +0.000 C 
BRANCH  19  23
ATOM     20  C   UNL     1      10.075  13.403  20.782  0.00  0.00    +0.000 A 
ATOM     21  C   UNL     1       9.701  13.780  19.492  0.00  0.00    +0.000 A 
ATOM     22  C   UNL     1       9.322  12.818  18.551  0.00  0.00    +0.000 A 
ATOM     23  C   UNL     1       9.325  11.459  18.887  0.00  0.00    +0.000 A 
ATOM     24  C   UNL     1       9.726  11.084  20.177  0.00  0.00    +0.000 A 
ATOM     25  C   UNL     1      10.096  12.050  21.119  0.00  0.00    +0.000 A 
BRANCH  20  27
ATOM     26  C   UNL     1      10.330  15.739  21.057  0.00  0.00    +0.000 C 
ATOM     27  O   UNL     1      10.440  14.431  21.609  0.00  0.00    +0.000 OA
ENDBRANCH  20  27
ENDBRANCH  19  23
ENDBRANCH  18  19
ENDBRANCH   1  18
TORSDOF 6
ENDMDL
MODEL 4
REMARK VINA RESULT:      -7.9      1.933      2.165
REMARK  Name = 
REMARK  8 active torsions:
REMARK  status: ('A' for Active; 'I' for Inactive)
REMARK    1  A    between atoms: C_1  and  O_2
REMARK    2  A    between atoms: O_2  and  C_3
REMARK    3  A    between atoms: C_6  and  C_7
REMARK    4  A    between atoms: C_7  and  C_8
REMARK    5  A    between atoms: C_8  and  N_9
REMARK    6  A    between atoms: C_10  and  C_12
REMARK    7  A    between atoms: N_16  and  C_17
REMARK    8  A    between atoms: C_20  and  C_21
REMARK                            x       y       z     vdW  Elec       q    Type
REMARK                         _______ _______ _______ _____ _____    ______ ____
ROOT
ATOM      1  N   UNL     1       7.809   8.348  17.715  0.00  0.00    +0.000 N 
ATOM      2  C   UNL     1       7.693   7.011  18.030  0.00  0.00    +0.000 C 
ATOM      3  O   UNL     1       8.300   6.513  18.976  0.00  0.00    +0.000 OA
ATOM      4  H   UNL     1       7.286   8.745  16.946  0.00  0.00    +0.000 HD
ENDROOT
BRANCH   2   5
ATOM      5  C   UNL     1       6.836   6.188  17.081  0.00  0.00    +0.000 C 
ATOM      6  C   UNL     1       5.648   6.958  16.532  0.00  0.00    +0.000 C 
ATOM      7  C   UNL     1       4.520   6.611  17.476  0.00  0.00    +0.000 C 
ATOM      8  O   UNL     1       3.485   7.257  17.506  0.00  0.00    +0.000 OA
ATOM      9  N   UNL     1       4.888   5.469  18.197  0.00  0.00    +0.000 N 
ATOM     10  C   UNL     1       6.197   5.004  17.789  0.00  0.00    +0.000 C 
BRANCH   9  11
ATOM     11  C   UNL     1       4.063   4.742  19.102  0.00  0.00    +0.000 A 
ATOM     12  C   UNL     1       3.157   5.389  19.950  0.00  0.00    +0.000 A 
ATOM     13  C   UNL     1       2.313   4.669  20.805  0.00  0.00    +0.000 A 
ATOM     14  C   UNL     1       2.363   3.276  20.847  0.00  0.00    +0.000 A 
ATOM     15  C   UNL     1       1.453   2.497  21.748  0.00  0.00    +0.000 C 
ATOM     16  C   UNL     1       3.281   2.617  20.029  0.00  0.00    +0.000 A 
ATOM     17  C   UNL     1       4.114   3.340  19.165  0.00  0.00    +0.000 A 
ENDBRANCH   9  11
ENDBRANCH   2   5
BRANCH   1  18
ATOM     18  C   UNL     1       8.601   9.216  18.572  0.00  0.00    +0.000 C 
BRANCH  18  19
ATOM     19  C   UNL     1       9.075  10.486  17.868  0.00  0.00    +0.000 C 
BRANCH  19  23
ATOM     20  C   UNL     1      10.053  13.591  20.717  0.00  0.00    +0.000 A 
ATOM     21  C   UNL     1      10.185  12.246  21.063  0.00  0.00    +0.000 A 
ATOM     22  C   UNL     1       9.885  11.240  20.140  0.00  0.00    +0.000 A 
ATOM     23  C   UNL     1       9.434  11.568  18.857  0.00  0.00    +0.000 A 
ATOM     24  C   UNL     1       9.277  12.920  18.522  0.00  0.00    +0.000 A 
ATOM     25  C   UNL     1       9.587  13.925  19.446  0.00  0.00    +0.000 A 
BRANCH  20  27
ATOM     26  C   UNL     1       9.326  14.744  22.650  0.00  0.00    +0.000 C 
ATOM     27  O   UNL     1      10.360  14.483  21.708  0.00  0.00    +0.000 OA
ENDBRANCH  20  27
ENDBRANCH  19  23
ENDBRANCH  18  19
ENDBRANCH   1  18
TORSDOF 6
ENDMDL
MODEL 5
REMARK VINA RESULT:      -7.9      1.358      1.836
REMARK  Name = 
REMARK  8 active torsions:
REMARK  status: ('A' for Active; 'I' for Inactive)
REMARK    1  A    between atoms: C_1  and  O_2
REMARK    2  A    between atoms: O_2  and  C_3
REMARK    3  A    between atoms: C_6  and  C_7
REMARK    4  A    between atoms: C_7  and  C_8
REMARK    5  A    between atoms: C_8  and  N_9
REMARK    6  A    between atoms: C_10  and  C_12
REMARK    7  A    between atoms: N_16  and  C_17
REMARK    8  A    between atoms: C_20  and  C_21
REMARK                            x       y       z     vdW  Elec       q    Type
REMARK                         _______ _______ _______ _____ _____    ______ ____
ROOT
ATOM      1  N   UNL     1       8.380   7.805  18.259  0.00  0.00    +0.000 N 
ATOM      2  C   UNL     1       7.455   7.086  17.532  0.00  0.00    +0.000 C 
ATOM      3  O   UNL     1       6.536   7.637  16.931  0.00  0.00    +0.000 OA
ATOM      4  H   UNL     1       9.143   7.337  18.731  0.00  0.00    +0.000 HD
ENDROOT
BRANCH   2   5
ATOM      5  C   UNL     1       7.603   5.575  17.598  0.00  0.00    +0.000 C 
ATOM      6  C   UNL     1       7.267   4.885  16.288  0.00  0.00    +0.000 C 
ATOM      7  C   UNL     1       5.809   4.514  16.434  0.00  0.00    +0.000 C 
ATOM      8  O   UNL     1       5.130   4.188  15.474  0.00  0.00    +0.000 OA
ATOM      9  N   UNL     1       5.475   4.580  17.792  0.00  0.00    +0.000 N 
ATOM     10  C   UNL     1       6.623   4.961  18.586  0.00  0.00    +0.000 C 
BRANCH   9  11
ATOM     11  C   UNL     1       4.235   4.189  18.374  0.00  0.00    +0.000 A 
ATOM     12  C   UNL     1       4.135   3.064  19.200  0.00  0.00    +0.000 A 
ATOM     13  C   UNL     1       2.925   2.708  19.810  0.00  0.00    +0.000 A 
ATOM     14  C   UNL     1       1.772   3.464  19.596  0.00  0.00    +0.000 A 
ATOM     15  C   UNL     1       0.477   3.100  20.256  0.00  0.00    +0.000 C 
ATOM     16  C   UNL     1       1.848   4.572  18.751  0.00  0.00    +0.000 A 
ATOM     17  C   UNL     1       3.064   4.932  18.155  0.00  0.00    +0.000 A 
ENDBRANCH   9  11
ENDBRANCH   2   5
BRANCH   1  18
ATOM     18  C   UNL     1       8.323   9.258  18.248  0.00  0.00    +0.000 C 
BRANCH  18  19
ATOM     19  C   UNL     1       9.324   9.907  19.201  0.00  0.00    +0.000 C 
BRANCH  19  23
ATOM     20  C   UNL     1       9.080  14.225  19.126  0.00  0.00    +0.000 A 
ATOM     21  C   UNL     1       8.994  13.491  17.942  0.00  0.00    +0.000 A 
ATOM     22  C   UNL     1       9.057  12.095  17.965  0.00  0.00    +0.000 A 
ATOM     23  C   UNL     1       9.221  11.412  19.176  0.00  0.00    +0.000 A 
ATOM     24  C   UNL     1       9.333  12.155  20.359  0.00  0.00    +0.000 A 
ATOM     25  C   UNL     1       9.261  13.553  20.334  0.00  0.00    +0.000 A 
BRANCH  20  27
ATOM     26  C   UNL     1       9.183  16.068  17.647  0.00  0.00    +0.000 C 
ATOM     27  O   UNL     1       9.023  15.584  18.976  0.00  0.00    +0.000 OA
ENDBRANCH  20  27
ENDBRANCH  19  23
ENDBRANCH  18  19
ENDBRANCH   1  18
TORSDOF 6
ENDMDL
MODEL 6
REMARK VINA RESULT:      -7.9      1.104      1.510
REMARK  Name = 
REMARK  8 active torsions:
REMARK  status: ('A' for Active; 'I' for Inactive)
REMARK    1  A    between atoms: C_1  and  O_2
REMARK    2  A    between atoms: O_2  and  C_3
REMARK    3  A    between atoms: C_6  and  C_7
REMARK    4  A    between atoms: C_7  and  C_8
REMARK    5  A    between atoms: C_8  and  N_9
REMARK    6  A    between atoms: C_10  and  C_12
REMARK    7  A    between atoms: N_16  and  C_17
REMARK    8  A    between atoms: C_20  and  C_21
REMARK                            x       y       z     vdW  Elec       q    Type
REMARK                         _______ _______ _______ _____ _____    ______ ____
ROOT
ATOM      1  N   UNL     1       8.263   7.666  18.238  0.00  0.00    +0.000 N 
ATOM      2  C   UNL     1       7.458   6.963  17.367  0.00  0.00    +0.000 C 
ATOM      3  O   UNL     1       6.664   7.528  16.620  0.00  0.00    +0.000 OA
ATOM      4  H   UNL     1       8.926   7.186  18.832  0.00  0.00    +0.000 HD
ENDROOT
BRANCH   2   5
ATOM      5  C   UNL     1       7.563   5.449  17.459  0.00  0.00    +0.000 C 
ATOM      6  C   UNL     1       7.208   4.747  16.160  0.00  0.00    +0.000 C 
ATOM      7  C   UNL     1       5.740   4.420  16.310  0.00  0.00    +0.000 C 
ATOM      8  O   UNL     1       5.053   4.098  15.355  0.00  0.00    +0.000 OA
ATOM      9  N   UNL     1       5.406   4.519  17.666  0.00  0.00    +0.000 N 
ATOM     10  C   UNL     1       6.565   4.880  18.455  0.00  0.00    +0.000 C 
BRANCH   9  11
ATOM     11  C   UNL     1       4.155   4.174  18.253  0.00  0.00    +0.000 A 
ATOM     12  C   UNL     1       3.990   4.104  19.641  0.00  0.00    +0.000 A 
ATOM     13  C   UNL     1       2.748   3.812  20.217  0.00  0.00    +0.000 A 
ATOM     14  C   UNL     1       1.633   3.563  19.416  0.00  0.00    +0.000 A 
ATOM     15  C   UNL     1       0.297   3.264  20.023  0.00  0.00    +0.000 C 
ATOM     16  C   UNL     1       1.787   3.600  18.029  0.00  0.00    +0.000 A 
ATOM     17  C   UNL     1       3.030   3.907  17.458  0.00  0.00    +0.000 A 
ENDBRANCH   9  11
ENDBRANCH   2   5
BRANCH   1  18
ATOM     18  C   UNL     1       8.237   9.120  18.217  0.00  0.00    +0.000 C 
BRANCH  18  19
ATOM     19  C   UNL     1       9.155   9.753  19.260  0.00  0.00    +0.000 C 
BRANCH  19  23
ATOM     20  C   UNL     1      10.233  13.799  18.174  0.00  0.00    +0.000 A 
ATOM     21  C   UNL     1       9.182  13.149  17.525  0.00  0.00    +0.000 A 
ATOM     22  C   UNL     1       8.821  11.847  17.884  0.00  0.00    +0.000 A 
ATOM     23  C   UNL     1       9.519  11.171  18.892  0.00  0.00    +0.000 A 
ATOM     24  C   UNL     1      10.589  11.820  19.523  0.00  0.00    +0.000 A 
ATOM     25  C   UNL     1      10.942  13.126  19.167  0.00  0.00    +0.000 A 
BRANCH  20  27
ATOM     26  C   UNL     1      11.604  15.719  18.344  0.00  0.00    +0.000 C 
ATOM     27  O   UNL     1      10.503  15.064  17.725  0.00  0.00    +0.000 OA
ENDBRANCH  20  27
ENDBRANCH  19  23
ENDBRANCH  18  19
ENDBRANCH   1  18
TORSDOF 6
ENDMDL
MODEL 7
REMARK VINA RESULT:      -7.8      1.554      1.890
REMARK  Name = 
REMARK  8 active torsions:
REMARK  status: ('A' for Active; 'I' for Inactive)
REMARK    1  A    between atoms: C_1  and  O_2
REMARK    2  A    between atoms: O_2  and  C_3
REMARK    3  A    between atoms: C_6  and  C_7
REMARK    4  A    between atoms: C_7  and  C_8
REMARK    5  A    between atoms: C_8  and  N_9
REMARK    6  A    between atoms: C_10  and  C_12
REMARK    7  A    between atoms: N_16  and  C_17
REMARK    8  A    between atoms: C_20  and  C_21
REMARK                            x       y       z     vdW  Elec       q    Type
REMARK                         _______ _______ _______ _____ _____    ______ ____
ROOT
ATOM      1  N   UNL     1       8.272   8.127  18.230  0.00  0.00    +0.000 N 
ATOM      2  C   UNL     1       7.463   7.180  17.638  0.00  0.00    +0.000 C 
ATOM      3  O   UNL     1       6.574   7.490  16.849  0.00  0.00    +0.000 OA
ATOM      4  H   UNL     1       9.013   7.853  18.861  0.00  0.00    +0.000 HD
ENDROOT
BRANCH   2   5
ATOM      5  C   UNL     1       7.693   5.748  18.093  0.00  0.00    +0.000 C 
ATOM      6  C   UNL     1       7.650   4.746  16.953  0.00  0.00    +0.000 C 
ATOM      7  C   UNL     1       6.218   4.265  16.944  0.00  0.00    +0.000 C 
ATOM      8  O   UNL     1       5.750   3.659  15.993  0.00  0.00    +0.000 OA
ATOM      9  N   UNL     1       5.634   4.603  18.170  0.00  0.00    +0.000 N 
ATOM     10  C   UNL     1       6.589   5.275  19.025  0.00  0.00    +0.000 C 
BRANCH   9  11
ATOM     11  C   UNL     1       4.336   4.225  18.618  0.00  0.00    +0.000 A 
ATOM     12  C   UNL     1       4.151   3.199  19.553  0.00  0.00    +0.000 A 
ATOM     13  C   UNL     1       2.878   2.862  20.027  0.00  0.00    +0.000 A 
ATOM     14  C   UNL     1       1.746   3.533  19.566  0.00  0.00    +0.000 A 
ATOM     15  C   UNL     1       0.381   3.189  20.079  0.00  0.00    +0.000 C 
ATOM     16  C   UNL     1       1.909   4.538  18.612  0.00  0.00    +0.000 A 
ATOM     17  C   UNL     1       3.187   4.883  18.151  0.00  0.00    +0.000 A 
ENDBRANCH   9  11
ENDBRANCH   2   5
BRANCH   1  18
ATOM     18  C   UNL     1       8.130   9.524  17.850  0.00  0.00    +0.000 C 
BRANCH  18  19
ATOM     19  C   UNL     1       9.289  10.397  18.325  0.00  0.00    +0.000 C 
BRANCH  19  23
ATOM     20  C   UNL     1       8.285  14.599  18.106  0.00  0.00    +0.000 A 
ATOM     21  C   UNL     1       9.323  14.161  18.931  0.00  0.00    +0.000 A 
ATOM     22  C   UNL     1       9.660  12.806  18.992  0.00  0.00    +0.000 A 
ATOM     23  C   UNL     1       8.951  11.865  18.236  0.00  0.00    +0.000 A 
ATOM     24  C   UNL     1       7.893  12.306  17.429  0.00  0.00    +0.000 A 
ATOM     25  C   UNL     1       7.564  13.665  17.364  0.00  0.00    +0.000 A 
BRANCH  20  27
ATOM     26  C   UNL     1       9.180  16.781  18.291  0.00  0.00    +0.000 C 
ATOM     27  O   UNL     1       8.038  15.945  18.143  0.00  0.00    +0.000 OA
ENDBRANCH  20  27
ENDBRANCH  19  23
ENDBRANCH  18  19
ENDBRANCH   1  18
TORSDOF 6
ENDMDL
MODEL 8
REMARK VINA RESULT:      -7.6      3.281      6.415
REMARK  Name = 
REMARK  8 active torsions:
REMARK  status: ('A' for Active; 'I' for Inactive)
REMARK    1  A    between atoms: C_1  and  O_2
REMARK    2  A    between atoms: O_2  and  C_3
REMARK    3  A    between atoms: C_6  and  C_7
REMARK    4  A    between atoms: C_7  and  C_8
REMARK    5  A    between atoms: C_8  and  N_9
REMARK    6  A    between atoms: C_10  and  C_12
REMARK    7  A    between atoms: N_16  and  C_17
REMARK    8  A    between atoms: C_20  and  C_21
REMARK                            x       y       z     vdW  Elec       q    Type
REMARK                         _______ _______ _______ _____ _____    ______ ____
ROOT
ATOM      1  N   UNL     1       4.215   4.001  17.628  0.00  0.00    +0.000 N 
ATOM      2  C   UNL     1       4.005   3.071  18.624  0.00  0.00    +0.000 C 
ATOM      3  O   UNL     1       3.914   1.871  18.381  0.00  0.00    +0.000 OA
ATOM      4  H   UNL     1       4.308   4.984  17.849  0.00  0.00    +0.000 HD
ENDROOT
BRANCH   2   5
ATOM      5  C   UNL     1       3.809   3.642  20.020  0.00  0.00    +0.000 C 
ATOM      6  C   UNL     1       2.451   3.311  20.614  0.00  0.00    +0.000 C 
ATOM      7  C   UNL     1       1.596   4.505  20.259  0.00  0.00    +0.000 C 
ATOM      8  O   UNL     1       0.378   4.469  20.338  0.00  0.00    +0.000 OA
ATOM      9  N   UNL     1       2.444   5.561  19.904  0.00  0.00    +0.000 N 
ATOM     10  C   UNL     1       3.831   5.162  20.009  0.00  0.00    +0.000 C 
BRANCH   9  11
ATOM     11  C   UNL     1       2.049   6.899  19.620  0.00  0.00    +0.000 A 
ATOM     12  C   UNL     1       1.488   7.723  20.603  0.00  0.00    +0.000 A 
ATOM     13  C   UNL     1       1.145   9.054  20.335  0.00  0.00    +0.000 A 
ATOM     14  C   UNL     1       1.338   9.596  19.064  0.00  0.00    +0.000 A 
ATOM     15  C   UNL     1       0.987  11.023  18.771  0.00  0.00    +0.000 C 
ATOM     16  C   UNL     1       1.868   8.779  18.064  0.00  0.00    +0.000 A 
ATOM     17  C   UNL     1       2.224   7.452  18.342  0.00  0.00    +0.000 A 
ENDBRANCH   9  11
ENDBRANCH   2   5
BRANCH   1  18
ATOM     18  C   UNL     1       4.422   3.547  16.262  0.00  0.00    +0.000 C 
BRANCH  18  19
ATOM     19  C   UNL     1       5.821   3.852  15.732  0.00  0.00    +0.000 C 
BRANCH  19  23
ATOM     20  C   UNL     1       7.844   6.869  18.081  0.00  0.00    +0.000 A 
ATOM     21  C   UNL     1       7.059   7.234  16.987  0.00  0.00    +0.000 A 
ATOM     22  C   UNL     1       6.391   6.263  16.235  0.00  0.00    +0.000 A 
ATOM     23  C   UNL     1       6.512   4.907  16.562  0.00  0.00    +0.000 A 
ATOM     24  C   UNL     1       7.322   4.544  17.646  0.00  0.00    +0.000 A 
ATOM     25  C   UNL     1       7.982   5.520  18.402  0.00  0.00    +0.000 A 
BRANCH  20  27
ATOM     26  C   UNL     1       8.286   9.192  18.146  0.00  0.00    +0.000 C 
ATOM     27  O   UNL     1       8.461   7.906  18.729  0.00  0.00    +0.000 OA
ENDBRANCH  20  27
ENDBRANCH  19  23
ENDBRANCH  18  19
ENDBRANCH   1  18
TORSDOF 6
ENDMDL
MODEL 9
REMARK VINA RESULT:      -7.6      1.716      2.179
REMARK  Name = 
REMARK  8 active torsions:
REMARK  status: ('A' for Active; 'I' for Inactive)
REMARK    1  A    between atoms: C_1  and  O_2
REMARK    2  A    between atoms: O_2  and  C_3
REMARK    3  A    between atoms: C_6  and  C_7
REMARK    4  A    between atoms: C_7  and  C_8
REMARK    5  A    between atoms: C_8  and  N_9
REMARK    6  A    between atoms: C_10  and  C_12
REMARK    7  A    between atoms: N_16  and  C_17
REMARK    8  A    between atoms: C_20  and  C_21
REMARK                            x       y       z     vdW  Elec       q    Type
REMARK                         _______ _______ _______ _____ _____    ______ ____
ROOT
ATOM      1  N   UNL     1       8.127   7.644  18.204  0.00  0.00    +0.000 N 
ATOM      2  C   UNL     1       7.280   6.980  17.343  0.00  0.00    +0.000 C 
ATOM      3  O   UNL     1       6.363   7.556  16.764  0.00  0.00    +0.000 OA
ATOM      4  H   UNL     1       8.890   7.159  18.657  0.00  0.00    +0.000 HD
ENDROOT
BRANCH   2   5
ATOM      5  C   UNL     1       7.507   5.480  17.232  0.00  0.00    +0.000 C 
ATOM      6  C   UNL     1       7.315   4.952  15.822  0.00  0.00    +0.000 C 
ATOM      7  C   UNL     1       5.874   4.499  15.793  0.00  0.00    +0.000 C 
ATOM      8  O   UNL     1       5.293   4.271  14.745  0.00  0.00    +0.000 OA
ATOM      9  N   UNL     1       5.428   4.374  17.114  0.00  0.00    +0.000 N 
ATOM     10  C   UNL     1       6.487   4.700  18.046  0.00  0.00    +0.000 C 
BRANCH   9  11
ATOM     11  C   UNL     1       4.170   3.855  17.533  0.00  0.00    +0.000 A 
ATOM     12  C   UNL     1       4.001   2.500  17.844  0.00  0.00    +0.000 A 
ATOM     13  C   UNL     1       2.776   2.001  18.301  0.00  0.00    +0.000 A 
ATOM     14  C   UNL     1       1.674   2.844  18.446  0.00  0.00    +0.000 A 
ATOM     15  C   UNL     1       0.362   2.322  18.948  0.00  0.00    +0.000 C 
ATOM     16  C   UNL     1       1.816   4.191  18.112  0.00  0.00    +0.000 A 
ATOM     17  C   UNL     1       3.050   4.689  17.669  0.00  0.00    +0.000 A 
ENDBRANCH   9  11
ENDBRANCH   2   5
BRANCH   1  18
ATOM     18  C   UNL     1       7.991   9.083  18.368  0.00  0.00    +0.000 C 
BRANCH  18  19
ATOM     19  C   UNL     1       9.142   9.871  17.747  0.00  0.00    +0.000 C 
BRANCH  19  23
ATOM     20  C   UNL     1      10.377  13.189  20.234  0.00  0.00    +0.000 A 
ATOM     21  C   UNL     1      10.005  13.400  18.906  0.00  0.00    +0.000 A 
ATOM     22  C   UNL     1       9.590  12.333  18.104  0.00  0.00    +0.000 A 
ATOM     23  C   UNL     1       9.556  11.032  18.619  0.00  0.00    +0.000 A 
ATOM     24  C   UNL     1       9.956  10.821  19.946  0.00  0.00    +0.000 A 
ATOM     25  C   UNL     1      10.362  11.893  20.748  0.00  0.00    +0.000 A 
BRANCH  20  27
ATOM     26  C   UNL     1      11.107  15.435  20.110  0.00  0.00    +0.000 C 
ATOM     27  O   UNL     1      10.779  14.307  20.913  0.00  0.00    +0.000 OA
ENDBRANCH  20  27
ENDBRANCH  19  23
ENDBRANCH  18  19
ENDBRANCH   1  18
TORSDOF 6
ENDMDL
