MODEL 1
REMARK VINA RESULT:      -7.0      0.000      0.000
REMARK  Name = 
REMARK  5 active torsions:
REMARK  status: ('A' for Active; 'I' for Inactive)
REMARK    1  A    between atoms: C_1  and  C_2
REMARK    2  A    between atoms: C_2  and  C_4
REMARK    3  A    between atoms: C_7  and  N_8
REMARK    4  A    between atoms: N_11  and  C_12
REMARK    5  A    between atoms: C_15  and  C_16
REMARK                            x       y       z     vdW  Elec       q    Type
REMARK                         _______ _______ _______ _____ _____    ______ ____
ROOT
ATOM      1  N   UNL     1       1.617   7.603  20.191  0.00  0.00    +0.000 N 
ATOM      2  C   UNL     1       2.110   7.664  18.803  0.00  0.00    +0.000 C 
ATOM      3  C   UNL     1       3.297   6.686  18.597  0.00  0.00    +0.000 C 
ATOM      4  N   UNL     1       3.082   5.278  19.043  0.00  0.00    +0.000 NA
ATOM      5  C   UNL     1       2.627   5.371  20.461  0.00  0.00    +0.000 C 
ATOM      6  C   UNL     1       1.374   6.247  20.702  0.00  0.00    +0.000 C 
ENDROOT
BRANCH   1  10
ATOM      7  C   UNL     1      -0.205  10.924  22.077  0.00  0.00    +0.000 A 
ATOM      8  C   UNL     1       0.253  11.026  20.764  0.00  0.00    +0.000 A 
ATOM      9  C   UNL     1       0.888   9.934  20.153  0.00  0.00    +0.000 A 
ATOM     10  C   UNL     1       1.080   8.713  20.819  0.00  0.00    +0.000 A 
ATOM     11  C   UNL     1       0.623   8.643  22.143  0.00  0.00    +0.000 A 
ATOM     12  C   UNL     1      -0.009   9.725  22.766  0.00  0.00    +0.000 A 
BRANCH   7  14
ATOM     13  C   UNL     1      -2.363  11.879  23.120  0.00  0.00    +0.000 C 
ATOM     14  C   UNL     1      -0.907  12.043  22.770  0.00  0.00    +0.000 C 
ATOM     15  O   UNL     1      -0.296  13.071  23.053  0.00  0.00    +0.000 OA
ENDBRANCH   7  14
ENDBRANCH   1  10
BRANCH   4  16
ATOM     16  C   UNL     1       2.130   4.538  18.182  0.00  0.00    +0.000 C 
ATOM     17  C   UNL     1       1.110   3.693  18.977  0.00  0.00    +0.000 C 
ATOM     18  C   UNL     1       1.317   2.221  18.637  0.00  0.00    +0.000 C 
ATOM     19  C   UNL     1       2.602   2.126  17.830  0.00  0.00    +0.000 C 
ATOM     20  C   UNL     1       3.793   1.667  18.663  0.00  0.00    +0.000 C 
ATOM     21  C   UNL     1       2.783   3.515  17.226  0.00  0.00    +0.000 C 
ENDBRANCH   4  16
TORSDOF 3
ENDMDL
MODEL 2
REMARK VINA RESULT:      -7.0      3.271      8.163
REMARK  Name = 
REMARK  5 active torsions:
REMARK  status: ('A' for Active; 'I' for Inactive)
REMARK    1  A    between atoms: C_1  and  C_2
REMARK    2  A    between atoms: C_2  and  C_4
REMARK    3  A    between atoms: C_7  and  N_8
REMARK    4  A    between atoms: N_11  and  C_12
REMARK    5  A    between atoms: C_15  and  C_16
REMARK                            x       y       z     vdW  Elec       q    Type
REMARK                         _______ _______ _______ _____ _____    ______ ____
ROOT
ATOM      1  N   UNL     1       1.823   7.772  19.763  0.00  0.00    +0.000 N 
ATOM      2  C   UNL     1       2.019   8.704  18.638  0.00  0.00    +0.000 C 
ATOM      3  C   UNL     1       0.775   9.614  18.452  0.00  0.00    +0.000 C 
ATOM      4  N   UNL     1       0.280  10.319  19.672  0.00  0.00    +0.000 NA
ATOM      5  C   UNL     1       0.092   9.256  20.702  0.00  0.00    +0.000 C 
ATOM      6  C   UNL     1       1.341   8.393  21.004  0.00  0.00    +0.000 C 
ENDROOT
BRANCH   1  10
ATOM      7  C   UNL     1       3.438   3.864  19.614  0.00  0.00    +0.000 A 
ATOM      8  C   UNL     1       2.444   4.179  20.540  0.00  0.00    +0.000 A 
ATOM      9  C   UNL     1       1.935   5.484  20.611  0.00  0.00    +0.000 A 
ATOM     10  C   UNL     1       2.388   6.510  19.765  0.00  0.00    +0.000 A 
ATOM     11  C   UNL     1       3.397   6.169  18.854  0.00  0.00    +0.000 A 
ATOM     12  C   UNL     1       3.917   4.872  18.774  0.00  0.00    +0.000 A 
BRANCH   7  14
ATOM     13  C   UNL     1       3.464   1.591  18.393  0.00  0.00    +0.000 C 
ATOM     14  C   UNL     1       4.000   2.489  19.477  0.00  0.00    +0.000 C 
ATOM     15  O   UNL     1       4.891   2.111  20.235  0.00  0.00    +0.000 OA
ENDBRANCH   7  14
ENDBRANCH   1  10
BRANCH   4  16
ATOM     16  C   UNL     1       1.188  11.400  20.120  0.00  0.00    +0.000 C 
ATOM     17  C   UNL     1       0.554  12.336  21.175  0.00  0.00    +0.000 C 
ATOM     18  C   UNL     1       0.467  13.744  20.596  0.00  0.00    +0.000 C 
ATOM     19  C   UNL     1       0.815  13.642  19.120  0.00  0.00    +0.000 C 
ATOM     20  C   UNL     1      -0.414  13.650  18.219  0.00  0.00    +0.000 C 
ATOM     21  C   UNL     1       1.644  12.367  19.005  0.00  0.00    +0.000 C 
ENDBRANCH   4  16
TORSDOF 3
ENDMDL
MODEL 3
REMARK VINA RESULT:      -6.8      0.735      1.278
REMARK  Name = 
REMARK  5 active torsions:
REMARK  status: ('A' for Active; 'I' for Inactive)
REMARK    1  A    between atoms: C_1  and  C_2
REMARK    2  A    between atoms: C_2  and  C_4
REMARK    3  A    between atoms: C_7  and  N_8
REMARK    4  A    between atoms: N_11  and  C_12
REMARK    5  A    between atoms: C_15  and  C_16
REMARK                            x       y       z     vdW  Elec       q    Type
REMARK                         _______ _______ _______ _____ _____    ______ ____
ROOT
ATOM      1  N   UNL     1       1.993   7.483  19.600  0.00  0.00    +0.000 N 
ATOM      2  C   UNL     1       2.430   7.606  18.197  0.00  0.00    +0.000 C 
ATOM      3  C   UNL     1       3.737   6.804  17.955  0.00  0.00    +0.000 C 
ATOM      4  N   UNL     1       3.737   5.382  18.409  0.00  0.00    +0.000 NA
ATOM      5  C   UNL     1       3.317   5.417  19.840  0.00  0.00    +0.000 C 
ATOM      6  C   UNL     1       1.961   6.109  20.119  0.00  0.00    +0.000 C 
ENDROOT
BRANCH   1  10
ATOM      7  C   UNL     1       0.121  10.716  21.585  0.00  0.00    +0.000 A 
ATOM      8  C   UNL     1       0.435   9.551  22.282  0.00  0.00    +0.000 A 
ATOM      9  C   UNL     1       1.024   8.467  21.615  0.00  0.00    +0.000 A 
ATOM     10  C   UNL     1       1.324   8.509  20.243  0.00  0.00    +0.000 A 
ATOM     11  C   UNL     1       0.984   9.687  19.563  0.00  0.00    +0.000 A 
ATOM     12  C   UNL     1       0.394  10.775  20.216  0.00  0.00    +0.000 A 
BRANCH   7  14
ATOM     13  C   UNL     1      -1.737  11.727  23.063  0.00  0.00    +0.000 C 
ATOM     14  C   UNL     1      -0.484  11.908  22.247  0.00  0.00    +0.000 C 
ATOM     15  O   UNL     1       0.045  13.012  22.129  0.00  0.00    +0.000 OA
ENDBRANCH   7  14
ENDBRANCH   1  10
BRANCH   4  16
ATOM     16  C   UNL     1       2.874   4.511  17.577  0.00  0.00    +0.000 C 
ATOM     17  C   UNL     1       1.603   4.026  18.311  0.00  0.00    +0.000 C 
ATOM     18  C   UNL     1       1.652   2.506  18.428  0.00  0.00    +0.000 C 
ATOM     19  C   UNL     1       3.041   2.069  17.994  0.00  0.00    +0.000 C 
ATOM     20  C   UNL     1       3.964   1.769  19.169  0.00  0.00    +0.000 C 
ATOM     21  C   UNL     1       3.542   3.202  17.103  0.00  0.00    +0.000 C 
ENDBRANCH   4  16
TORSDOF 3
ENDMDL
MODEL 4
REMARK VINA RESULT:      -6.7      3.238      8.125
REMARK  Name = 
REMARK  5 active torsions:
REMARK  status: ('A' for Active; 'I' for Inactive)
REMARK    1  A    between atoms: C_1  and  C_2
REMARK    2  A    between atoms: C_2  and  C_4
REMARK    3  A    between atoms: C_7  and  N_8
REMARK    4  A    between atoms: N_11  and  C_12
REMARK    5  A    between atoms: C_15  and  C_16
REMARK                            x       y       z     vdW  Elec       q    Type
REMARK                         _______ _______ _______ _____ _____    ______ ____
ROOT
ATOM      1  N   UNL     1       1.691   7.904  19.670  0.00  0.00    +0.000 N 
ATOM      2  C   UNL     1       1.824   8.903  18.594  0.00  0.00    +0.000 C 
ATOM      3  C   UNL     1       0.592   9.848  18.564  0.00  0.00    +0.000 C 
ATOM      4  N   UNL     1       0.209  10.481  19.860  0.00  0.00    +0.000 NA
ATOM      5  C   UNL     1       0.074   9.357  20.832  0.00  0.00    +0.000 C 
ATOM      6  C   UNL     1       1.321   8.452  20.982  0.00  0.00    +0.000 C 
ENDROOT
BRANCH   1  10
ATOM      7  C   UNL     1       3.453   4.065  19.437  0.00  0.00    +0.000 A 
ATOM      8  C   UNL     1       3.765   5.039  18.490  0.00  0.00    +0.000 A 
ATOM      9  C   UNL     1       3.153   6.300  18.549  0.00  0.00    +0.000 A 
ATOM     10  C   UNL     1       2.223   6.633  19.548  0.00  0.00    +0.000 A 
ATOM     11  C   UNL     1       1.917   5.630  20.478  0.00  0.00    +0.000 A 
ATOM     12  C   UNL     1       2.518   4.367  20.430  0.00  0.00    +0.000 A 
BRANCH   7  14
ATOM     13  C   UNL     1       3.514   1.641  18.552  0.00  0.00    +0.000 C 
ATOM     14  C   UNL     1       4.089   2.715  19.438  0.00  0.00    +0.000 C 
ATOM     15  O   UNL     1       5.071   2.499  20.146  0.00  0.00    +0.000 OA
ENDBRANCH   7  14
ENDBRANCH   1  10
BRANCH   4  16
ATOM     16  C   UNL     1       1.175  11.513  20.305  0.00  0.00    +0.000 C 
ATOM     17  C   UNL     1       0.588  12.496  21.343  0.00  0.00    +0.000 C 
ATOM     18  C   UNL     1       0.589  13.900  20.748  0.00  0.00    +0.000 C 
ATOM     19  C   UNL     1       0.943  13.761  19.277  0.00  0.00    +0.000 C 
ATOM     20  C   UNL     1      -0.276  13.830  18.364  0.00  0.00    +0.000 C 
ATOM     21  C   UNL     1       1.696  12.438  19.184  0.00  0.00    +0.000 C 
ENDBRANCH   4  16
TORSDOF 3
ENDMDL
MODEL 5
REMARK VINA RESULT:      -6.7      3.345      8.240
REMARK  Name = 
REMARK  5 active torsions:
REMARK  status: ('A' for Active; 'I' for Inactive)
REMARK    1  A    between atoms: C_1  and  C_2
REMARK    2  A    between atoms: C_2  and  C_4
REMARK    3  A    between atoms: C_7  and  N_8
REMARK    4  A    between atoms: N_11  and  C_12
REMARK    5  A    between atoms: C_15  and  C_16
REMARK                            x       y       z     vdW  Elec       q    Type
REMARK                         _______ _______ _______ _____ _____    ______ ____
ROOT
ATOM      1  N   UNL     1       1.524   8.386  19.629  0.00  0.00    +0.000 N 
ATOM      2  C   UNL     1       1.212   9.643  18.924  0.00  0.00    +0.000 C 
ATOM      3  C   UNL     1      -0.252  10.080  19.198  0.00  0.00    +0.000 C 
ATOM      4  N   UNL     1      -0.672  10.132  20.629  0.00  0.00    +0.000 NA
ATOM      5  C   UNL     1      -0.334   8.795  21.197  0.00  0.00    +0.000 C 
ATOM      6  C   UNL     1       1.145   8.363  21.049  0.00  0.00    +0.000 C 
ENDROOT
BRANCH   1  10
ATOM      7  C   UNL     1       4.396   5.646  18.166  0.00  0.00    +0.000 A 
ATOM      8  C   UNL     1       4.109   6.809  17.454  0.00  0.00    +0.000 A 
ATOM      9  C   UNL     1       3.132   7.699  17.923  0.00  0.00    +0.000 A 
ATOM     10  C   UNL     1       2.418   7.467  19.110  0.00  0.00    +0.000 A 
ATOM     11  C   UNL     1       2.717   6.283  19.798  0.00  0.00    +0.000 A 
ATOM     12  C   UNL     1       3.687   5.384  19.340  0.00  0.00    +0.000 A 
BRANCH   7  14
ATOM     13  C   UNL     1       5.365   4.106  16.336  0.00  0.00    +0.000 C 
ATOM     14  C   UNL     1       5.441   4.675  17.728  0.00  0.00    +0.000 C 
ATOM     15  O   UNL     1       6.349   4.361  18.496  0.00  0.00    +0.000 OA
ENDBRANCH   7  14
ENDBRANCH   1  10
BRANCH   4  16
ATOM     16  C   UNL     1      -0.044  11.248  21.374  0.00  0.00    +0.000 C 
ATOM     17  C   UNL     1      -0.700  11.516  22.748  0.00  0.00    +0.000 C 
ATOM     18  C   UNL     1      -1.300  12.918  22.743  0.00  0.00    +0.000 C 
ATOM     19  C   UNL     1      -1.234  13.426  21.312  0.00  0.00    +0.000 C 
ATOM     20  C   UNL     1      -2.566  13.310  20.580  0.00  0.00    +0.000 C 
ATOM     21  C   UNL     1      -0.114  12.619  20.665  0.00  0.00    +0.000 C 
ENDBRANCH   4  16
TORSDOF 3
ENDMDL
MODEL 6
REMARK VINA RESULT:      -6.7      3.296      8.067
REMARK  Name = 
REMARK  5 active torsions:
REMARK  status: ('A' for Active; 'I' for Inactive)
REMARK    1  A    between atoms: C_1  and  C_2
REMARK    2  A    between atoms: C_2  and  C_4
REMARK    3  A    between atoms: C_7  and  N_8
REMARK    4  A    between atoms: N_11  and  C_12
REMARK    5  A    between atoms: C_15  and  C_16
REMARK                            x       y       z     vdW  Elec       q    Type
REMARK                         _______ _______ _______ _____ _____    ______ ____
ROOT
ATOM      1  N   UNL     1       1.782   7.670  19.931  0.00  0.00    +0.000 N 
ATOM      2  C   UNL     1       1.072   8.169  21.122  0.00  0.00    +0.000 C 
ATOM      3  C   UNL     1       1.210   9.710  21.240  0.00  0.00    +0.000 C 
ATOM      4  N   UNL     1       0.867  10.503  20.023  0.00  0.00    +0.000 NA
ATOM      5  C   UNL     1       1.682   9.916  18.919  0.00  0.00    +0.000 C 
ATOM      6  C   UNL     1       1.492   8.397  18.687  0.00  0.00    +0.000 C 
ENDROOT
BRANCH   1  10
ATOM      7  C   UNL     1       3.469   3.796  19.703  0.00  0.00    +0.000 A 
ATOM      8  C   UNL     1       2.439   4.062  20.604  0.00  0.00    +0.000 A 
ATOM      9  C   UNL     1       1.905   5.355  20.702  0.00  0.00    +0.000 A 
ATOM     10  C   UNL     1       2.369   6.417  19.909  0.00  0.00    +0.000 A 
ATOM     11  C   UNL     1       3.415   6.125  19.023  0.00  0.00    +0.000 A 
ATOM     12  C   UNL     1       3.960   4.841  18.916  0.00  0.00    +0.000 A 
BRANCH   7  14
ATOM     13  C   UNL     1       3.537   1.547  18.441  0.00  0.00    +0.000 C 
ATOM     14  C   UNL     1       4.059   2.436  19.539  0.00  0.00    +0.000 C 
ATOM     15  O   UNL     1       4.962   2.063  20.285  0.00  0.00    +0.000 OA
ENDBRANCH   7  14
ENDBRANCH   1  10
BRANCH   4  16
ATOM     16  C   UNL     1      -0.584  10.508  19.727  0.00  0.00    +0.000 C 
ATOM     17  C   UNL     1      -0.903  10.626  18.219  0.00  0.00    +0.000 C 
ATOM     18  C   UNL     1      -1.665  11.924  17.977  0.00  0.00    +0.000 C 
ATOM     19  C   UNL     1      -1.612  12.721  19.270  0.00  0.00    +0.000 C 
ATOM     20  C   UNL     1      -0.562  13.825  19.243  0.00  0.00    +0.000 C 
ATOM     21  C   UNL     1      -1.369  11.679  20.357  0.00  0.00    +0.000 C 
ENDBRANCH   4  16
TORSDOF 3
ENDMDL
MODEL 7
REMARK VINA RESULT:      -6.7      3.157      8.322
REMARK  Name = 
REMARK  5 active torsions:
REMARK  status: ('A' for Active; 'I' for Inactive)
REMARK    1  A    between atoms: C_1  and  C_2
REMARK    2  A    between atoms: C_2  and  C_4
REMARK    3  A    between atoms: C_7  and  N_8
REMARK    4  A    between atoms: N_11  and  C_12
REMARK    5  A    between atoms: C_15  and  C_16
REMARK                            x       y       z     vdW  Elec       q    Type
REMARK                         _______ _______ _______ _____ _____    ______ ____
ROOT
ATOM      1  N   UNL     1       1.511   8.594  20.128  0.00  0.00    +0.000 N 
ATOM      2  C   UNL     1       1.078   8.432  21.528  0.00  0.00    +0.000 C 
ATOM      3  C   UNL     1       1.197   9.773  22.301  0.00  0.00    +0.000 C 
ATOM      4  N   UNL     1       0.564  10.965  21.663  0.00  0.00    +0.000 NA
ATOM      5  C   UNL     1       1.121  11.024  20.280  0.00  0.00    +0.000 C 
ATOM      6  C   UNL     1       0.925   9.746  19.429  0.00  0.00    +0.000 C 
ENDROOT
BRANCH   1  10
ATOM      7  C   UNL     1       3.509   5.458  18.111  0.00  0.00    +0.000 A 
ATOM      8  C   UNL     1       3.451   6.731  17.546  0.00  0.00    +0.000 A 
ATOM      9  C   UNL     1       2.758   7.761  18.200  0.00  0.00    +0.000 A 
ATOM     10  C   UNL     1       2.112   7.561  19.431  0.00  0.00    +0.000 A 
ATOM     11  C   UNL     1       2.175   6.268  19.969  0.00  0.00    +0.000 A 
ATOM     12  C   UNL     1       2.859   5.231  19.326  0.00  0.00    +0.000 A 
BRANCH   7  14
ATOM     13  C   UNL     1       5.090   4.613  16.254  0.00  0.00    +0.000 C 
ATOM     14  C   UNL     1       4.250   4.331  17.473  0.00  0.00    +0.000 C 
ATOM     15  O   UNL     1       4.178   3.200  17.948  0.00  0.00    +0.000 OA
ENDBRANCH   7  14
ENDBRANCH   1  10
BRANCH   4  16
ATOM     16  C   UNL     1      -0.916  10.913  21.686  0.00  0.00    +0.000 C 
ATOM     17  C   UNL     1      -1.580  11.872  20.671  0.00  0.00    +0.000 C 
ATOM     18  C   UNL     1      -2.404  12.903  21.435  0.00  0.00    +0.000 C 
ATOM     19  C   UNL     1      -2.067  12.742  22.908  0.00  0.00    +0.000 C 
ATOM     20  C   UNL     1      -1.075  13.786  23.407  0.00  0.00    +0.000 C 
ATOM     21  C   UNL     1      -1.557  11.311  23.034  0.00  0.00    +0.000 C 
ENDBRANCH   4  16
TORSDOF 3
ENDMDL
MODEL 8
REMARK VINA RESULT:      -6.7      1.041      1.116
REMARK  Name = 
REMARK  5 active torsions:
REMARK  status: ('A' for Active; 'I' for Inactive)
REMARK    1  A    between atoms: C_1  and  C_2
REMARK    2  A    between atoms: C_2  and  C_4
REMARK    3  A    between atoms: C_7  and  N_8
REMARK    4  A    between atoms: N_11  and  C_12
REMARK    5  A    between atoms: C_15  and  C_16
REMARK                            x       y       z     vdW  Elec       q    Type
REMARK                         _______ _______ _______ _____ _____    ______ ____
ROOT
ATOM      1  N   UNL     1       2.211   7.472  19.380  0.00  0.00    +0.000 N 
ATOM      2  C   UNL     1       2.744   7.575  18.009  0.00  0.00    +0.000 C 
ATOM      3  C   UNL     1       4.063   6.767  17.869  0.00  0.00    +0.000 C 
ATOM      4  N   UNL     1       4.028   5.352  18.343  0.00  0.00    +0.000 NA
ATOM      5  C   UNL     1       3.510   5.408  19.741  0.00  0.00    +0.000 C 
ATOM      6  C   UNL     1       2.139   6.106  19.915  0.00  0.00    +0.000 C 
ENDROOT
BRANCH   1  10
ATOM      7  C   UNL     1      -0.124  10.537  21.127  0.00  0.00    +0.000 A 
ATOM      8  C   UNL     1       0.301  10.646  19.804  0.00  0.00    +0.000 A 
ATOM      9  C   UNL     1       1.104   9.646  19.237  0.00  0.00    +0.000 A 
ATOM     10  C   UNL     1       1.502   8.509  19.960  0.00  0.00    +0.000 A 
ATOM     11  C   UNL     1       1.072   8.432  21.293  0.00  0.00    +0.000 A 
ATOM     12  C   UNL     1       0.274   9.425  21.871  0.00  0.00    +0.000 A 
BRANCH   7  14
ATOM     13  C   UNL     1      -1.511  11.297  23.166  0.00  0.00    +0.000 C 
ATOM     14  C   UNL     1      -0.998  11.558  21.775  0.00  0.00    +0.000 C 
ATOM     15  O   UNL     1      -1.279  12.596  21.177  0.00  0.00    +0.000 OA
ENDBRANCH   7  14
ENDBRANCH   1  10
BRANCH   4  16
ATOM     16  C   UNL     1       3.222   4.470  17.466  0.00  0.00    +0.000 C 
ATOM     17  C   UNL     1       1.865   4.064  18.084  0.00  0.00    +0.000 C 
ATOM     18  C   UNL     1       1.843   2.552  18.275  0.00  0.00    +0.000 C 
ATOM     19  C   UNL     1       3.251   2.048  18.008  0.00  0.00    +0.000 C 
ATOM     20  C   UNL     1       4.036   1.774  19.286  0.00  0.00    +0.000 C 
ATOM     21  C   UNL     1       3.884   3.118  17.124  0.00  0.00    +0.000 C 
ENDBRANCH   4  16
TORSDOF 3
ENDMDL
MODEL 9
REMARK VINA RESULT:      -6.6      3.064      8.384
REMARK  Name = 
REMARK  5 active torsions:
REMARK  status: ('A' for Active; 'I' for Inactive)
REMARK    1  A    between atoms: C_1  and  C_2
REMARK    2  A    between atoms: C_2  and  C_4
REMARK    3  A    between atoms: C_7  and  N_8
REMARK    4  A    between atoms: N_11  and  C_12
REMARK    5  A    between atoms: C_15  and  C_16
REMARK                            x       y       z     vdW  Elec       q    Type
REMARK                         _______ _______ _______ _____ _____    ______ ____
ROOT
ATOM      1  N   UNL     1       1.467   8.527  20.284  0.00  0.00    +0.000 N 
ATOM      2  C   UNL     1       1.032   8.508  21.692  0.00  0.00    +0.000 C 
ATOM      3  C   UNL     1       1.155   9.920  22.326  0.00  0.00    +0.000 C 
ATOM      4  N   UNL     1       0.526  11.043  21.570  0.00  0.00    +0.000 NA
ATOM      5  C   UNL     1       1.083  10.960  20.189  0.00  0.00    +0.000 C 
ATOM      6  C   UNL     1       0.884   9.603  19.471  0.00  0.00    +0.000 C 
ENDROOT
BRANCH   1  10
ATOM      7  C   UNL     1       3.135   5.144  18.368  0.00  0.00    +0.000 A 
ATOM      8  C   UNL     1       2.527   5.015  19.616  0.00  0.00    +0.000 A 
ATOM      9  C   UNL     1       2.006   6.144  20.265  0.00  0.00    +0.000 A 
ATOM     10  C   UNL     1       2.064   7.427  19.695  0.00  0.00    +0.000 A 
ATOM     11  C   UNL     1       2.694   7.529  18.447  0.00  0.00    +0.000 A 
ATOM     12  C   UNL     1       3.221   6.412  17.789  0.00  0.00    +0.000 A 
BRANCH   7  14
ATOM     13  C   UNL     1       4.660   4.225  16.500  0.00  0.00    +0.000 C 
ATOM     14  C   UNL     1       3.686   3.976  17.621  0.00  0.00    +0.000 C 
ATOM     15  O   UNL     1       3.350   2.834  17.930  0.00  0.00    +0.000 OA
ENDBRANCH   7  14
ENDBRANCH   1  10
BRANCH   4  16
ATOM     16  C   UNL     1      -0.955  10.998  21.597  0.00  0.00    +0.000 C 
ATOM     17  C   UNL     1      -1.617  11.989  20.613  0.00  0.00    +0.000 C 
ATOM     18  C   UNL     1      -2.434  13.002  21.408  0.00  0.00    +0.000 C 
ATOM     19  C   UNL     1      -2.093  12.797  22.874  0.00  0.00    +0.000 C 
ATOM     20  C   UNL     1      -1.094  13.821  23.400  0.00  0.00    +0.000 C 
ATOM     21  C   UNL     1      -1.589  11.360  22.958  0.00  0.00    +0.000 C 
ENDBRANCH   4  16
TORSDOF 3
ENDMDL
