MODEL 1
REMARK VINA RESULT:      -7.9      0.000      0.000
REMARK  Name = 
REMARK  15 active torsions:
REMARK  status: ('A' for Active; 'I' for Inactive)
REMARK    1  A    between atoms: C_1  and  C_2
REMARK    2  A    between atoms: C_3  and  C_4
REMARK    3  A    between atoms: C_4  and  C_6
REMARK    4  A    between atoms: C_6  and  C_7
REMARK    5  A    between atoms: C_7  and  C_8
REMARK    6  A    between atoms: N_16  and  C_17
REMARK    7  A    between atoms: N_23  and  C_24
REMARK    8  A    between atoms: C_24  and  C_25
REMARK    9  A    between atoms: C_25  and  O_26
REMARK   10  A    between atoms: C_25  and  C_27
REMARK   11  A    between atoms: C_27  and  N_28
REMARK   12  A    between atoms: N_28  and  C_29
REMARK   13  A    between atoms: C_29  and  C_30
REMARK   14  A    between atoms: C_29  and  C_31
REMARK   15  A    between atoms: C_29  and  C_32
REMARK                            x       y       z     vdW  Elec       q    Type
REMARK                         _______ _______ _______ _____ _____    ______ ____
ROOT
ATOM      1  C   UNL     1       4.739   7.485  16.306  0.00  0.00    +0.000 C 
ATOM      2  C   UNL     1       4.730   6.465  17.404  0.00  0.00    +0.000 A 
ATOM      3  C   UNL     1       5.817   5.926  18.010  0.00  0.00    +0.000 A 
ATOM      4  C   UNL     1       5.264   5.125  19.130  0.00  0.00    +0.000 A 
ATOM      5  O   UNL     1       5.928   4.410  19.866  0.00  0.00    +0.000 OA
ATOM      6  N   UNL     1       3.887   5.375  19.195  0.00  0.00    +0.000 N 
ATOM      7  N   UNL     1       3.519   5.992  17.957  0.00  0.00    +0.000 N 
ENDROOT
BRANCH   6   8
ATOM      8  C   UNL     1       3.019   4.433  19.773  0.00  0.00    +0.000 A 
ATOM      9  C   UNL     1       2.730   3.289  19.030  0.00  0.00    +0.000 A 
ATOM     10  C   UNL     1       1.947   2.278  19.580  0.00  0.00    +0.000 A 
ATOM     11  C   UNL     1       1.447   2.418  20.872  0.00  0.00    +0.000 A 
ATOM     12  C   UNL     1       1.690   3.587  21.599  0.00  0.00    +0.000 A 
ATOM     13  C   UNL     1       2.468   4.607  21.048  0.00  0.00    +0.000 A 
ENDBRANCH   6   8
BRANCH   3  14
ATOM     14  C   UNL     1       7.254   6.090  17.696  0.00  0.00    +0.000 C 
ATOM     15  O   UNL     1       7.831   5.315  16.930  0.00  0.00    +0.000 OA
BRANCH  14  16
ATOM     16  C   UNL     1       8.025   7.240  18.328  0.00  0.00    +0.000 C 
BRANCH  16  17
ATOM     17  C   UNL     1       7.938   8.512  17.487  0.00  0.00    +0.000 C 
BRANCH  17  18
ATOM     18  C   UNL     1       8.502   9.716  18.197  0.00  0.00    +0.000 A 
ATOM     19  C   UNL     1       8.447  10.983  17.599  0.00  0.00    +0.000 A 
ATOM     20  C   UNL     1       8.958  12.101  18.261  0.00  0.00    +0.000 A 
ATOM     21  C   UNL     1       9.536  11.963  19.521  0.00  0.00    +0.000 A 
ATOM     22  C   UNL     1       9.605  10.706  20.119  0.00  0.00    +0.000 A 
ATOM     23  C   UNL     1       9.093   9.587  19.460  0.00  0.00    +0.000 A 
ENDBRANCH  17  18
ENDBRANCH  16  17
ENDBRANCH  14  16
ENDBRANCH   3  14
BRANCH   7  24
ATOM     24  C   UNL     1       2.212   6.695  17.890  0.00  0.00    +0.000 C 
BRANCH  24  25
ATOM     25  C   UNL     1       2.190   8.097  18.578  0.00  0.00    +0.000 C 
BRANCH  25  26
ATOM     26  O   UNL     1       1.785   8.028  19.945  0.00  0.00    +0.000 OA
ATOM     27  H   UNL     1       2.343   8.639  20.452  0.00  0.00    +0.000 HD
ENDBRANCH  25  26
BRANCH  25  28
ATOM     28  C   UNL     1       1.356   9.129  17.786  0.00  0.00    +0.000 C 
BRANCH  28  29
ATOM     29  N   UNL     1       1.230  10.465  18.399  0.00  0.00    +0.000 NA
ATOM     30  H   UNL     1       1.678  11.165  17.807  0.00  0.00    +0.000 HD
BRANCH  29  31
ATOM     31  C   UNL     1      -0.154  10.878  18.731  0.00  0.00    +0.000 C 
ATOM     32  C   UNL     1      -0.363  12.382  18.478  0.00  0.00    +0.000 C 
ATOM     33  C   UNL     1      -1.119  10.110  17.803  0.00  0.00    +0.000 C 
ATOM     34  C   UNL     1      -0.531  10.529  20.183  0.00  0.00    +0.000 C 
ENDBRANCH  29  31
ENDBRANCH  28  29
ENDBRANCH  25  28
ENDBRANCH  24  25
ENDBRANCH   7  24
TORSDOF 11
ENDMDL
MODEL 2
REMARK VINA RESULT:      -7.9      0.096      1.153
REMARK  Name = 
REMARK  15 active torsions:
REMARK  status: ('A' for Active; 'I' for Inactive)
REMARK    1  A    between atoms: C_1  and  C_2
REMARK    2  A    between atoms: C_3  and  C_4
REMARK    3  A    between atoms: C_4  and  C_6
REMARK    4  A    between atoms: C_6  and  C_7
REMARK    5  A    between atoms: C_7  and  C_8
REMARK    6  A    between atoms: N_16  and  C_17
REMARK    7  A    between atoms: N_23  and  C_24
REMARK    8  A    between atoms: C_24  and  C_25
REMARK    9  A    between atoms: C_25  and  O_26
REMARK   10  A    between atoms: C_25  and  C_27
REMARK   11  A    between atoms: C_27  and  N_28
REMARK   12  A    between atoms: N_28  and  C_29
REMARK   13  A    between atoms: C_29  and  C_30
REMARK   14  A    between atoms: C_29  and  C_31
REMARK   15  A    between atoms: C_29  and  C_32
REMARK                            x       y       z     vdW  Elec       q    Type
REMARK                         _______ _______ _______ _____ _____    ______ ____
ROOT
ATOM      1  C   UNL     1       4.767   7.447  16.341  0.00  0.00    +0.000 C 
ATOM      2  C   UNL     1       4.749   6.420  17.432  0.00  0.00    +0.000 A 
ATOM      3  C   UNL     1       5.832   5.867  18.035  0.00  0.00    +0.000 A 
ATOM      4  C   UNL     1       5.272   5.063  19.149  0.00  0.00    +0.000 A 
ATOM      5  O   UNL     1       5.930   4.338  19.880  0.00  0.00    +0.000 OA
ATOM      6  N   UNL     1       3.897   5.324  19.215  0.00  0.00    +0.000 N 
ATOM      7  N   UNL     1       3.535   5.952  17.982  0.00  0.00    +0.000 N 
ENDROOT
BRANCH   6   8
ATOM      8  C   UNL     1       3.021   4.386  19.787  0.00  0.00    +0.000 A 
ATOM      9  C   UNL     1       2.727   3.246  19.038  0.00  0.00    +0.000 A 
ATOM     10  C   UNL     1       1.935   2.238  19.580  0.00  0.00    +0.000 A 
ATOM     11  C   UNL     1       1.433   2.376  20.873  0.00  0.00    +0.000 A 
ATOM     12  C   UNL     1       1.683   3.539  21.606  0.00  0.00    +0.000 A 
ATOM     13  C   UNL     1       2.468   4.556  21.061  0.00  0.00    +0.000 A 
ENDBRANCH   6   8
BRANCH   3  14
ATOM     14  C   UNL     1       7.271   6.022  17.723  0.00  0.00    +0.000 C 
ATOM     15  O   UNL     1       7.850   5.227  16.979  0.00  0.00    +0.000 OA
BRANCH  14  16
ATOM     16  C   UNL     1       8.040   7.188  18.327  0.00  0.00    +0.000 C 
BRANCH  16  17
ATOM     17  C   UNL     1       7.888   8.460  17.496  0.00  0.00    +0.000 C 
BRANCH  17  18
ATOM     18  C   UNL     1       8.494   9.667  18.167  0.00  0.00    +0.000 A 
ATOM     19  C   UNL     1       9.150   9.539  19.399  0.00  0.00    +0.000 A 
ATOM     20  C   UNL     1       9.722  10.654  20.016  0.00  0.00    +0.000 A 
ATOM     21  C   UNL     1       9.637  11.906  19.411  0.00  0.00    +0.000 A 
ATOM     22  C   UNL     1       8.978  12.045  18.191  0.00  0.00    +0.000 A 
ATOM     23  C   UNL     1       8.407  10.932  17.572  0.00  0.00    +0.000 A 
ENDBRANCH  17  18
ENDBRANCH  16  17
ENDBRANCH  14  16
ENDBRANCH   3  14
BRANCH   7  24
ATOM     24  C   UNL     1       2.233   6.667  17.919  0.00  0.00    +0.000 C 
BRANCH  24  25
ATOM     25  C   UNL     1       2.203   8.032  18.675  0.00  0.00    +0.000 C 
BRANCH  25  26
ATOM     26  O   UNL     1       1.735   7.904  20.017  0.00  0.00    +0.000 OA
ATOM     27  H   UNL     1       1.800   6.968  20.267  0.00  0.00    +0.000 HD
ENDBRANCH  25  26
BRANCH  25  28
ATOM     28  C   UNL     1       1.423   9.118  17.899  0.00  0.00    +0.000 C 
BRANCH  28  29
ATOM     29  N   UNL     1       1.236  10.404  18.598  0.00  0.00    +0.000 NA
ATOM     30  H   UNL     1       1.742  11.144  18.109  0.00  0.00    +0.000 HD
BRANCH  29  31
ATOM     31  C   UNL     1      -0.174  10.801  18.821  0.00  0.00    +0.000 C 
ATOM     32  C   UNL     1      -0.608  10.518  20.271  0.00  0.00    +0.000 C 
ATOM     33  C   UNL     1      -0.287  12.323  18.590  0.00  0.00    +0.000 C 
ATOM     34  C   UNL     1      -1.135  10.110  17.837  0.00  0.00    +0.000 C 
ENDBRANCH  29  31
ENDBRANCH  28  29
ENDBRANCH  25  28
ENDBRANCH  24  25
ENDBRANCH   7  24
TORSDOF 11
ENDMDL
MODEL 3
REMARK VINA RESULT:      -7.7      0.596      1.258
REMARK  Name = 
REMARK  15 active torsions:
REMARK  status: ('A' for Active; 'I' for Inactive)
REMARK    1  A    between atoms: C_1  and  C_2
REMARK    2  A    between atoms: C_3  and  C_4
REMARK    3  A    between atoms: C_4  and  C_6
REMARK    4  A    between atoms: C_6  and  C_7
REMARK    5  A    between atoms: C_7  and  C_8
REMARK    6  A    between atoms: N_16  and  C_17
REMARK    7  A    between atoms: N_23  and  C_24
REMARK    8  A    between atoms: C_24  and  C_25
REMARK    9  A    between atoms: C_25  and  O_26
REMARK   10  A    between atoms: C_25  and  C_27
REMARK   11  A    between atoms: C_27  and  N_28
REMARK   12  A    between atoms: N_28  and  C_29
REMARK   13  A    between atoms: C_29  and  C_30
REMARK   14  A    between atoms: C_29  and  C_31
REMARK   15  A    between atoms: C_29  and  C_32
REMARK                            x       y       z     vdW  Elec       q    Type
REMARK                         _______ _______ _______ _____ _____    ______ ____
ROOT
ATOM      1  C   UNL     1       4.681   7.531  16.404  0.00  0.00    +0.000 C 
ATOM      2  C   UNL     1       4.711   6.443  17.434  0.00  0.00    +0.000 A 
ATOM      3  C   UNL     1       5.820   5.869  17.965  0.00  0.00    +0.000 A 
ATOM      4  C   UNL     1       5.308   4.996  19.050  0.00  0.00    +0.000 A 
ATOM      5  O   UNL     1       5.998   4.237  19.714  0.00  0.00    +0.000 OA
ATOM      6  N   UNL     1       3.934   5.237  19.179  0.00  0.00    +0.000 N 
ATOM      7  N   UNL     1       3.522   5.932  17.998  0.00  0.00    +0.000 N 
ENDROOT
BRANCH   6   8
ATOM      8  C   UNL     1       3.087   4.258  19.727  0.00  0.00    +0.000 A 
ATOM      9  C   UNL     1       2.610   4.476  21.019  0.00  0.00    +0.000 A 
ATOM     10  C   UNL     1       1.700   3.589  21.587  0.00  0.00    +0.000 A 
ATOM     11  C   UNL     1       1.273   2.480  20.861  0.00  0.00    +0.000 A 
ATOM     12  C   UNL     1       1.789   2.231  19.586  0.00  0.00    +0.000 A 
ATOM     13  C   UNL     1       2.709   3.113  19.017  0.00  0.00    +0.000 A 
ENDBRANCH   6   8
BRANCH   3  14
ATOM     14  C   UNL     1       7.245   6.057  17.611  0.00  0.00    +0.000 C 
ATOM     15  O   UNL     1       7.804   5.311  16.804  0.00  0.00    +0.000 OA
BRANCH  14  16
ATOM     16  C   UNL     1       8.025   7.195  18.253  0.00  0.00    +0.000 C 
BRANCH  16  17
ATOM     17  C   UNL     1       7.807   8.517  17.519  0.00  0.00    +0.000 C 
BRANCH  17  18
ATOM     18  C   UNL     1       8.476   9.679  18.208  0.00  0.00    +0.000 A 
ATOM     19  C   UNL     1       8.511  10.941  17.599  0.00  0.00    +0.000 A 
ATOM     20  C   UNL     1       9.120  12.021  18.242  0.00  0.00    +0.000 A 
ATOM     21  C   UNL     1       9.706  11.848  19.494  0.00  0.00    +0.000 A 
ATOM     22  C   UNL     1       9.686  10.595  20.103  0.00  0.00    +0.000 A 
ATOM     23  C   UNL     1       9.077   9.514  19.463  0.00  0.00    +0.000 A 
ENDBRANCH  17  18
ENDBRANCH  16  17
ENDBRANCH  14  16
ENDBRANCH   3  14
BRANCH   7  24
ATOM     24  C   UNL     1       2.212   6.634  18.023  0.00  0.00    +0.000 C 
BRANCH  24  25
ATOM     25  C   UNL     1       2.209   7.977  18.819  0.00  0.00    +0.000 C 
BRANCH  25  26
ATOM     26  O   UNL     1       1.671   7.831  20.133  0.00  0.00    +0.000 OA
ATOM     27  H   UNL     1       0.738   8.099  20.105  0.00  0.00    +0.000 HD
ENDBRANCH  25  26
BRANCH  25  28
ATOM     28  C   UNL     1       1.519   9.121  18.042  0.00  0.00    +0.000 C 
BRANCH  28  29
ATOM     29  N   UNL     1       0.420   9.810  18.746  0.00  0.00    +0.000 NA
ATOM     30  H   UNL     1       0.156   9.286  19.581  0.00  0.00    +0.000 HD
BRANCH  29  31
ATOM     31  C   UNL     1       0.681  11.228  19.087  0.00  0.00    +0.000 C 
ATOM     32  C   UNL     1       0.942  11.399  20.595  0.00  0.00    +0.000 C 
ATOM     33  C   UNL     1       1.957  11.674  18.341  0.00  0.00    +0.000 C 
ATOM     34  C   UNL     1      -0.465  12.154  18.640  0.00  0.00    +0.000 C 
ENDBRANCH  29  31
ENDBRANCH  28  29
ENDBRANCH  25  28
ENDBRANCH  24  25
ENDBRANCH   7  24
TORSDOF 11
ENDMDL
MODEL 4
REMARK VINA RESULT:      -7.6      2.726      4.424
REMARK  Name = 
REMARK  15 active torsions:
REMARK  status: ('A' for Active; 'I' for Inactive)
REMARK    1  A    between atoms: C_1  and  C_2
REMARK    2  A    between atoms: C_3  and  C_4
REMARK    3  A    between atoms: C_4  and  C_6
REMARK    4  A    between atoms: C_6  and  C_7
REMARK    5  A    between atoms: C_7  and  C_8
REMARK    6  A    between atoms: N_16  and  C_17
REMARK    7  A    between atoms: N_23  and  C_24
REMARK    8  A    between atoms: C_24  and  C_25
REMARK    9  A    between atoms: C_25  and  O_26
REMARK   10  A    between atoms: C_25  and  C_27
REMARK   11  A    between atoms: C_27  and  N_28
REMARK   12  A    between atoms: N_28  and  C_29
REMARK   13  A    between atoms: C_29  and  C_30
REMARK   14  A    between atoms: C_29  and  C_31
REMARK   15  A    between atoms: C_29  and  C_32
REMARK                            x       y       z     vdW  Elec       q    Type
REMARK                         _______ _______ _______ _____ _____    ______ ____
ROOT
ATOM      1  C   UNL     1       4.687   7.144  16.165  0.00  0.00    +0.000 C 
ATOM      2  C   UNL     1       4.602   6.124  17.259  0.00  0.00    +0.000 A 
ATOM      3  C   UNL     1       5.644   5.464  17.826  0.00  0.00    +0.000 A 
ATOM      4  C   UNL     1       5.044   4.721  18.962  0.00  0.00    +0.000 A 
ATOM      5  O   UNL     1       5.649   3.933  19.673  0.00  0.00    +0.000 OA
ATOM      6  N   UNL     1       3.706   5.121  19.075  0.00  0.00    +0.000 N 
ATOM      7  N   UNL     1       3.366   5.783  17.852  0.00  0.00    +0.000 N 
ENDROOT
BRANCH   6   8
ATOM      8  C   UNL     1       2.759   4.277  19.680  0.00  0.00    +0.000 A 
ATOM      9  C   UNL     1       2.096   3.366  18.858  0.00  0.00    +0.000 A 
ATOM     10  C   UNL     1       1.210   2.444  19.408  0.00  0.00    +0.000 A 
ATOM     11  C   UNL     1       0.983   2.441  20.782  0.00  0.00    +0.000 A 
ATOM     12  C   UNL     1       1.605   3.386  21.602  0.00  0.00    +0.000 A 
ATOM     13  C   UNL     1       2.487   4.319  21.052  0.00  0.00    +0.000 A 
ENDBRANCH   6   8
BRANCH   3  14
ATOM     14  C   UNL     1       7.078   5.470  17.463  0.00  0.00    +0.000 C 
ATOM     15  O   UNL     1       7.888   6.166  18.080  0.00  0.00    +0.000 OA
BRANCH  14  16
ATOM     16  C   UNL     1       7.557   4.596  16.313  0.00  0.00    +0.000 C 
BRANCH  16  17
ATOM     17  C   UNL     1       7.536   5.347  14.983  0.00  0.00    +0.000 C 
BRANCH  17  18
ATOM     18  C   UNL     1       6.821   4.584  13.898  0.00  0.00    +0.000 A 
ATOM     19  C   UNL     1       5.509   4.129  14.096  0.00  0.00    +0.000 A 
ATOM     20  C   UNL     1       4.841   3.432  13.087  0.00  0.00    +0.000 A 
ATOM     21  C   UNL     1       5.479   3.177  11.874  0.00  0.00    +0.000 A 
ATOM     22  C   UNL     1       6.787   3.616  11.672  0.00  0.00    +0.000 A 
ATOM     23  C   UNL     1       7.456   4.314  12.679  0.00  0.00    +0.000 A 
ENDBRANCH  17  18
ENDBRANCH  16  17
ENDBRANCH  14  16
ENDBRANCH   3  14
BRANCH   7  24
ATOM     24  C   UNL     1       2.143   6.627  17.832  0.00  0.00    +0.000 C 
BRANCH  24  25
ATOM     25  C   UNL     1       2.277   7.986  18.589  0.00  0.00    +0.000 C 
BRANCH  25  26
ATOM     26  O   UNL     1       1.957   7.874  19.975  0.00  0.00    +0.000 OA
ATOM     27  H   UNL     1       1.793   6.937  20.168  0.00  0.00    +0.000 HD
ENDBRANCH  25  26
BRANCH  25  28
ATOM     28  C   UNL     1       1.479   9.121  17.907  0.00  0.00    +0.000 C 
BRANCH  28  29
ATOM     29  N   UNL     1       1.409  10.396  18.646  0.00  0.00    +0.000 NA
ATOM     30  H   UNL     1       1.912  11.123  18.136  0.00  0.00    +0.000 HD
BRANCH  29  31
ATOM     31  C   UNL     1       0.041  10.854  18.984  0.00  0.00    +0.000 C 
ATOM     32  C   UNL     1      -0.086  12.381  18.843  0.00  0.00    +0.000 C 
ATOM     33  C   UNL     1      -0.942  10.209  17.984  0.00  0.00    +0.000 C 
ATOM     34  C   UNL     1      -0.384  10.417  20.398  0.00  0.00    +0.000 C 
ENDBRANCH  29  31
ENDBRANCH  28  29
ENDBRANCH  25  28
ENDBRANCH  24  25
ENDBRANCH   7  24
TORSDOF 11
ENDMDL
MODEL 5
REMARK VINA RESULT:      -7.5      2.674      4.330
REMARK  Name = 
REMARK  15 active torsions:
REMARK  status: ('A' for Active; 'I' for Inactive)
REMARK    1  A    between atoms: C_1  and  C_2
REMARK    2  A    between atoms: C_3  and  C_4
REMARK    3  A    between atoms: C_4  and  C_6
REMARK    4  A    between atoms: C_6  and  C_7
REMARK    5  A    between atoms: C_7  and  C_8
REMARK    6  A    between atoms: N_16  and  C_17
REMARK    7  A    between atoms: N_23  and  C_24
REMARK    8  A    between atoms: C_24  and  C_25
REMARK    9  A    between atoms: C_25  and  O_26
REMARK   10  A    between atoms: C_25  and  C_27
REMARK   11  A    between atoms: C_27  and  N_28
REMARK   12  A    between atoms: N_28  and  C_29
REMARK   13  A    between atoms: C_29  and  C_30
REMARK   14  A    between atoms: C_29  and  C_31
REMARK   15  A    between atoms: C_29  and  C_32
REMARK                            x       y       z     vdW  Elec       q    Type
REMARK                         _______ _______ _______ _____ _____    ______ ____
ROOT
ATOM      1  C   UNL     1       4.709   7.515  16.692  0.00  0.00    +0.000 C 
ATOM      2  C   UNL     1       4.602   6.344  17.620  0.00  0.00    +0.000 A 
ATOM      3  C   UNL     1       5.630   5.590  18.086  0.00  0.00    +0.000 A 
ATOM      4  C   UNL     1       5.012   4.694  19.094  0.00  0.00    +0.000 A 
ATOM      5  O   UNL     1       5.602   3.799  19.680  0.00  0.00    +0.000 OA
ATOM      6  N   UNL     1       3.679   5.092  19.259  0.00  0.00    +0.000 N 
ATOM      7  N   UNL     1       3.358   5.936  18.149  0.00  0.00    +0.000 N 
ENDROOT
BRANCH   6   8
ATOM      8  C   UNL     1       2.716   4.181  19.726  0.00  0.00    +0.000 A 
ATOM      9  C   UNL     1       2.540   4.088  21.107  0.00  0.00    +0.000 A 
ATOM     10  C   UNL     1       1.544   3.270  21.631  0.00  0.00    +0.000 A 
ATOM     11  C   UNL     1       0.729   2.538  20.770  0.00  0.00    +0.000 A 
ATOM     12  C   UNL     1       0.937   2.588  19.389  0.00  0.00    +0.000 A 
ATOM     13  C   UNL     1       1.942   3.401  18.861  0.00  0.00    +0.000 A 
ENDBRANCH   6   8
BRANCH   3  14
ATOM     14  C   UNL     1       7.068   5.630  17.735  0.00  0.00    +0.000 C 
ATOM     15  O   UNL     1       7.840   6.404  18.303  0.00  0.00    +0.000 OA
BRANCH  14  16
ATOM     16  C   UNL     1       7.595   4.692  16.658  0.00  0.00    +0.000 C 
BRANCH  16  17
ATOM     17  C   UNL     1       6.465   4.102  15.816  0.00  0.00    +0.000 C 
BRANCH  17  18
ATOM     18  C   UNL     1       6.713   4.241  14.336  0.00  0.00    +0.000 A 
ATOM     19  C   UNL     1       7.605   5.209  13.853  0.00  0.00    +0.000 A 
ATOM     20  C   UNL     1       7.844   5.331  12.482  0.00  0.00    +0.000 A 
ATOM     21  C   UNL     1       7.189   4.492  11.582  0.00  0.00    +0.000 A 
ATOM     22  C   UNL     1       6.292   3.534  12.052  0.00  0.00    +0.000 A 
ATOM     23  C   UNL     1       6.053   3.409  13.422  0.00  0.00    +0.000 A 
ENDBRANCH  17  18
ENDBRANCH  16  17
ENDBRANCH  14  16
ENDBRANCH   3  14
BRANCH   7  24
ATOM     24  C   UNL     1       2.147   6.791  18.250  0.00  0.00    +0.000 C 
BRANCH  24  25
ATOM     25  C   UNL     1       2.248   7.941  19.301  0.00  0.00    +0.000 C 
BRANCH  25  26
ATOM     26  O   UNL     1       1.877   7.516  20.613  0.00  0.00    +0.000 OA
ATOM     27  H   UNL     1       2.476   6.798  20.874  0.00  0.00    +0.000 HD
ENDBRANCH  25  26
BRANCH  25  28
ATOM     28  C   UNL     1       1.470   9.205  18.868  0.00  0.00    +0.000 C 
BRANCH  28  29
ATOM     29  N   UNL     1       0.372   9.626  19.759  0.00  0.00    +0.000 NA
ATOM     30  H   UNL     1       0.658   9.532  20.734  0.00  0.00    +0.000 HD
BRANCH  29  31
ATOM     31  C   UNL     1      -0.160  10.985  19.504  0.00  0.00    +0.000 C 
ATOM     32  C   UNL     1      -0.640  11.648  20.808  0.00  0.00    +0.000 C 
ATOM     33  C   UNL     1       0.984  11.850  18.935  0.00  0.00    +0.000 C 
ATOM     34  C   UNL     1      -1.296  10.978  18.465  0.00  0.00    +0.000 C 
ENDBRANCH  29  31
ENDBRANCH  28  29
ENDBRANCH  25  28
ENDBRANCH  24  25
ENDBRANCH   7  24
TORSDOF 11
ENDMDL
MODEL 6
REMARK VINA RESULT:      -7.5      2.645      4.357
REMARK  Name = 
REMARK  15 active torsions:
REMARK  status: ('A' for Active; 'I' for Inactive)
REMARK    1  A    between atoms: C_1  and  C_2
REMARK    2  A    between atoms: C_3  and  C_4
REMARK    3  A    between atoms: C_4  and  C_6
REMARK    4  A    between atoms: C_6  and  C_7
REMARK    5  A    between atoms: C_7  and  C_8
REMARK    6  A    between atoms: N_16  and  C_17
REMARK    7  A    between atoms: N_23  and  C_24
REMARK    8  A    between atoms: C_24  and  C_25
REMARK    9  A    between atoms: C_25  and  O_26
REMARK   10  A    between atoms: C_25  and  C_27
REMARK   11  A    between atoms: C_27  and  N_28
REMARK   12  A    between atoms: N_28  and  C_29
REMARK   13  A    between atoms: C_29  and  C_30
REMARK   14  A    between atoms: C_29  and  C_31
REMARK   15  A    between atoms: C_29  and  C_32
REMARK                            x       y       z     vdW  Elec       q    Type
REMARK                         _______ _______ _______ _____ _____    ______ ____
ROOT
ATOM      1  C   UNL     1       4.531   7.546  16.521  0.00  0.00    +0.000 C 
ATOM      2  C   UNL     1       4.500   6.407  17.495  0.00  0.00    +0.000 A 
ATOM      3  C   UNL     1       5.570   5.706  17.948  0.00  0.00    +0.000 A 
ATOM      4  C   UNL     1       5.021   4.828  19.011  0.00  0.00    +0.000 A 
ATOM      5  O   UNL     1       5.662   3.976  19.606  0.00  0.00    +0.000 OA
ATOM      6  N   UNL     1       3.682   5.188  19.213  0.00  0.00    +0.000 N 
ATOM      7  N   UNL     1       3.291   5.978  18.085  0.00  0.00    +0.000 N 
ENDROOT
BRANCH   6   8
ATOM      8  C   UNL     1       2.769   4.264  19.749  0.00  0.00    +0.000 A 
ATOM      9  C   UNL     1       2.664   4.202  21.139  0.00  0.00    +0.000 A 
ATOM     10  C   UNL     1       1.718   3.371  21.732  0.00  0.00    +0.000 A 
ATOM     11  C   UNL     1       0.882   2.595  20.931  0.00  0.00    +0.000 A 
ATOM     12  C   UNL     1       1.021   2.616  19.540  0.00  0.00    +0.000 A 
ATOM     13  C   UNL     1       1.975   3.441  18.943  0.00  0.00    +0.000 A 
ENDBRANCH   6   8
BRANCH   3  14
ATOM     14  C   UNL     1       6.991   5.780  17.541  0.00  0.00    +0.000 C 
ATOM     15  O   UNL     1       7.722   6.687  17.945  0.00  0.00    +0.000 OA
BRANCH  14  16
ATOM     16  C   UNL     1       7.554   4.712  16.614  0.00  0.00    +0.000 C 
BRANCH  16  17
ATOM     17  C   UNL     1       6.460   4.053  15.776  0.00  0.00    +0.000 C 
BRANCH  17  18
ATOM     18  C   UNL     1       6.697   4.202  14.295  0.00  0.00    +0.000 A 
ATOM     19  C   UNL     1       6.033   3.369  13.383  0.00  0.00    +0.000 A 
ATOM     20  C   UNL     1       6.242   3.513  12.010  0.00  0.00    +0.000 A 
ATOM     21  C   UNL     1       7.122   4.484  11.536  0.00  0.00    +0.000 A 
ATOM     22  C   UNL     1       7.794   5.310  12.435  0.00  0.00    +0.000 A 
ATOM     23  C   UNL     1       7.585   5.169  13.808  0.00  0.00    +0.000 A 
ENDBRANCH  17  18
ENDBRANCH  16  17
ENDBRANCH  14  16
ENDBRANCH   3  14
BRANCH   7  24
ATOM     24  C   UNL     1       2.055   6.796  18.202  0.00  0.00    +0.000 C 
BRANCH  24  25
ATOM     25  C   UNL     1       2.201   8.073  19.089  0.00  0.00    +0.000 C 
BRANCH  25  26
ATOM     26  O   UNL     1       1.915   7.819  20.464  0.00  0.00    +0.000 OA
ATOM     27  H   UNL     1       1.493   8.612  20.832  0.00  0.00    +0.000 HD
ENDBRANCH  25  26
BRANCH  25  28
ATOM     28  C   UNL     1       1.381   9.265  18.544  0.00  0.00    +0.000 C 
BRANCH  28  29
ATOM     29  N   UNL     1       1.260  10.430  19.441  0.00  0.00    +0.000 NA
ATOM     30  H   UNL     1       1.793  11.216  19.067  0.00  0.00    +0.000 HD
BRANCH  29  31
ATOM     31  C   UNL     1      -0.128  10.846  19.750  0.00  0.00    +0.000 C 
ATOM     32  C   UNL     1      -1.131  10.213  18.768  0.00  0.00    +0.000 C 
ATOM     33  C   UNL     1      -0.478  10.338  21.165  0.00  0.00    +0.000 C 
ATOM     34  C   UNL     1      -0.288  12.377  19.755  0.00  0.00    +0.000 C 
ENDBRANCH  29  31
ENDBRANCH  28  29
ENDBRANCH  25  28
ENDBRANCH  24  25
ENDBRANCH   7  24
TORSDOF 11
ENDMDL
MODEL 7
REMARK VINA RESULT:      -7.4      3.981      7.464
REMARK  Name = 
REMARK  15 active torsions:
REMARK  status: ('A' for Active; 'I' for Inactive)
REMARK    1  A    between atoms: C_1  and  C_2
REMARK    2  A    between atoms: C_3  and  C_4
REMARK    3  A    between atoms: C_4  and  C_6
REMARK    4  A    between atoms: C_6  and  C_7
REMARK    5  A    between atoms: C_7  and  C_8
REMARK    6  A    between atoms: N_16  and  C_17
REMARK    7  A    between atoms: N_23  and  C_24
REMARK    8  A    between atoms: C_24  and  C_25
REMARK    9  A    between atoms: C_25  and  O_26
REMARK   10  A    between atoms: C_25  and  C_27
REMARK   11  A    between atoms: C_27  and  N_28
REMARK   12  A    between atoms: N_28  and  C_29
REMARK   13  A    between atoms: C_29  and  C_30
REMARK   14  A    between atoms: C_29  and  C_31
REMARK   15  A    between atoms: C_29  and  C_32
REMARK                            x       y       z     vdW  Elec       q    Type
REMARK                         _______ _______ _______ _____ _____    ______ ____
ROOT
ATOM      1  C   UNL     1       1.698   6.695  21.080  0.00  0.00    +0.000 C 
ATOM      2  C   UNL     1       1.654   7.826  20.099  0.00  0.00    +0.000 A 
ATOM      3  C   UNL     1       2.219   7.843  18.865  0.00  0.00    +0.000 A 
ATOM      4  C   UNL     1       1.731   9.100  18.246  0.00  0.00    +0.000 A 
ATOM      5  O   UNL     1       2.090   9.522  17.157  0.00  0.00    +0.000 OA
ATOM      6  N   UNL     1       0.785   9.663  19.112  0.00  0.00    +0.000 N 
ATOM      7  N   UNL     1       0.942   9.013  20.377  0.00  0.00    +0.000 N 
ENDROOT
BRANCH   6   8
ATOM      8  C   UNL     1       0.524  11.044  19.082  0.00  0.00    +0.000 A 
ATOM      9  C   UNL     1       1.496  11.891  19.616  0.00  0.00    +0.000 A 
ATOM     10  C   UNL     1       1.339  13.271  19.539  0.00  0.00    +0.000 A 
ATOM     11  C   UNL     1       0.203  13.804  18.933  0.00  0.00    +0.000 A 
ATOM     12  C   UNL     1      -0.796  12.959  18.444  0.00  0.00    +0.000 A 
ATOM     13  C   UNL     1      -0.647  11.573  18.527  0.00  0.00    +0.000 A 
ENDBRANCH   6   8
BRANCH   3  14
ATOM     14  C   UNL     1       3.099   6.848  18.213  0.00  0.00    +0.000 C 
ATOM     15  O   UNL     1       4.322   6.999  18.188  0.00  0.00    +0.000 OA
BRANCH  14  16
ATOM     16  C   UNL     1       2.478   5.615  17.572  0.00  0.00    +0.000 C 
BRANCH  16  17
ATOM     17  C   UNL     1       3.199   4.334  17.987  0.00  0.00    +0.000 C 
BRANCH  17  18
ATOM     18  C   UNL     1       2.609   3.713  19.228  0.00  0.00    +0.000 A 
ATOM     19  C   UNL     1       3.443   3.229  20.245  0.00  0.00    +0.000 A 
ATOM     20  C   UNL     1       2.897   2.664  21.400  0.00  0.00    +0.000 A 
ATOM     21  C   UNL     1       1.515   2.571  21.545  0.00  0.00    +0.000 A 
ATOM     22  C   UNL     1       0.677   3.040  20.534  0.00  0.00    +0.000 A 
ATOM     23  C   UNL     1       1.221   3.607  19.380  0.00  0.00    +0.000 A 
ENDBRANCH  17  18
ENDBRANCH  16  17
ENDBRANCH  14  16
ENDBRANCH   3  14
BRANCH   7  24
ATOM     24  C   UNL     1      -0.158   9.142  21.369  0.00  0.00    +0.000 C 
BRANCH  24  25
ATOM     25  C   UNL     1       0.086  10.214  22.477  0.00  0.00    +0.000 C 
BRANCH  25  26
ATOM     26  O   UNL     1       0.294   9.633  23.764  0.00  0.00    +0.000 OA
ATOM     27  H   UNL     1       0.709   8.765  23.635  0.00  0.00    +0.000 HD
ENDBRANCH  25  26
BRANCH  25  28
ATOM     28  C   UNL     1      -1.021  11.292  22.508  0.00  0.00    +0.000 C 
BRANCH  28  29
ATOM     29  N   UNL     1      -0.633  12.603  23.063  0.00  0.00    +0.000 NA
ATOM     30  H   UNL     1       0.311  12.844  22.762  0.00  0.00    +0.000 HD
BRANCH  29  31
ATOM     31  C   UNL     1      -1.569  13.713  22.771  0.00  0.00    +0.000 C 
ATOM     32  C   UNL     1      -0.818  14.953  22.252  0.00  0.00    +0.000 C 
ATOM     33  C   UNL     1      -2.530  13.250  21.655  0.00  0.00    +0.000 C 
ATOM     34  C   UNL     1      -2.426  14.088  23.994  0.00  0.00    +0.000 C 
ENDBRANCH  29  31
ENDBRANCH  28  29
ENDBRANCH  25  28
ENDBRANCH  24  25
ENDBRANCH   7  24
TORSDOF 11
ENDMDL
MODEL 8
REMARK VINA RESULT:      -7.3      0.801      1.359
REMARK  Name = 
REMARK  15 active torsions:
REMARK  status: ('A' for Active; 'I' for Inactive)
REMARK    1  A    between atoms: C_1  and  C_2
REMARK    2  A    between atoms: C_3  and  C_4
REMARK    3  A    between atoms: C_4  and  C_6
REMARK    4  A    between atoms: C_6  and  C_7
REMARK    5  A    between atoms: C_7  and  C_8
REMARK    6  A    between atoms: N_16  and  C_17
REMARK    7  A    between atoms: N_23  and  C_24
REMARK    8  A    between atoms: C_24  and  C_25
REMARK    9  A    between atoms: C_25  and  O_26
REMARK   10  A    between atoms: C_25  and  C_27
REMARK   11  A    between atoms: C_27  and  N_28
REMARK   12  A    between atoms: N_28  and  C_29
REMARK   13  A    between atoms: C_29  and  C_30
REMARK   14  A    between atoms: C_29  and  C_31
REMARK   15  A    between atoms: C_29  and  C_32
REMARK                            x       y       z     vdW  Elec       q    Type
REMARK                         _______ _______ _______ _____ _____    ______ ____
ROOT
ATOM      1  C   UNL     1       4.426   7.927  16.681  0.00  0.00    +0.000 C 
ATOM      2  C   UNL     1       4.603   6.738  17.575  0.00  0.00    +0.000 A 
ATOM      3  C   UNL     1       5.783   6.174  17.939  0.00  0.00    +0.000 A 
ATOM      4  C   UNL     1       5.416   5.162  18.959  0.00  0.00    +0.000 A 
ATOM      5  O   UNL     1       6.199   4.377  19.471  0.00  0.00    +0.000 OA
ATOM      6  N   UNL     1       4.050   5.309  19.235  0.00  0.00    +0.000 N 
ATOM      7  N   UNL     1       3.497   6.101  18.179  0.00  0.00    +0.000 N 
ENDROOT
BRANCH   6   8
ATOM      8  C   UNL     1       3.305   4.229  19.741  0.00  0.00    +0.000 A 
ATOM      9  C   UNL     1       2.856   4.324  21.058  0.00  0.00    +0.000 A 
ATOM     10  C   UNL     1       2.041   3.330  21.592  0.00  0.00    +0.000 A 
ATOM     11  C   UNL     1       1.682   2.237  20.806  0.00  0.00    +0.000 A 
ATOM     12  C   UNL     1       2.173   2.113  19.504  0.00  0.00    +0.000 A 
ATOM     13  C   UNL     1       2.998   3.104  18.968  0.00  0.00    +0.000 A 
ENDBRANCH   6   8
BRANCH   3  14
ATOM     14  C   UNL     1       7.158   6.480  17.485  0.00  0.00    +0.000 C 
ATOM     15  O   UNL     1       7.630   5.946  16.480  0.00  0.00    +0.000 OA
BRANCH  14  16
ATOM     16  C   UNL     1       7.995   7.477  18.275  0.00  0.00    +0.000 C 
BRANCH  16  17
ATOM     17  C   UNL     1       7.950   8.872  17.655  0.00  0.00    +0.000 C 
BRANCH  17  18
ATOM     18  C   UNL     1       8.853   9.850  18.363  0.00  0.00    +0.000 A 
ATOM     19  C   UNL     1       9.644  10.745  17.629  0.00  0.00    +0.000 A 
ATOM     20  C   UNL     1      10.472  11.659  18.285  0.00  0.00    +0.000 A 
ATOM     21  C   UNL     1      10.523  11.682  19.677  0.00  0.00    +0.000 A 
ATOM     22  C   UNL     1       9.748  10.789  20.415  0.00  0.00    +0.000 A 
ATOM     23  C   UNL     1       8.918   9.875  19.762  0.00  0.00    +0.000 A 
ENDBRANCH  17  18
ENDBRANCH  16  17
ENDBRANCH  14  16
ENDBRANCH   3  14
BRANCH   7  24
ATOM     24  C   UNL     1       2.164   6.721  18.398  0.00  0.00    +0.000 C 
BRANCH  24  25
ATOM     25  C   UNL     1       2.159   7.922  19.395  0.00  0.00    +0.000 C 
BRANCH  25  26
ATOM     26  O   UNL     1       1.793   7.532  20.718  0.00  0.00    +0.000 OA
ATOM     27  H   UNL     1       2.232   8.136  21.339  0.00  0.00    +0.000 HD
ENDBRANCH  25  26
BRANCH  25  28
ATOM     28  C   UNL     1       1.302   9.105  18.889  0.00  0.00    +0.000 C 
BRANCH  28  29
ATOM     29  N   UNL     1       0.324   9.652  19.849  0.00  0.00    +0.000 NA
ATOM     30  H   UNL     1       0.718   9.647  20.790  0.00  0.00    +0.000 HD
BRANCH  29  31
ATOM     31  C   UNL     1      -0.202  10.996  19.515  0.00  0.00    +0.000 C 
ATOM     32  C   UNL     1      -1.350  10.906  18.493  0.00  0.00    +0.000 C 
ATOM     33  C   UNL     1      -0.774  11.622  20.804  0.00  0.00    +0.000 C 
ATOM     34  C   UNL     1       0.898  11.937  18.992  0.00  0.00    +0.000 C 
ENDBRANCH  29  31
ENDBRANCH  28  29
ENDBRANCH  25  28
ENDBRANCH  24  25
ENDBRANCH   7  24
TORSDOF 11
ENDMDL
MODEL 9
REMARK VINA RESULT:      -7.3      2.658      4.329
REMARK  Name = 
REMARK  15 active torsions:
REMARK  status: ('A' for Active; 'I' for Inactive)
REMARK    1  A    between atoms: C_1  and  C_2
REMARK    2  A    between atoms: C_3  and  C_4
REMARK    3  A    between atoms: C_4  and  C_6
REMARK    4  A    between atoms: C_6  and  C_7
REMARK    5  A    between atoms: C_7  and  C_8
REMARK    6  A    between atoms: N_16  and  C_17
REMARK    7  A    between atoms: N_23  and  C_24
REMARK    8  A    between atoms: C_24  and  C_25
REMARK    9  A    between atoms: C_25  and  O_26
REMARK   10  A    between atoms: C_25  and  C_27
REMARK   11  A    between atoms: C_27  and  N_28
REMARK   12  A    between atoms: N_28  and  C_29
REMARK   13  A    between atoms: C_29  and  C_30
REMARK   14  A    between atoms: C_29  and  C_31
REMARK   15  A    between atoms: C_29  and  C_32
REMARK                            x       y       z     vdW  Elec       q    Type
REMARK                         _______ _______ _______ _____ _____    ______ ____
ROOT
ATOM      1  C   UNL     1       4.492   7.782  16.911  0.00  0.00    +0.000 C 
ATOM      2  C   UNL     1       4.415   6.541  17.748  0.00  0.00    +0.000 A 
ATOM      3  C   UNL     1       5.451   5.730  18.082  0.00  0.00    +0.000 A 
ATOM      4  C   UNL     1       4.876   4.769  19.056  0.00  0.00    +0.000 A 
ATOM      5  O   UNL     1       5.478   3.816  19.527  0.00  0.00    +0.000 OA
ATOM      6  N   UNL     1       3.568   5.182  19.342  0.00  0.00    +0.000 N 
ATOM      7  N   UNL     1       3.197   6.120  18.327  0.00  0.00    +0.000 N 
ENDROOT
BRANCH   6   8
ATOM      8  C   UNL     1       2.614   4.257  19.800  0.00  0.00    +0.000 A 
ATOM      9  C   UNL     1       1.983   3.463  18.842  0.00  0.00    +0.000 A 
ATOM     10  C   UNL     1       1.092   2.469  19.236  0.00  0.00    +0.000 A 
ATOM     11  C   UNL     1       0.827   2.276  20.590  0.00  0.00    +0.000 A 
ATOM     12  C   UNL     1       1.417   3.105  21.548  0.00  0.00    +0.000 A 
ATOM     13  C   UNL     1       2.304   4.109  21.156  0.00  0.00    +0.000 A 
ENDBRANCH   6   8
BRANCH   3  14
ATOM     14  C   UNL     1       6.862   5.766  17.638  0.00  0.00    +0.000 C 
ATOM     15  O   UNL     1       7.653   6.592  18.098  0.00  0.00    +0.000 OA
BRANCH  14  16
ATOM     16  C   UNL     1       7.340   4.759  16.602  0.00  0.00    +0.000 C 
BRANCH  16  17
ATOM     17  C   UNL     1       6.196   4.269  15.716  0.00  0.00    +0.000 C 
BRANCH  17  18
ATOM     18  C   UNL     1       6.550   4.283  14.251  0.00  0.00    +0.000 A 
ATOM     19  C   UNL     1       5.937   3.388  13.364  0.00  0.00    +0.000 A 
ATOM     20  C   UNL     1       6.256   3.408  12.004  0.00  0.00    +0.000 A 
ATOM     21  C   UNL     1       7.195   4.317  11.521  0.00  0.00    +0.000 A 
ATOM     22  C   UNL     1       7.817   5.204  12.397  0.00  0.00    +0.000 A 
ATOM     23  C   UNL     1       7.499   5.187  13.756  0.00  0.00    +0.000 A 
ENDBRANCH  17  18
ENDBRANCH  16  17
ENDBRANCH  14  16
ENDBRANCH   3  14
BRANCH   7  24
ATOM     24  C   UNL     1       2.020   6.990  18.578  0.00  0.00    +0.000 C 
BRANCH  24  25
ATOM     25  C   UNL     1       2.155   7.927  19.820  0.00  0.00    +0.000 C 
BRANCH  25  26
ATOM     26  O   UNL     1       1.604   7.349  21.003  0.00  0.00    +0.000 OA
ATOM     27  H   UNL     1       0.637   7.402  20.938  0.00  0.00    +0.000 HD
ENDBRANCH  25  26
BRANCH  25  28
ATOM     28  C   UNL     1       1.589   9.341  19.557  0.00  0.00    +0.000 C 
BRANCH  28  29
ATOM     29  N   UNL     1       0.688   9.470  18.395  0.00  0.00    +0.000 NA
ATOM     30  H   UNL     1       0.368   8.549  18.096  0.00  0.00    +0.000 HD
BRANCH  29  31
ATOM     31  C   UNL     1      -0.465  10.380  18.590  0.00  0.00    +0.000 C 
ATOM     32  C   UNL     1      -1.071  10.216  19.996  0.00  0.00    +0.000 C 
ATOM     33  C   UNL     1       0.044  11.832  18.469  0.00  0.00    +0.000 C 
ATOM     34  C   UNL     1      -1.552  10.179  17.519  0.00  0.00    +0.000 C 
ENDBRANCH  29  31
ENDBRANCH  28  29
ENDBRANCH  25  28
ENDBRANCH  24  25
ENDBRANCH   7  24
TORSDOF 11
ENDMDL
