MODEL 1
REMARK VINA RESULT:      -6.8      0.000      0.000
REMARK  Name = 
REMARK  9 active torsions:
REMARK  status: ('A' for Active; 'I' for Inactive)
REMARK    1  A    between atoms: C_1  and  O_2
REMARK    2  A    between atoms: O_2  and  C_3
REMARK    3  A    between atoms: C_3  and  C_5
REMARK    4  A    between atoms: C_7  and  O_8
REMARK    5  A    between atoms: C_11  and  C_12
REMARK    6  A    between atoms: C_15  and  O_16
REMARK    7  A    between atoms: O_16  and  C_17
REMARK    8  A    between atoms: C_23  and  C_24
REMARK    9  A    between atoms: C_26  and  C_27
REMARK                            x       y       z     vdW  Elec       q    Type
REMARK                         _______ _______ _______ _____ _____    ______ ____
ROOT
ATOM      1  C   UNL     1      -3.438  12.696  20.530  0.00  0.00    +0.000 A 
ATOM      2  C   UNL     1      -2.176  12.338  21.138  0.00  0.00    +0.000 A 
ATOM      3  C   UNL     1      -1.553  12.680  22.352  0.00  0.00    +0.000 A 
ATOM      4  N   UNL     1      -0.359  12.165  22.664  0.00  0.00    +0.000 NA
ATOM      5  N   UNL     1       0.296  11.345  21.791  0.00  0.00    +0.000 NA
ATOM      6  C   UNL     1      -0.218  10.965  20.591  0.00  0.00    +0.000 A 
ATOM      7  C   UNL     1      -1.515  11.440  20.273  0.00  0.00    +0.000 A 
ATOM      8  N   UNL     1      -2.390  11.201  19.204  0.00  0.00    +0.000 N 
ATOM      9  C   UNL     1      -2.244  10.316  18.127  0.00  0.00    +0.000 A 
ATOM     10  C   UNL     1      -3.059  10.370  17.062  0.00  0.00    +0.000 A 
ATOM     11  C   UNL     1      -2.855   9.571  15.813  0.00  0.00    +0.000 C 
ATOM     12  C   UNL     1      -4.193  11.266  17.129  0.00  0.00    +0.000 A 
ATOM     13  C   UNL     1      -4.461  12.042  18.205  0.00  0.00    +0.000 A 
ATOM     14  C   UNL     1      -5.749  12.830  18.152  0.00  0.00    +0.000 C 
ATOM     15  C   UNL     1      -3.506  12.042  19.309  0.00  0.00    +0.000 A 
ENDROOT
BRANCH   6  16
ATOM     16  C   UNL     1       0.683  10.101  19.810  0.00  0.00    +0.000 A 
ATOM     17  C   UNL     1       1.092   8.853  20.323  0.00  0.00    +0.000 A 
ATOM     18  C   UNL     1       1.936   8.004  19.599  0.00  0.00    +0.000 A 
ATOM     19  C   UNL     1       2.353   8.352  18.318  0.00  0.00    +0.000 A 
ATOM     20  C   UNL     1       2.000   9.598  17.809  0.00  0.00    +0.000 A 
ATOM     21  C   UNL     1       1.233  10.482  18.580  0.00  0.00    +0.000 A 
BRANCH  19  22
ATOM     22  O   UNL     1       3.157   7.444  17.691  0.00  0.00    +0.000 OA
ATOM     23  C   UNL     1       3.321   6.196  18.356  0.00  0.00    +0.000 C 
ENDBRANCH  19  22
ENDBRANCH   6  16
BRANCH   1  24
ATOM     24  C   UNL     1      -4.464  13.571  21.096  0.00  0.00    +0.000 C 
ATOM     25  O   UNL     1      -4.461  14.790  20.994  0.00  0.00    +0.000 OA
BRANCH  24  27
ATOM     26  C   UNL     1      -5.541  13.165  23.139  0.00  0.00    +0.000 C 
ATOM     27  O   UNL     1      -5.456  12.880  21.735  0.00  0.00    +0.000 OA
ENDBRANCH  24  27
ENDBRANCH   1  24
BRANCH   3  28
ATOM     28  O   UNL     1      -2.068  13.531  23.297  0.00  0.00    +0.000 OA
ATOM     29  H   UNL     1      -2.147  13.017  24.117  0.00  0.00    +0.000 HD
ENDBRANCH   3  28
TORSDOF 5
ENDMDL
MODEL 2
REMARK VINA RESULT:      -6.3      3.240      5.231
REMARK  Name = 
REMARK  9 active torsions:
REMARK  status: ('A' for Active; 'I' for Inactive)
REMARK    1  A    between atoms: C_1  and  O_2
REMARK    2  A    between atoms: O_2  and  C_3
REMARK    3  A    between atoms: C_3  and  C_5
REMARK    4  A    between atoms: C_7  and  O_8
REMARK    5  A    between atoms: C_11  and  C_12
REMARK    6  A    between atoms: C_15  and  O_16
REMARK    7  A    between atoms: O_16  and  C_17
REMARK    8  A    between atoms: C_23  and  C_24
REMARK    9  A    between atoms: C_26  and  C_27
REMARK                            x       y       z     vdW  Elec       q    Type
REMARK                         _______ _______ _______ _____ _____    ______ ____
ROOT
ATOM      1  C   UNL     1      -5.521  11.914  19.304  0.00  0.00    +0.000 A 
ATOM      2  C   UNL     1      -4.304  11.811  18.531  0.00  0.00    +0.000 A 
ATOM      3  C   UNL     1      -4.021  11.386  17.220  0.00  0.00    +0.000 A 
ATOM      4  N   UNL     1      -2.768  11.422  16.757  0.00  0.00    +0.000 NA
ATOM      5  N   UNL     1      -1.738  11.819  17.561  0.00  0.00    +0.000 NA
ATOM      6  C   UNL     1      -1.909  12.238  18.843  0.00  0.00    +0.000 A 
ATOM      7  C   UNL     1      -3.239  12.279  19.330  0.00  0.00    +0.000 A 
ATOM      8  N   UNL     1      -3.810  12.725  20.531  0.00  0.00    +0.000 N 
ATOM      9  C   UNL     1      -3.191  13.359  21.617  0.00  0.00    +0.000 A 
ATOM     10  C   UNL     1      -3.826  13.514  22.790  0.00  0.00    +0.000 A 
ATOM     11  C   UNL     1      -3.170  14.029  24.033  0.00  0.00    +0.000 C 
ATOM     12  C   UNL     1      -5.225  13.148  22.850  0.00  0.00    +0.000 A 
ATOM     13  C   UNL     1      -5.909  12.662  21.788  0.00  0.00    +0.000 A 
ATOM     14  C   UNL     1      -7.389  12.441  21.996  0.00  0.00    +0.000 C 
ATOM     15  C   UNL     1      -5.174  12.406  20.554  0.00  0.00    +0.000 A 
ENDROOT
BRANCH   6  16
ATOM     16  C   UNL     1      -0.650  12.589  19.522  0.00  0.00    +0.000 A 
ATOM     17  C   UNL     1      -0.224  13.931  19.579  0.00  0.00    +0.000 A 
ATOM     18  C   UNL     1       0.960  14.298  20.227  0.00  0.00    +0.000 A 
ATOM     19  C   UNL     1       1.726  13.342  20.886  0.00  0.00    +0.000 A 
ATOM     20  C   UNL     1       1.351  12.004  20.805  0.00  0.00    +0.000 A 
ATOM     21  C   UNL     1       0.215  11.634  20.072  0.00  0.00    +0.000 A 
BRANCH  19  22
ATOM     22  O   UNL     1       2.850  13.808  21.504  0.00  0.00    +0.000 OA
ATOM     23  C   UNL     1       3.824  14.407  20.656  0.00  0.00    +0.000 C 
ENDBRANCH  19  22
ENDBRANCH   6  16
BRANCH   1  24
ATOM     24  C   UNL     1      -6.872  11.579  18.856  0.00  0.00    +0.000 C 
ATOM     25  O   UNL     1      -7.767  12.399  18.697  0.00  0.00    +0.000 OA
BRANCH  24  27
ATOM     26  C   UNL     1      -7.206   9.452  19.784  0.00  0.00    +0.000 C 
ATOM     27  O   UNL     1      -7.031  10.246  18.601  0.00  0.00    +0.000 OA
ENDBRANCH  24  27
ENDBRANCH   1  24
BRANCH   3  28
ATOM     28  O   UNL     1      -4.944  10.914  16.321  0.00  0.00    +0.000 OA
ATOM     29  H   UNL     1      -5.606  11.615  16.211  0.00  0.00    +0.000 HD
ENDBRANCH   3  28
TORSDOF 5
ENDMDL
MODEL 3
REMARK VINA RESULT:      -6.2      1.501      2.154
REMARK  Name = 
REMARK  9 active torsions:
REMARK  status: ('A' for Active; 'I' for Inactive)
REMARK    1  A    between atoms: C_1  and  O_2
REMARK    2  A    between atoms: O_2  and  C_3
REMARK    3  A    between atoms: C_3  and  C_5
REMARK    4  A    between atoms: C_7  and  O_8
REMARK    5  A    between atoms: C_11  and  C_12
REMARK    6  A    between atoms: C_15  and  O_16
REMARK    7  A    between atoms: O_16  and  C_17
REMARK    8  A    between atoms: C_23  and  C_24
REMARK    9  A    between atoms: C_26  and  C_27
REMARK                            x       y       z     vdW  Elec       q    Type
REMARK                         _______ _______ _______ _____ _____    ______ ____
ROOT
ATOM      1  C   UNL     1      -5.122  13.278  21.414  0.00  0.00    +0.000 A 
ATOM      2  C   UNL     1      -3.792  13.120  21.957  0.00  0.00    +0.000 A 
ATOM      3  C   UNL     1      -3.214  13.411  23.206  0.00  0.00    +0.000 A 
ATOM      4  N   UNL     1      -1.927  13.129  23.434  0.00  0.00    +0.000 NA
ATOM      5  N   UNL     1      -1.143  12.605  22.447  0.00  0.00    +0.000 NA
ATOM      6  C   UNL     1      -1.606  12.298  21.206  0.00  0.00    +0.000 A 
ATOM      7  C   UNL     1      -2.985  12.520  20.966  0.00  0.00    +0.000 A 
ATOM      8  N   UNL     1      -3.826  12.253  19.877  0.00  0.00    +0.000 N 
ATOM      9  C   UNL     1      -3.532  11.585  18.681  0.00  0.00    +0.000 A 
ATOM     10  C   UNL     1      -4.377  11.613  17.638  0.00  0.00    +0.000 A 
ATOM     11  C   UNL     1      -4.051  11.065  16.284  0.00  0.00    +0.000 C 
ATOM     12  C   UNL     1      -5.674  12.222  17.841  0.00  0.00    +0.000 A 
ATOM     13  C   UNL     1      -6.064  12.758  19.021  0.00  0.00    +0.000 A 
ATOM     14  C   UNL     1      -7.491  13.247  19.090  0.00  0.00    +0.000 C 
ATOM     15  C   UNL     1      -5.092  12.807  20.109  0.00  0.00    +0.000 A 
ENDROOT
BRANCH   6  16
ATOM     16  C   UNL     1      -0.569  11.772  20.302  0.00  0.00    +0.000 A 
ATOM     17  C   UNL     1      -0.314  10.387  20.245  0.00  0.00    +0.000 A 
ATOM     18  C   UNL     1       0.655   9.855  19.387  0.00  0.00    +0.000 A 
ATOM     19  C   UNL     1       1.360  10.686  18.522  0.00  0.00    +0.000 A 
ATOM     20  C   UNL     1       1.158  12.060  18.592  0.00  0.00    +0.000 A 
ATOM     21  C   UNL     1       0.255  12.593  19.522  0.00  0.00    +0.000 A 
BRANCH  19  22
ATOM     22  O   UNL     1       2.266  10.063  17.712  0.00  0.00    +0.000 OA
ATOM     23  C   UNL     1       2.255   8.640  17.746  0.00  0.00    +0.000 C 
ENDBRANCH  19  22
ENDBRANCH   6  16
BRANCH   1  24
ATOM     24  C   UNL     1      -6.291  13.818  22.106  0.00  0.00    +0.000 C 
ATOM     25  O   UNL     1      -6.643  14.989  22.052  0.00  0.00    +0.000 OA
BRANCH  24  27
ATOM     26  C   UNL     1      -7.492  13.337  24.062  0.00  0.00    +0.000 C 
ATOM     27  O   UNL     1      -6.979  12.867  22.806  0.00  0.00    +0.000 OA
ENDBRANCH  24  27
ENDBRANCH   1  24
BRANCH   3  28
ATOM     28  O   UNL     1      -3.865  13.985  24.268  0.00  0.00    +0.000 OA
ATOM     29  H   UNL     1      -3.189  14.443  24.793  0.00  0.00    +0.000 HD
ENDBRANCH   3  28
TORSDOF 5
ENDMDL
MODEL 4
REMARK VINA RESULT:      -6.2      3.030      5.095
REMARK  Name = 
REMARK  9 active torsions:
REMARK  status: ('A' for Active; 'I' for Inactive)
REMARK    1  A    between atoms: C_1  and  O_2
REMARK    2  A    between atoms: O_2  and  C_3
REMARK    3  A    between atoms: C_3  and  C_5
REMARK    4  A    between atoms: C_7  and  O_8
REMARK    5  A    between atoms: C_11  and  C_12
REMARK    6  A    between atoms: C_15  and  O_16
REMARK    7  A    between atoms: O_16  and  C_17
REMARK    8  A    between atoms: C_23  and  C_24
REMARK    9  A    between atoms: C_26  and  C_27
REMARK                            x       y       z     vdW  Elec       q    Type
REMARK                         _______ _______ _______ _____ _____    ______ ____
ROOT
ATOM      1  C   UNL     1      -5.446  12.127  20.502  0.00  0.00    +0.000 A 
ATOM      2  C   UNL     1      -4.642  11.900  19.322  0.00  0.00    +0.000 A 
ATOM      3  C   UNL     1      -4.924  11.391  18.040  0.00  0.00    +0.000 A 
ATOM      4  N   UNL     1      -3.958  11.314  17.120  0.00  0.00    +0.000 NA
ATOM      5  N   UNL     1      -2.676  11.676  17.422  0.00  0.00    +0.000 NA
ATOM      6  C   UNL     1      -2.304  12.169  18.633  0.00  0.00    +0.000 A 
ATOM      7  C   UNL     1      -3.327  12.329  19.600  0.00  0.00    +0.000 A 
ATOM      8  N   UNL     1      -3.352  12.874  20.892  0.00  0.00    +0.000 N 
ATOM      9  C   UNL     1      -2.325  13.514  21.597  0.00  0.00    +0.000 A 
ATOM     10  C   UNL     1      -2.433  13.773  22.910  0.00  0.00    +0.000 A 
ATOM     11  C   UNL     1      -1.314  14.300  23.753  0.00  0.00    +0.000 C 
ATOM     12  C   UNL     1      -3.707  13.511  23.543  0.00  0.00    +0.000 A 
ATOM     13  C   UNL     1      -4.779  13.023  22.876  0.00  0.00    +0.000 A 
ATOM     14  C   UNL     1      -6.063  12.919  23.665  0.00  0.00    +0.000 C 
ATOM     15  C   UNL     1      -4.608  12.654  21.474  0.00  0.00    +0.000 A 
ENDROOT
BRANCH   6  16
ATOM     16  C   UNL     1      -0.864  12.463  18.733  0.00  0.00    +0.000 A 
ATOM     17  C   UNL     1      -0.398  13.787  18.606  0.00  0.00    +0.000 A 
ATOM     18  C   UNL     1       0.961  14.099  18.710  0.00  0.00    +0.000 A 
ATOM     19  C   UNL     1       1.891  13.105  18.997  0.00  0.00    +0.000 A 
ATOM     20  C   UNL     1       1.462  11.784  19.082  0.00  0.00    +0.000 A 
ATOM     21  C   UNL     1       0.112  11.468  18.881  0.00  0.00    +0.000 A 
BRANCH  19  22
ATOM     22  O   UNL     1       3.188  13.520  19.098  0.00  0.00    +0.000 OA
ATOM     23  C   UNL     1       3.615  14.465  18.123  0.00  0.00    +0.000 C 
ENDBRANCH  19  22
ENDBRANCH   6  16
BRANCH   1  24
ATOM     24  C   UNL     1      -6.877  11.868  20.648  0.00  0.00    +0.000 C 
ATOM     25  O   UNL     1      -7.349  11.004  21.375  0.00  0.00    +0.000 OA
BRANCH  24  27
ATOM     26  C   UNL     1      -7.916  13.969  20.556  0.00  0.00    +0.000 C 
ATOM     27  O   UNL     1      -7.648  12.718  19.905  0.00  0.00    +0.000 OA
ENDBRANCH  24  27
ENDBRANCH   1  24
BRANCH   3  28
ATOM     28  O   UNL     1      -6.149  10.942  17.616  0.00  0.00    +0.000 OA
ATOM     29  H   UNL     1      -6.224  11.188  16.680  0.00  0.00    +0.000 HD
ENDBRANCH   3  28
TORSDOF 5
ENDMDL
MODEL 5
REMARK VINA RESULT:      -6.2      3.064      5.228
REMARK  Name = 
REMARK  9 active torsions:
REMARK  status: ('A' for Active; 'I' for Inactive)
REMARK    1  A    between atoms: C_1  and  O_2
REMARK    2  A    between atoms: O_2  and  C_3
REMARK    3  A    between atoms: C_3  and  C_5
REMARK    4  A    between atoms: C_7  and  O_8
REMARK    5  A    between atoms: C_11  and  C_12
REMARK    6  A    between atoms: C_15  and  O_16
REMARK    7  A    between atoms: O_16  and  C_17
REMARK    8  A    between atoms: C_23  and  C_24
REMARK    9  A    between atoms: C_26  and  C_27
REMARK                            x       y       z     vdW  Elec       q    Type
REMARK                         _______ _______ _______ _____ _____    ______ ____
ROOT
ATOM      1  C   UNL     1      -3.742  13.282  22.051  0.00  0.00    +0.000 A 
ATOM      2  C   UNL     1      -4.669  12.656  21.134  0.00  0.00    +0.000 A 
ATOM      3  C   UNL     1      -6.046  12.375  21.191  0.00  0.00    +0.000 A 
ATOM      4  N   UNL     1      -6.656  11.790  20.155  0.00  0.00    +0.000 NA
ATOM      5  N   UNL     1      -5.947  11.410  19.052  0.00  0.00    +0.000 NA
ATOM      6  C   UNL     1      -4.612  11.629  18.908  0.00  0.00    +0.000 A 
ATOM      7  C   UNL     1      -3.960  12.315  19.963  0.00  0.00    +0.000 A 
ATOM      8  N   UNL     1      -2.653  12.792  20.136  0.00  0.00    +0.000 N 
ATOM      9  C   UNL     1      -1.586  12.784  19.228  0.00  0.00    +0.000 A 
ATOM     10  C   UNL     1      -0.333  13.064  19.620  0.00  0.00    +0.000 A 
ATOM     11  C   UNL     1       0.870  12.912  18.742  0.00  0.00    +0.000 C 
ATOM     12  C   UNL     1      -0.141  13.527  20.977  0.00  0.00    +0.000 A 
ATOM     13  C   UNL     1      -1.158  13.687  21.855  0.00  0.00    +0.000 A 
ATOM     14  C   UNL     1      -0.793  14.289  23.192  0.00  0.00    +0.000 C 
ATOM     15  C   UNL     1      -2.497  13.281  21.440  0.00  0.00    +0.000 A 
ENDROOT
BRANCH   6  16
ATOM     16  C   UNL     1      -4.060  11.106  17.646  0.00  0.00    +0.000 A 
ATOM     17  C   UNL     1      -4.545  11.578  16.410  0.00  0.00    +0.000 A 
ATOM     18  C   UNL     1      -4.032  11.110  15.196  0.00  0.00    +0.000 A 
ATOM     19  C   UNL     1      -2.982  10.198  15.180  0.00  0.00    +0.000 A 
ATOM     20  C   UNL     1      -2.519   9.683  16.386  0.00  0.00    +0.000 A 
ATOM     21  C   UNL     1      -3.103  10.085  17.595  0.00  0.00    +0.000 A 
BRANCH  19  22
ATOM     22  O   UNL     1      -2.543   9.823  13.943  0.00  0.00    +0.000 OA
ATOM     23  C   UNL     1      -3.541   9.724  12.932  0.00  0.00    +0.000 C 
ENDBRANCH  19  22
ENDBRANCH   6  16
BRANCH   1  24
ATOM     24  C   UNL     1      -4.053  13.830  23.370  0.00  0.00    +0.000 C 
ATOM     25  O   UNL     1      -4.585  14.916  23.556  0.00  0.00    +0.000 OA
BRANCH  24  27
ATOM     26  C   UNL     1      -4.828  12.275  24.945  0.00  0.00    +0.000 C 
ATOM     27  O   UNL     1      -3.711  12.985  24.389  0.00  0.00    +0.000 OA
ENDBRANCH  24  27
ENDBRANCH   1  24
BRANCH   3  28
ATOM     28  O   UNL     1      -6.871  12.650  22.252  0.00  0.00    +0.000 OA
ATOM     29  H   UNL     1      -7.599  12.009  22.210  0.00  0.00    +0.000 HD
ENDBRANCH   3  28
TORSDOF 5
ENDMDL
MODEL 6
REMARK VINA RESULT:      -6.2      3.108      5.361
REMARK  Name = 
REMARK  9 active torsions:
REMARK  status: ('A' for Active; 'I' for Inactive)
REMARK    1  A    between atoms: C_1  and  O_2
REMARK    2  A    between atoms: O_2  and  C_3
REMARK    3  A    between atoms: C_3  and  C_5
REMARK    4  A    between atoms: C_7  and  O_8
REMARK    5  A    between atoms: C_11  and  C_12
REMARK    6  A    between atoms: C_15  and  O_16
REMARK    7  A    between atoms: O_16  and  C_17
REMARK    8  A    between atoms: C_23  and  C_24
REMARK    9  A    between atoms: C_26  and  C_27
REMARK                            x       y       z     vdW  Elec       q    Type
REMARK                         _______ _______ _______ _____ _____    ______ ____
ROOT
ATOM      1  C   UNL     1      -4.086  13.211  22.360  0.00  0.00    +0.000 A 
ATOM      2  C   UNL     1      -4.976  12.626  21.382  0.00  0.00    +0.000 A 
ATOM      3  C   UNL     1      -6.357  12.355  21.367  0.00  0.00    +0.000 A 
ATOM      4  N   UNL     1      -6.924  11.812  20.286  0.00  0.00    +0.000 NA
ATOM      5  N   UNL     1      -6.170  11.463  19.203  0.00  0.00    +0.000 NA
ATOM      6  C   UNL     1      -4.828  11.676  19.126  0.00  0.00    +0.000 A 
ATOM      7  C   UNL     1      -4.219  12.319  20.232  0.00  0.00    +0.000 A 
ATOM      8  N   UNL     1      -2.917  12.777  20.479  0.00  0.00    +0.000 N 
ATOM      9  C   UNL     1      -1.811  12.791  19.619  0.00  0.00    +0.000 A 
ATOM     10  C   UNL     1      -0.574  13.045  20.075  0.00  0.00    +0.000 A 
ATOM     11  C   UNL     1       0.666  12.912  19.246  0.00  0.00    +0.000 C 
ATOM     12  C   UNL     1      -0.439  13.460  21.455  0.00  0.00    +0.000 A 
ATOM     13  C   UNL     1      -1.493  13.599  22.292  0.00  0.00    +0.000 A 
ATOM     14  C   UNL     1      -1.183  14.151  23.664  0.00  0.00    +0.000 C 
ATOM     15  C   UNL     1      -2.815  13.219  21.805  0.00  0.00    +0.000 A 
ENDROOT
BRANCH   6  16
ATOM     16  C   UNL     1      -4.225  11.191  17.873  0.00  0.00    +0.000 A 
ATOM     17  C   UNL     1      -4.677  11.682  16.631  0.00  0.00    +0.000 A 
ATOM     18  C   UNL     1      -4.115  11.251  15.425  0.00  0.00    +0.000 A 
ATOM     19  C   UNL     1      -3.049  10.358  15.425  0.00  0.00    +0.000 A 
ATOM     20  C   UNL     1      -2.616   9.824  16.634  0.00  0.00    +0.000 A 
ATOM     21  C   UNL     1      -3.248  10.188  17.831  0.00  0.00    +0.000 A 
BRANCH  19  22
ATOM     22  O   UNL     1      -2.561  10.019  14.195  0.00  0.00    +0.000 OA
ATOM     23  C   UNL     1      -3.533   9.827  13.173  0.00  0.00    +0.000 C 
ENDBRANCH  19  22
ENDBRANCH   6  16
BRANCH   1  24
ATOM     24  C   UNL     1      -4.451  13.717  23.682  0.00  0.00    +0.000 C 
ATOM     25  O   UNL     1      -4.131  13.182  24.735  0.00  0.00    +0.000 OA
BRANCH  24  27
ATOM     26  C   UNL     1      -4.478  16.008  24.181  0.00  0.00    +0.000 C 
ATOM     27  O   UNL     1      -5.169  14.878  23.626  0.00  0.00    +0.000 OA
ENDBRANCH  24  27
ENDBRANCH   1  24
BRANCH   3  28
ATOM     28  O   UNL     1      -7.226  12.602  22.400  0.00  0.00    +0.000 OA
ATOM     29  H   UNL     1      -6.698  12.583  23.215  0.00  0.00    +0.000 HD
ENDBRANCH   3  28
TORSDOF 5
ENDMDL
MODEL 7
REMARK VINA RESULT:      -6.1      3.294      5.180
REMARK  Name = 
REMARK  9 active torsions:
REMARK  status: ('A' for Active; 'I' for Inactive)
REMARK    1  A    between atoms: C_1  and  O_2
REMARK    2  A    between atoms: O_2  and  C_3
REMARK    3  A    between atoms: C_3  and  C_5
REMARK    4  A    between atoms: C_7  and  O_8
REMARK    5  A    between atoms: C_11  and  C_12
REMARK    6  A    between atoms: C_15  and  O_16
REMARK    7  A    between atoms: O_16  and  C_17
REMARK    8  A    between atoms: C_23  and  C_24
REMARK    9  A    between atoms: C_26  and  C_27
REMARK                            x       y       z     vdW  Elec       q    Type
REMARK                         _______ _______ _______ _____ _____    ______ ____
ROOT
ATOM      1  C   UNL     1      -5.476  12.144  20.405  0.00  0.00    +0.000 A 
ATOM      2  C   UNL     1      -4.497  11.978  19.354  0.00  0.00    +0.000 A 
ATOM      3  C   UNL     1      -4.555  11.457  18.048  0.00  0.00    +0.000 A 
ATOM      4  N   UNL     1      -3.464  11.452  17.277  0.00  0.00    +0.000 NA
ATOM      5  N   UNL     1      -2.268  11.901  17.757  0.00  0.00    +0.000 NA
ATOM      6  C   UNL     1      -2.109  12.414  19.007  0.00  0.00    +0.000 A 
ATOM      7  C   UNL     1      -3.269  12.497  19.816  0.00  0.00    +0.000 A 
ATOM      8  N   UNL     1      -3.518  13.033  21.088  0.00  0.00    +0.000 N 
ATOM      9  C   UNL     1      -2.650  13.742  21.929  0.00  0.00    +0.000 A 
ATOM     10  C   UNL     1      -2.963  13.986  23.211  0.00  0.00    +0.000 A 
ATOM     11  C   UNL     1      -2.017  14.587  24.203  0.00  0.00    +0.000 C 
ATOM     12  C   UNL     1      -4.294  13.633  23.656  0.00  0.00    +0.000 A 
ATOM     13  C   UNL     1      -5.222  13.074  22.845  0.00  0.00    +0.000 A 
ATOM     14  C   UNL     1      -6.595  12.877  23.442  0.00  0.00    +0.000 C 
ATOM     15  C   UNL     1      -4.826  12.724  21.484  0.00  0.00    +0.000 A 
ENDROOT
BRANCH   6  16
ATOM     16  C   UNL     1      -0.722  12.807  19.312  0.00  0.00    +0.000 A 
ATOM     17  C   UNL     1       0.081  11.996  20.139  0.00  0.00    +0.000 A 
ATOM     18  C   UNL     1       1.405  12.336  20.435  0.00  0.00    +0.000 A 
ATOM     19  C   UNL     1       1.984  13.468  19.870  0.00  0.00    +0.000 A 
ATOM     20  C   UNL     1       1.199  14.308  19.088  0.00  0.00    +0.000 A 
ATOM     21  C   UNL     1      -0.154  14.011  18.874  0.00  0.00    +0.000 A 
BRANCH  19  22
ATOM     22  O   UNL     1       3.287  13.696  20.208  0.00  0.00    +0.000 OA
ATOM     23  C   UNL     1       3.500  14.363  21.447  0.00  0.00    +0.000 C 
ENDBRANCH  19  22
ENDBRANCH   6  16
BRANCH   1  24
ATOM     24  C   UNL     1      -6.892  11.784  20.346  0.00  0.00    +0.000 C 
ATOM     25  O   UNL     1      -7.742  12.432  19.749  0.00  0.00    +0.000 OA
BRANCH  24  27
ATOM     26  C   UNL     1      -7.331   9.490  20.138  0.00  0.00    +0.000 C 
ATOM     27  O   UNL     1      -7.172  10.621  21.007  0.00  0.00    +0.000 OA
ENDBRANCH  24  27
ENDBRANCH   1  24
BRANCH   3  28
ATOM     28  O   UNL     1      -5.672  10.924  17.454  0.00  0.00    +0.000 OA
ATOM     29  H   UNL     1      -6.404  11.531  17.649  0.00  0.00    +0.000 HD
ENDBRANCH   3  28
TORSDOF 5
ENDMDL
MODEL 8
REMARK VINA RESULT:      -6.1      1.588      2.232
REMARK  Name = 
REMARK  9 active torsions:
REMARK  status: ('A' for Active; 'I' for Inactive)
REMARK    1  A    between atoms: C_1  and  O_2
REMARK    2  A    between atoms: O_2  and  C_3
REMARK    3  A    between atoms: C_3  and  C_5
REMARK    4  A    between atoms: C_7  and  O_8
REMARK    5  A    between atoms: C_11  and  C_12
REMARK    6  A    between atoms: C_15  and  O_16
REMARK    7  A    between atoms: O_16  and  C_17
REMARK    8  A    between atoms: C_23  and  C_24
REMARK    9  A    between atoms: C_26  and  C_27
REMARK                            x       y       z     vdW  Elec       q    Type
REMARK                         _______ _______ _______ _____ _____    ______ ____
ROOT
ATOM      1  C   UNL     1      -5.308  13.307  20.573  0.00  0.00    +0.000 A 
ATOM      2  C   UNL     1      -4.034  13.177  21.245  0.00  0.00    +0.000 A 
ATOM      3  C   UNL     1      -3.571  13.539  22.523  0.00  0.00    +0.000 A 
ATOM      4  N   UNL     1      -2.313  13.267  22.885  0.00  0.00    +0.000 NA
ATOM      5  N   UNL     1      -1.445  12.685  22.007  0.00  0.00    +0.000 NA
ATOM      6  C   UNL     1      -1.795  12.308  20.747  0.00  0.00    +0.000 A 
ATOM      7  C   UNL     1      -3.144  12.519  20.369  0.00  0.00    +0.000 A 
ATOM      8  N   UNL     1      -3.884  12.191  19.224  0.00  0.00    +0.000 N 
ATOM      9  C   UNL     1      -3.486  11.455  18.100  0.00  0.00    +0.000 A 
ATOM     10  C   UNL     1      -4.231  11.424  16.984  0.00  0.00    +0.000 A 
ATOM     11  C   UNL     1      -3.786  10.798  15.699  0.00  0.00    +0.000 C 
ATOM     12  C   UNL     1      -5.536  12.047  17.031  0.00  0.00    +0.000 A 
ATOM     13  C   UNL     1      -6.029  12.651  18.137  0.00  0.00    +0.000 A 
ATOM     14  C   UNL     1      -7.453  13.147  18.046  0.00  0.00    +0.000 C 
ATOM     15  C   UNL     1      -5.161  12.762  19.306  0.00  0.00    +0.000 A 
ENDROOT
BRANCH   6  16
ATOM     16  C   UNL     1      -0.683  11.728  19.975  0.00  0.00    +0.000 A 
ATOM     17  C   UNL     1      -0.639  10.341  19.727  0.00  0.00    +0.000 A 
ATOM     18  C   UNL     1       0.396   9.762  18.986  0.00  0.00    +0.000 A 
ATOM     19  C   UNL     1       1.389  10.558  18.423  0.00  0.00    +0.000 A 
ATOM     20  C   UNL     1       1.392  11.923  18.692  0.00  0.00    +0.000 A 
ATOM     21  C   UNL     1       0.404  12.481  19.515  0.00  0.00    +0.000 A 
BRANCH  19  22
ATOM     22  O   UNL     1       2.340   9.896  17.701  0.00  0.00    +0.000 OA
ATOM     23  C   UNL     1       2.465   8.503  17.968  0.00  0.00    +0.000 C 
ENDBRANCH  19  22
ENDBRANCH   6  16
BRANCH   1  24
ATOM     24  C   UNL     1      -6.531  13.889  21.123  0.00  0.00    +0.000 C 
ATOM     25  O   UNL     1      -7.528  13.244  21.418  0.00  0.00    +0.000 OA
BRANCH  24  27
ATOM     26  C   UNL     1      -7.359  15.753  22.281  0.00  0.00    +0.000 C 
ATOM     27  O   UNL     1      -6.439  15.241  21.304  0.00  0.00    +0.000 OA
ENDBRANCH  24  27
ENDBRANCH   1  24
BRANCH   3  28
ATOM     28  O   UNL     1      -4.313  14.175  23.486  0.00  0.00    +0.000 OA
ATOM     29  H   UNL     1      -3.804  14.955  23.757  0.00  0.00    +0.000 HD
ENDBRANCH   3  28
TORSDOF 5
ENDMDL
MODEL 9
REMARK VINA RESULT:      -6.1      3.243      5.263
REMARK  Name = 
REMARK  9 active torsions:
REMARK  status: ('A' for Active; 'I' for Inactive)
REMARK    1  A    between atoms: C_1  and  O_2
REMARK    2  A    between atoms: O_2  and  C_3
REMARK    3  A    between atoms: C_3  and  C_5
REMARK    4  A    between atoms: C_7  and  O_8
REMARK    5  A    between atoms: C_11  and  C_12
REMARK    6  A    between atoms: C_15  and  O_16
REMARK    7  A    between atoms: O_16  and  C_17
REMARK    8  A    between atoms: C_23  and  C_24
REMARK    9  A    between atoms: C_26  and  C_27
REMARK                            x       y       z     vdW  Elec       q    Type
REMARK                         _______ _______ _______ _____ _____    ______ ____
ROOT
ATOM      1  C   UNL     1      -5.442  11.804  19.089  0.00  0.00    +0.000 A 
ATOM      2  C   UNL     1      -4.216  11.693  18.330  0.00  0.00    +0.000 A 
ATOM      3  C   UNL     1      -3.922  11.264  17.022  0.00  0.00    +0.000 A 
ATOM      4  N   UNL     1      -2.663  11.291  16.573  0.00  0.00    +0.000 NA
ATOM      5  N   UNL     1      -1.640  11.683  17.388  0.00  0.00    +0.000 NA
ATOM      6  C   UNL     1      -1.822  12.104  18.668  0.00  0.00    +0.000 A 
ATOM      7  C   UNL     1      -3.158  12.154  19.140  0.00  0.00    +0.000 A 
ATOM      8  N   UNL     1      -3.738  12.606  20.334  0.00  0.00    +0.000 N 
ATOM      9  C   UNL     1      -3.128  13.237  21.426  0.00  0.00    +0.000 A 
ATOM     10  C   UNL     1      -3.775  13.398  22.592  0.00  0.00    +0.000 A 
ATOM     11  C   UNL     1      -3.129  13.910  23.841  0.00  0.00    +0.000 C 
ATOM     12  C   UNL     1      -5.176  13.041  22.637  0.00  0.00    +0.000 A 
ATOM     13  C   UNL     1      -5.852  12.558  21.569  0.00  0.00    +0.000 A 
ATOM     14  C   UNL     1      -7.335  12.347  21.760  0.00  0.00    +0.000 C 
ATOM     15  C   UNL     1      -5.105  12.295  20.342  0.00  0.00    +0.000 A 
ENDROOT
BRANCH   6  16
ATOM     16  C   UNL     1      -0.569  12.448  19.360  0.00  0.00    +0.000 A 
ATOM     17  C   UNL     1       0.031  13.708  19.159  0.00  0.00    +0.000 A 
ATOM     18  C   UNL     1       1.214  14.068  19.812  0.00  0.00    +0.000 A 
ATOM     19  C   UNL     1       1.805  13.203  20.727  0.00  0.00    +0.000 A 
ATOM     20  C   UNL     1       1.258  11.937  20.908  0.00  0.00    +0.000 A 
ATOM     21  C   UNL     1       0.126  11.548  20.178  0.00  0.00    +0.000 A 
BRANCH  19  22
ATOM     22  O   UNL     1       2.944  13.661  21.324  0.00  0.00    +0.000 OA
ATOM     23  C   UNL     1       2.882  14.981  21.852  0.00  0.00    +0.000 C 
ENDBRANCH  19  22
ENDBRANCH   6  16
BRANCH   1  24
ATOM     24  C   UNL     1      -6.790  11.478  18.627  0.00  0.00    +0.000 C 
ATOM     25  O   UNL     1      -7.455  10.542  19.052  0.00  0.00    +0.000 OA
BRANCH  24  27
ATOM     26  C   UNL     1      -7.910  13.500  18.234  0.00  0.00    +0.000 C 
ATOM     27  O   UNL     1      -7.252  12.350  17.682  0.00  0.00    +0.000 OA
ENDBRANCH  24  27
ENDBRANCH   1  24
BRANCH   3  28
ATOM     28  O   UNL     1      -4.838  10.796  16.115  0.00  0.00    +0.000 OA
ATOM     29  H   UNL     1      -4.343  10.260  15.474  0.00  0.00    +0.000 HD
ENDBRANCH   3  28
TORSDOF 5
ENDMDL
