MODEL 1
REMARK VINA RESULT:      -5.6      0.000      0.000
REMARK  Name = 
REMARK  2 active torsions:
REMARK  status: ('A' for Active; 'I' for Inactive)
REMARK    1  A    between atoms: C_1  and  N_2
REMARK    2  A    between atoms: C_6  and  C_7
REMARK                            x       y       z     vdW  Elec       q    Type
REMARK                         _______ _______ _______ _____ _____    ______ ____
ROOT
ATOM      1  C   UNL     1       3.948   2.488  19.999  0.00  0.00    +0.000 C 
ATOM      2  N   UNL     1       3.027   3.456  19.428  0.00  0.00    +0.000 NA
ATOM      3  C   UNL     1       2.257   2.930  18.307  0.00  0.00    +0.000 C 
ATOM      4  C   UNL     1       1.621   4.169  17.696  0.00  0.00    +0.000 C 
ATOM      5  C   UNL     1       2.428   5.353  18.230  0.00  0.00    +0.000 C 
ATOM      6  C   UNL     1       3.604   4.742  19.003  0.00  0.00    +0.000 C 
ENDROOT
BRANCH   6   7
ATOM      7  C   UNL     1       4.901   4.667  18.218  0.00  0.00    +0.000 A 
ATOM      8  C   UNL     1       4.979   4.378  16.853  0.00  0.00    +0.000 A 
ATOM      9  C   UNL     1       6.221   4.310  16.221  0.00  0.00    +0.000 A 
ATOM     10  C   UNL     1       7.355   4.531  16.976  0.00  0.00    +0.000 A 
ATOM     11  N   UNL     1       7.332   4.816  18.295  0.00  0.00    +0.000 NA
ATOM     12  C   UNL     1       6.112   4.879  18.878  0.00  0.00    +0.000 A 
ENDBRANCH   6   7
TORSDOF 1
ENDMDL
MODEL 2
REMARK VINA RESULT:      -5.5      1.385      4.176
REMARK  Name = 
REMARK  2 active torsions:
REMARK  status: ('A' for Active; 'I' for Inactive)
REMARK    1  A    between atoms: C_1  and  N_2
REMARK    2  A    between atoms: C_6  and  C_7
REMARK                            x       y       z     vdW  Elec       q    Type
REMARK                         _______ _______ _______ _____ _____    ______ ____
ROOT
ATOM      1  C   UNL     1       5.836   5.129  19.222  0.00  0.00    +0.000 C 
ATOM      2  N   UNL     1       5.876   5.160  17.770  0.00  0.00    +0.000 NA
ATOM      3  C   UNL     1       5.358   6.400  17.204  0.00  0.00    +0.000 C 
ATOM      4  C   UNL     1       5.212   6.085  15.723  0.00  0.00    +0.000 C 
ATOM      5  C   UNL     1       5.227   4.559  15.622  0.00  0.00    +0.000 C 
ATOM      6  C   UNL     1       5.219   4.045  17.068  0.00  0.00    +0.000 C 
ENDROOT
BRANCH   6   7
ATOM      7  C   UNL     1       3.849   3.644  17.585  0.00  0.00    +0.000 A 
ATOM      8  C   UNL     1       2.722   4.470  17.550  0.00  0.00    +0.000 A 
ATOM      9  C   UNL     1       1.508   4.021  18.069  0.00  0.00    +0.000 A 
ATOM     10  C   UNL     1       1.455   2.754  18.615  0.00  0.00    +0.000 A 
ATOM     11  N   UNL     1       2.514   1.919  18.670  0.00  0.00    +0.000 NA
ATOM     12  C   UNL     1       3.676   2.382  18.154  0.00  0.00    +0.000 A 
ENDBRANCH   6   7
TORSDOF 1
ENDMDL
MODEL 3
REMARK VINA RESULT:      -5.4      1.686      2.257
REMARK  Name = 
REMARK  2 active torsions:
REMARK  status: ('A' for Active; 'I' for Inactive)
REMARK    1  A    between atoms: C_1  and  N_2
REMARK    2  A    between atoms: C_6  and  C_7
REMARK                            x       y       z     vdW  Elec       q    Type
REMARK                         _______ _______ _______ _____ _____    ______ ____
ROOT
ATOM      1  C   UNL     1       3.387   1.724  18.259  0.00  0.00    +0.000 C 
ATOM      2  N   UNL     1       2.638   2.285  19.370  0.00  0.00    +0.000 NA
ATOM      3  C   UNL     1       1.279   2.674  19.014  0.00  0.00    +0.000 C 
ATOM      4  C   UNL     1       0.816   3.495  20.207  0.00  0.00    +0.000 C 
ATOM      5  C   UNL     1       2.090   3.894  20.954  0.00  0.00    +0.000 C 
ATOM      6  C   UNL     1       3.254   3.424  20.072  0.00  0.00    +0.000 C 
ENDROOT
BRANCH   6   7
ATOM      7  C   UNL     1       3.854   4.506  19.193  0.00  0.00    +0.000 A 
ATOM      8  C   UNL     1       3.104   5.444  18.477  0.00  0.00    +0.000 A 
ATOM      9  C   UNL     1       3.745   6.390  17.678  0.00  0.00    +0.000 A 
ATOM     10  C   UNL     1       5.124   6.369  17.612  0.00  0.00    +0.000 A 
ATOM     11  N   UNL     1       5.892   5.487  18.285  0.00  0.00    +0.000 NA
ATOM     12  C   UNL     1       5.241   4.585  19.056  0.00  0.00    +0.000 A 
ENDBRANCH   6   7
TORSDOF 1
ENDMDL
MODEL 4
REMARK VINA RESULT:      -5.4      1.655      2.320
REMARK  Name = 
REMARK  2 active torsions:
REMARK  status: ('A' for Active; 'I' for Inactive)
REMARK    1  A    between atoms: C_1  and  N_2
REMARK    2  A    between atoms: C_6  and  C_7
REMARK                            x       y       z     vdW  Elec       q    Type
REMARK                         _______ _______ _______ _____ _____    ______ ____
ROOT
ATOM      1  C   UNL     1       6.358   5.321  19.426  0.00  0.00    +0.000 C 
ATOM      2  N   UNL     1       4.936   5.250  19.136  0.00  0.00    +0.000 NA
ATOM      3  C   UNL     1       4.384   3.908  19.278  0.00  0.00    +0.000 C 
ATOM      4  C   UNL     1       3.007   4.018  18.640  0.00  0.00    +0.000 C 
ATOM      5  C   UNL     1       3.049   5.283  17.782  0.00  0.00    +0.000 C 
ATOM      6  C   UNL     1       4.504   5.771  17.829  0.00  0.00    +0.000 C 
ENDROOT
BRANCH   6   7
ATOM      7  C   UNL     1       5.344   5.358  16.634  0.00  0.00    +0.000 A 
ATOM      8  C   UNL     1       5.020   4.309  15.768  0.00  0.00    +0.000 A 
ATOM      9  C   UNL     1       5.866   3.990  14.707  0.00  0.00    +0.000 A 
ATOM     10  C   UNL     1       7.020   4.730  14.541  0.00  0.00    +0.000 A 
ATOM     11  N   UNL     1       7.375   5.753  15.347  0.00  0.00    +0.000 NA
ATOM     12  C   UNL     1       6.531   6.041  16.365  0.00  0.00    +0.000 A 
ENDBRANCH   6   7
TORSDOF 1
ENDMDL
MODEL 5
REMARK VINA RESULT:      -5.4      1.470      1.643
REMARK  Name = 
REMARK  2 active torsions:
REMARK  status: ('A' for Active; 'I' for Inactive)
REMARK    1  A    between atoms: C_1  and  N_2
REMARK    2  A    between atoms: C_6  and  C_7
REMARK                            x       y       z     vdW  Elec       q    Type
REMARK                         _______ _______ _______ _____ _____    ______ ____
ROOT
ATOM      1  C   UNL     1       4.933   3.503  19.343  0.00  0.00    +0.000 C 
ATOM      2  N   UNL     1       3.971   4.555  19.063  0.00  0.00    +0.000 NA
ATOM      3  C   UNL     1       2.750   4.070  18.431  0.00  0.00    +0.000 C 
ATOM      4  C   UNL     1       2.058   5.341  17.964  0.00  0.00    +0.000 C 
ATOM      5  C   UNL     1       3.140   6.422  17.959  0.00  0.00    +0.000 C 
ATOM      6  C   UNL     1       4.456   5.697  18.270  0.00  0.00    +0.000 C 
ENDROOT
BRANCH   6   7
ATOM      7  C   UNL     1       5.289   5.356  17.048  0.00  0.00    +0.000 A 
ATOM      8  C   UNL     1       4.872   4.502  16.023  0.00  0.00    +0.000 A 
ATOM      9  C   UNL     1       5.717   4.232  14.948  0.00  0.00    +0.000 A 
ATOM     10  C   UNL     1       6.965   4.824  14.928  0.00  0.00    +0.000 A 
ATOM     11  N   UNL     1       7.412   5.657  15.890  0.00  0.00    +0.000 NA
ATOM     12  C   UNL     1       6.567   5.903  16.918  0.00  0.00    +0.000 A 
ENDBRANCH   6   7
TORSDOF 1
ENDMDL
MODEL 6
REMARK VINA RESULT:      -5.3      0.988      1.460
REMARK  Name = 
REMARK  2 active torsions:
REMARK  status: ('A' for Active; 'I' for Inactive)
REMARK    1  A    between atoms: C_1  and  N_2
REMARK    2  A    between atoms: C_6  and  C_7
REMARK                            x       y       z     vdW  Elec       q    Type
REMARK                         _______ _______ _______ _____ _____    ______ ____
ROOT
ATOM      1  C   UNL     1       4.118   2.524  19.829  0.00  0.00    +0.000 C 
ATOM      2  N   UNL     1       3.165   3.496  19.318  0.00  0.00    +0.000 NA
ATOM      3  C   UNL     1       2.274   2.951  18.301  0.00  0.00    +0.000 C 
ATOM      4  C   UNL     1       1.607   4.184  17.711  0.00  0.00    +0.000 C 
ATOM      5  C   UNL     1       2.489   5.365  18.116  0.00  0.00    +0.000 C 
ATOM      6  C   UNL     1       3.724   4.751  18.790  0.00  0.00    +0.000 C 
ENDROOT
BRANCH   6   7
ATOM      7  C   UNL     1       4.933   4.615  17.882  0.00  0.00    +0.000 A 
ATOM      8  C   UNL     1       6.255   4.798  18.299  0.00  0.00    +0.000 A 
ATOM      9  C   UNL     1       7.301   4.672  17.385  0.00  0.00    +0.000 A 
ATOM     10  C   UNL     1       6.995   4.369  16.073  0.00  0.00    +0.000 A 
ATOM     11  N   UNL     1       5.737   4.181  15.623  0.00  0.00    +0.000 NA
ATOM     12  C   UNL     1       4.744   4.306  16.534  0.00  0.00    +0.000 A 
ENDBRANCH   6   7
TORSDOF 1
ENDMDL
MODEL 7
REMARK VINA RESULT:      -5.3      1.728      2.497
REMARK  Name = 
REMARK  2 active torsions:
REMARK  status: ('A' for Active; 'I' for Inactive)
REMARK    1  A    between atoms: C_1  and  N_2
REMARK    2  A    between atoms: C_6  and  C_7
REMARK                            x       y       z     vdW  Elec       q    Type
REMARK                         _______ _______ _______ _____ _____    ______ ____
ROOT
ATOM      1  C   UNL     1       2.861   7.160  18.551  0.00  0.00    +0.000 C 
ATOM      2  N   UNL     1       2.798   5.794  18.058  0.00  0.00    +0.000 NA
ATOM      3  C   UNL     1       2.529   4.814  19.103  0.00  0.00    +0.000 C 
ATOM      4  C   UNL     1       2.814   3.482  18.427  0.00  0.00    +0.000 C 
ATOM      5  C   UNL     1       3.656   3.816  17.195  0.00  0.00    +0.000 C 
ATOM      6  C   UNL     1       3.962   5.316  17.293  0.00  0.00    +0.000 C 
ENDROOT
BRANCH   6   7
ATOM      7  C   UNL     1       5.325   5.643  17.874  0.00  0.00    +0.000 A 
ATOM      8  C   UNL     1       6.236   6.531  17.294  0.00  0.00    +0.000 A 
ATOM      9  C   UNL     1       7.476   6.753  17.893  0.00  0.00    +0.000 A 
ATOM     10  C   UNL     1       7.773   6.075  19.059  0.00  0.00    +0.000 A 
ATOM     11  N   UNL     1       6.927   5.211  19.658  0.00  0.00    +0.000 NA
ATOM     12  C   UNL     1       5.731   5.021  19.056  0.00  0.00    +0.000 A 
ENDBRANCH   6   7
TORSDOF 1
ENDMDL
MODEL 8
REMARK VINA RESULT:      -5.3      1.664      4.033
REMARK  Name = 
REMARK  2 active torsions:
REMARK  status: ('A' for Active; 'I' for Inactive)
REMARK    1  A    between atoms: C_1  and  N_2
REMARK    2  A    between atoms: C_6  and  C_7
REMARK                            x       y       z     vdW  Elec       q    Type
REMARK                         _______ _______ _______ _____ _____    ______ ____
ROOT
ATOM      1  C   UNL     1       6.052   3.950  15.058  0.00  0.00    +0.000 C 
ATOM      2  N   UNL     1       5.902   5.232  15.724  0.00  0.00    +0.000 NA
ATOM      3  C   UNL     1       7.066   5.612  16.516  0.00  0.00    +0.000 C 
ATOM      4  C   UNL     1       6.569   6.790  17.341  0.00  0.00    +0.000 C 
ATOM      5  C   UNL     1       5.043   6.712  17.295  0.00  0.00    +0.000 C 
ATOM      6  C   UNL     1       4.714   5.396  16.578  0.00  0.00    +0.000 C 
ENDROOT
BRANCH   6   7
ATOM      7  C   UNL     1       4.392   4.238  17.505  0.00  0.00    +0.000 A 
ATOM      8  C   UNL     1       3.402   3.283  17.258  0.00  0.00    +0.000 A 
ATOM      9  C   UNL     1       3.164   2.265  18.181  0.00  0.00    +0.000 A 
ATOM     10  C   UNL     1       3.926   2.231  19.333  0.00  0.00    +0.000 A 
ATOM     11  N   UNL     1       4.894   3.127  19.615  0.00  0.00    +0.000 NA
ATOM     12  C   UNL     1       5.103   4.100  18.698  0.00  0.00    +0.000 A 
ENDBRANCH   6   7
TORSDOF 1
ENDMDL
MODEL 9
REMARK VINA RESULT:      -5.2      1.329      4.390
REMARK  Name = 
REMARK  2 active torsions:
REMARK  status: ('A' for Active; 'I' for Inactive)
REMARK    1  A    between atoms: C_1  and  N_2
REMARK    2  A    between atoms: C_6  and  C_7
REMARK                            x       y       z     vdW  Elec       q    Type
REMARK                         _______ _______ _______ _____ _____    ______ ____
ROOT
ATOM      1  C   UNL     1       5.182   6.382  15.634  0.00  0.00    +0.000 C 
ATOM      2  N   UNL     1       6.018   6.103  16.790  0.00  0.00    +0.000 NA
ATOM      3  C   UNL     1       6.984   5.036  16.560  0.00  0.00    +0.000 C 
ATOM      4  C   UNL     1       7.506   4.719  17.953  0.00  0.00    +0.000 C 
ATOM      5  C   UNL     1       6.481   5.308  18.922  0.00  0.00    +0.000 C 
ATOM      6  C   UNL     1       5.319   5.803  18.051  0.00  0.00    +0.000 C 
ENDROOT
BRANCH   6   7
ATOM      7  C   UNL     1       4.150   4.840  17.955  0.00  0.00    +0.000 A 
ATOM      8  C   UNL     1       2.811   5.234  17.871  0.00  0.00    +0.000 A 
ATOM      9  C   UNL     1       1.802   4.273  17.807  0.00  0.00    +0.000 A 
ATOM     10  C   UNL     1       2.160   2.940  17.832  0.00  0.00    +0.000 A 
ATOM     11  N   UNL     1       3.437   2.511  17.909  0.00  0.00    +0.000 NA
ATOM     12  C   UNL     1       4.394   3.466  17.966  0.00  0.00    +0.000 A 
ENDBRANCH   6   7
TORSDOF 1
ENDMDL
