MODEL 1
REMARK VINA RESULT:      -8.6      0.000      0.000
REMARK  Name = 
REMARK  2 active torsions:
REMARK  status: ('A' for Active; 'I' for Inactive)
REMARK    1  A    between atoms: C_10  and  C_12
REMARK    2  A    between atoms: C_16  and  C_17
REMARK                            x       y       z     vdW  Elec       q    Type
REMARK                         _______ _______ _______ _____ _____    ______ ____
ROOT
ATOM      1  O   UNL     1       7.875   5.303  12.935  0.00  0.00    +0.000 OA
ATOM      2  C   UNL     1       7.282   5.141  13.987  0.00  0.00    +0.000 C 
ATOM      3  N   UNL     1       6.239   4.288  14.175  0.00  0.00    +0.000 N 
ATOM      4  C   UNL     1       5.867   4.206  15.542  0.00  0.00    +0.000 C 
ATOM      5  C   UNL     1       6.692   5.315  16.195  0.00  0.00    +0.000 C 
ATOM      6  C   UNL     1       7.567   4.809  17.346  0.00  0.00    +0.000 C 
ATOM      7  C   UNL     1       6.719   4.412  18.542  0.00  0.00    +0.000 C 
ATOM      8  C   UNL     1       5.792   5.541  18.979  0.00  0.00    +0.000 C 
ATOM      9  N   UNL     1       5.009   6.102  17.875  0.00  0.00    +0.000 N 
ATOM     10  C   UNL     1       3.650   6.515  17.941  0.00  0.00    +0.000 C 
ATOM     11  O   UNL     1       3.089   6.951  16.945  0.00  0.00    +0.000 OA
ATOM     12  C   UNL     1       5.792   6.468  16.681  0.00  0.00    +0.000 C 
ATOM     13  O   UNL     1       7.578   5.780  15.152  0.00  0.00    +0.000 OA
ATOM     14  H   UNL     1       5.927   3.685  13.427  0.00  0.00    +0.000 HD
ENDROOT
BRANCH  10  15
ATOM     15  C   UNL     1       2.935   6.437  19.224  0.00  0.00    +0.000 A 
ATOM     16  C   UNL     1       2.211   7.475  19.796  0.00  0.00    +0.000 A 
ATOM     17  N   UNL     1       1.739   7.032  20.983  0.00  0.00    +0.000 N 
ATOM     18  N   UNL     1       1.957   5.740  21.181  0.00  0.00    +0.000 NA
ATOM     19  C   UNL     1       2.677   5.327  20.120  0.00  0.00    +0.000 A 
ATOM     20  H   UNL     1       1.240   7.549  21.700  0.00  0.00    +0.000 HD
BRANCH  19  21
ATOM     21  C   UNL     1       2.992   3.827  20.079  0.00  0.00    +0.000 C 
ATOM     22  C   UNL     1       2.068   2.886  20.855  0.00  0.00    +0.000 C 
ATOM     23  C   UNL     1       0.653   2.860  20.288  0.00  0.00    +0.000 C 
ATOM     24  C   UNL     1       0.623   2.510  18.801  0.00  0.00    +0.000 C 
ATOM     25  C   UNL     1       1.666   3.250  17.966  0.00  0.00    +0.000 C 
ATOM     26  C   UNL     1       3.048   3.276  18.626  0.00  0.00    +0.000 C 
ENDBRANCH  19  21
ENDBRANCH  10  15
TORSDOF 2
ENDMDL
MODEL 2
REMARK VINA RESULT:      -8.6      0.619      1.433
REMARK  Name = 
REMARK  2 active torsions:
REMARK  status: ('A' for Active; 'I' for Inactive)
REMARK    1  A    between atoms: C_10  and  C_12
REMARK    2  A    between atoms: C_16  and  C_17
REMARK                            x       y       z     vdW  Elec       q    Type
REMARK                         _______ _______ _______ _____ _____    ______ ____
ROOT
ATOM      1  O   UNL     1       8.077   5.484  13.101  0.00  0.00    +0.000 OA
ATOM      2  C   UNL     1       7.401   5.295  14.096  0.00  0.00    +0.000 C 
ATOM      3  N   UNL     1       6.306   4.490  14.159  0.00  0.00    +0.000 N 
ATOM      4  C   UNL     1       5.831   4.351  15.489  0.00  0.00    +0.000 C 
ATOM      5  C   UNL     1       6.660   5.376  16.263  0.00  0.00    +0.000 C 
ATOM      6  C   UNL     1       7.422   4.760  17.441  0.00  0.00    +0.000 C 
ATOM      7  C   UNL     1       6.470   4.342  18.549  0.00  0.00    +0.000 C 
ATOM      8  C   UNL     1       5.570   5.493  18.986  0.00  0.00    +0.000 C 
ATOM      9  N   UNL     1       4.899   6.156  17.865  0.00  0.00    +0.000 N 
ATOM     10  C   UNL     1       3.561   6.638  17.860  0.00  0.00    +0.000 C 
ATOM     11  O   UNL     1       3.097   7.159  16.855  0.00  0.00    +0.000 OA
ATOM     12  C   UNL     1       5.785   6.546  16.753  0.00  0.00    +0.000 C 
ATOM     13  O   UNL     1       7.642   5.851  15.315  0.00  0.00    +0.000 OA
ATOM     14  H   UNL     1       6.021   3.948  13.356  0.00  0.00    +0.000 HD
ENDROOT
BRANCH  10  15
ATOM     15  C   UNL     1       2.751   6.526  19.082  0.00  0.00    +0.000 A 
ATOM     16  C   UNL     1       2.420   7.585  19.918  0.00  0.00    +0.000 A 
ATOM     17  N   UNL     1       1.706   7.079  20.948  0.00  0.00    +0.000 N 
ATOM     18  N   UNL     1       1.400   5.799  20.792  0.00  0.00    +0.000 NA
ATOM     19  C   UNL     1       2.009   5.418  19.652  0.00  0.00    +0.000 A 
ATOM     20  H   UNL     1       1.373   7.552  21.782  0.00  0.00    +0.000 HD
BRANCH  19  21
ATOM     21  C   UNL     1       1.738   3.976  19.208  0.00  0.00    +0.000 C 
ATOM     22  C   UNL     1       2.944   3.051  19.025  0.00  0.00    +0.000 C 
ATOM     23  C   UNL     1       3.671   2.777  20.336  0.00  0.00    +0.000 C 
ATOM     24  C   UNL     1       2.745   2.219  21.416  0.00  0.00    +0.000 C 
ATOM     25  C   UNL     1       1.411   2.951  21.532  0.00  0.00    +0.000 C 
ATOM     26  C   UNL     1       0.767   3.234  20.171  0.00  0.00    +0.000 C 
ENDBRANCH  19  21
ENDBRANCH  10  15
TORSDOF 2
ENDMDL
MODEL 3
REMARK VINA RESULT:      -7.3      3.248      7.143
REMARK  Name = 
REMARK  2 active torsions:
REMARK  status: ('A' for Active; 'I' for Inactive)
REMARK    1  A    between atoms: C_10  and  C_12
REMARK    2  A    between atoms: C_16  and  C_17
REMARK                            x       y       z     vdW  Elec       q    Type
REMARK                         _______ _______ _______ _____ _____    ______ ____
ROOT
ATOM      1  O   UNL     1      -0.145  10.685  23.514  0.00  0.00    +0.000 OA
ATOM      2  C   UNL     1       0.045   9.971  22.545  0.00  0.00    +0.000 C 
ATOM      3  N   UNL     1      -0.824   9.034  22.081  0.00  0.00    +0.000 N 
ATOM      4  C   UNL     1      -0.391   8.481  20.848  0.00  0.00    +0.000 C 
ATOM      5  C   UNL     1       1.019   9.050  20.687  0.00  0.00    +0.000 C 
ATOM      6  C   UNL     1       1.211   9.806  19.369  0.00  0.00    +0.000 C 
ATOM      7  C   UNL     1       1.206   8.853  18.186  0.00  0.00    +0.000 C 
ATOM      8  C   UNL     1       2.225   7.732  18.358  0.00  0.00    +0.000 C 
ATOM      9  N   UNL     1       2.119   7.051  19.651  0.00  0.00    +0.000 N 
ATOM     10  C   UNL     1       2.267   5.654  19.873  0.00  0.00    +0.000 C 
ATOM     11  O   UNL     1       2.136   5.192  20.999  0.00  0.00    +0.000 OA
ATOM     12  C   UNL     1       2.085   7.944  20.823  0.00  0.00    +0.000 C 
ATOM     13  O   UNL     1       1.156  10.008  21.759  0.00  0.00    +0.000 OA
ATOM     14  H   UNL     1      -1.730   8.916  22.510  0.00  0.00    +0.000 HD
ENDROOT
BRANCH  10  15
ATOM     15  C   UNL     1       2.607   4.777  18.744  0.00  0.00    +0.000 A 
ATOM     16  C   UNL     1       1.697   4.001  18.036  0.00  0.00    +0.000 A 
ATOM     17  N   UNL     1       2.393   3.310  17.106  0.00  0.00    +0.000 N 
ATOM     18  N   UNL     1       3.665   3.673  17.030  0.00  0.00    +0.000 NA
ATOM     19  C   UNL     1       3.841   4.583  18.008  0.00  0.00    +0.000 A 
ATOM     20  H   UNL     1       2.062   2.590  16.472  0.00  0.00    +0.000 HD
BRANCH  19  21
ATOM     21  C   UNL     1       5.234   5.220  18.075  0.00  0.00    +0.000 C 
ATOM     22  C   UNL     1       6.410   4.414  17.517  0.00  0.00    +0.000 C 
ATOM     23  C   UNL     1       6.306   4.197  16.012  0.00  0.00    +0.000 C 
ATOM     24  C   UNL     1       6.158   5.507  15.239  0.00  0.00    +0.000 C 
ATOM     25  C   UNL     1       5.150   6.478  15.847  0.00  0.00    +0.000 C 
ATOM     26  C   UNL     1       5.285   6.604  17.368  0.00  0.00    +0.000 C 
ENDBRANCH  19  21
ENDBRANCH  10  15
TORSDOF 2
ENDMDL
MODEL 4
REMARK VINA RESULT:      -7.1      3.153      7.137
REMARK  Name = 
REMARK  2 active torsions:
REMARK  status: ('A' for Active; 'I' for Inactive)
REMARK    1  A    between atoms: C_10  and  C_12
REMARK    2  A    between atoms: C_16  and  C_17
REMARK                            x       y       z     vdW  Elec       q    Type
REMARK                         _______ _______ _______ _____ _____    ______ ____
ROOT
ATOM      1  O   UNL     1      -0.083  10.540  23.518  0.00  0.00    +0.000 OA
ATOM      2  C   UNL     1       0.098   9.852  22.529  0.00  0.00    +0.000 C 
ATOM      3  N   UNL     1      -0.730   8.862  22.100  0.00  0.00    +0.000 N 
ATOM      4  C   UNL     1      -0.332   8.354  20.836  0.00  0.00    +0.000 C 
ATOM      5  C   UNL     1       1.024   9.021  20.604  0.00  0.00    +0.000 C 
ATOM      6  C   UNL     1       1.087   9.804  19.289  0.00  0.00    +0.000 C 
ATOM      7  C   UNL     1       1.078   8.865  18.094  0.00  0.00    +0.000 C 
ATOM      8  C   UNL     1       2.180   7.815  18.190  0.00  0.00    +0.000 C 
ATOM      9  N   UNL     1       2.195   7.114  19.476  0.00  0.00    +0.000 N 
ATOM     10  C   UNL     1       2.451   5.729  19.669  0.00  0.00    +0.000 C 
ATOM     11  O   UNL     1       2.417   5.246  20.793  0.00  0.00    +0.000 OA
ATOM     12  C   UNL     1       2.169   7.990  20.662  0.00  0.00    +0.000 C 
ATOM     13  O   UNL     1       1.157   9.974  21.681  0.00  0.00    +0.000 OA
ATOM     14  H   UNL     1      -1.600   8.677  22.579  0.00  0.00    +0.000 HD
ENDROOT
BRANCH  10  15
ATOM     15  C   UNL     1       2.783   4.890  18.508  0.00  0.00    +0.000 A 
ATOM     16  C   UNL     1       2.029   3.813  18.062  0.00  0.00    +0.000 A 
ATOM     17  N   UNL     1       2.677   3.276  17.003  0.00  0.00    +0.000 N 
ATOM     18  N   UNL     1       3.718   3.995  16.610  0.00  0.00    +0.000 NA
ATOM     19  C   UNL     1       3.816   5.005  17.496  0.00  0.00    +0.000 A 
ATOM     20  H   UNL     1       2.454   2.433  16.484  0.00  0.00    +0.000 HD
BRANCH  19  21
ATOM     21  C   UNL     1       4.915   6.035  17.206  0.00  0.00    +0.000 C 
ATOM     22  C   UNL     1       5.869   6.394  18.348  0.00  0.00    +0.000 C 
ATOM     23  C   UNL     1       6.736   5.216  18.775  0.00  0.00    +0.000 C 
ATOM     24  C   UNL     1       7.520   4.611  17.611  0.00  0.00    +0.000 C 
ATOM     25  C   UNL     1       6.696   4.410  16.343  0.00  0.00    +0.000 C 
ATOM     26  C   UNL     1       5.813   5.617  16.008  0.00  0.00    +0.000 C 
ENDBRANCH  19  21
ENDBRANCH  10  15
TORSDOF 2
ENDMDL
MODEL 5
REMARK VINA RESULT:      -7.0      1.833      3.805
REMARK  Name = 
REMARK  2 active torsions:
REMARK  status: ('A' for Active; 'I' for Inactive)
REMARK    1  A    between atoms: C_10  and  C_12
REMARK    2  A    between atoms: C_16  and  C_17
REMARK                            x       y       z     vdW  Elec       q    Type
REMARK                         _______ _______ _______ _____ _____    ______ ____
ROOT
ATOM      1  O   UNL     1       7.759   5.248  13.346  0.00  0.00    +0.000 OA
ATOM      2  C   UNL     1       7.044   5.157  14.328  0.00  0.00    +0.000 C 
ATOM      3  N   UNL     1       5.849   4.509  14.369  0.00  0.00    +0.000 N 
ATOM      4  C   UNL     1       5.333   4.441  15.690  0.00  0.00    +0.000 C 
ATOM      5  C   UNL     1       6.279   5.347  16.480  0.00  0.00    +0.000 C 
ATOM      6  C   UNL     1       6.926   4.637  17.673  0.00  0.00    +0.000 C 
ATOM      7  C   UNL     1       5.904   4.357  18.762  0.00  0.00    +0.000 C 
ATOM      8  C   UNL     1       5.161   5.621  19.180  0.00  0.00    +0.000 C 
ATOM      9  N   UNL     1       4.609   6.365  18.045  0.00  0.00    +0.000 N 
ATOM     10  C   UNL     1       3.349   7.024  18.012  0.00  0.00    +0.000 C 
ATOM     11  O   UNL     1       2.980   7.600  16.997  0.00  0.00    +0.000 OA
ATOM     12  C   UNL     1       5.561   6.627  16.950  0.00  0.00    +0.000 C 
ATOM     13  O   UNL     1       7.334   5.680  15.551  0.00  0.00    +0.000 OA
ATOM     14  H   UNL     1       5.509   4.008  13.562  0.00  0.00    +0.000 HD
ENDROOT
BRANCH  10  15
ATOM     15  C   UNL     1       2.507   7.029  19.217  0.00  0.00    +0.000 A 
ATOM     16  C   UNL     1       2.286   5.931  20.039  0.00  0.00    +0.000 A 
ATOM     17  N   UNL     1       1.432   6.320  21.012  0.00  0.00    +0.000 N 
ATOM     18  N   UNL     1       1.185   7.621  21.000  0.00  0.00    +0.000 NA
ATOM     19  C   UNL     1       1.835   8.103  19.923  0.00  0.00    +0.000 A 
ATOM     20  H   UNL     1       0.993   5.756  21.733  0.00  0.00    +0.000 HD
BRANCH  19  21
ATOM     21  C   UNL     1       1.766   9.623  19.734  0.00  0.00    +0.000 C 
ATOM     22  C   UNL     1       1.363  10.149  18.354  0.00  0.00    +0.000 C 
ATOM     23  C   UNL     1      -0.071   9.786  17.988  0.00  0.00    +0.000 C 
ATOM     24  C   UNL     1      -1.081  10.250  19.038  0.00  0.00    +0.000 C 
ATOM     25  C   UNL     1      -0.662   9.957  20.476  0.00  0.00    +0.000 C 
ATOM     26  C   UNL     1       0.805  10.301  20.752  0.00  0.00    +0.000 C 
ENDBRANCH  19  21
ENDBRANCH  10  15
TORSDOF 2
ENDMDL
MODEL 6
REMARK VINA RESULT:      -6.9      3.351      7.169
REMARK  Name = 
REMARK  2 active torsions:
REMARK  status: ('A' for Active; 'I' for Inactive)
REMARK    1  A    between atoms: C_10  and  C_12
REMARK    2  A    between atoms: C_16  and  C_17
REMARK                            x       y       z     vdW  Elec       q    Type
REMARK                         _______ _______ _______ _____ _____    ______ ____
ROOT
ATOM      1  O   UNL     1      -0.678  13.852  18.582  0.00  0.00    +0.000 OA
ATOM      2  C   UNL     1      -0.012  12.901  18.948  0.00  0.00    +0.000 C 
ATOM      3  N   UNL     1       1.346  12.878  19.021  0.00  0.00    +0.000 N 
ATOM      4  C   UNL     1       1.820  11.688  19.634  0.00  0.00    +0.000 C 
ATOM      5  C   UNL     1       0.558  10.832  19.751  0.00  0.00    +0.000 C 
ATOM      6  C   UNL     1       0.279  10.375  21.187  0.00  0.00    +0.000 C 
ATOM      7  C   UNL     1       1.304   9.350  21.643  0.00  0.00    +0.000 C 
ATOM      8  C   UNL     1       1.399   8.175  20.675  0.00  0.00    +0.000 C 
ATOM      9  N   UNL     1       1.576   8.591  19.282  0.00  0.00    +0.000 N 
ATOM     10  C   UNL     1       2.411   7.956  18.321  0.00  0.00    +0.000 C 
ATOM     11  O   UNL     1       2.498   8.406  17.186  0.00  0.00    +0.000 OA
ATOM     12  C   UNL     1       0.623   9.612  18.811  0.00  0.00    +0.000 C 
ATOM     13  O   UNL     1      -0.522  11.707  19.359  0.00  0.00    +0.000 OA
ATOM     14  H   UNL     1       1.886  13.705  18.812  0.00  0.00    +0.000 HD
ENDROOT
BRANCH  10  15
ATOM     15  C   UNL     1       3.145   6.739  18.697  0.00  0.00    +0.000 A 
ATOM     16  C   UNL     1       2.618   5.687  19.435  0.00  0.00    +0.000 A 
ATOM     17  N   UNL     1       3.606   4.780  19.608  0.00  0.00    +0.000 N 
ATOM     18  N   UNL     1       4.700   5.064  18.918  0.00  0.00    +0.000 NA
ATOM     19  C   UNL     1       4.461   6.252  18.331  0.00  0.00    +0.000 A 
ATOM     20  H   UNL     1       3.597   3.931  20.165  0.00  0.00    +0.000 HD
BRANCH  19  21
ATOM     21  C   UNL     1       5.566   6.765  17.400  0.00  0.00    +0.000 C 
ATOM     22  C   UNL     1       6.987   6.245  17.634  0.00  0.00    +0.000 C 
ATOM     23  C   UNL     1       7.111   4.749  17.369  0.00  0.00    +0.000 C 
ATOM     24  C   UNL     1       6.637   4.359  15.970  0.00  0.00    +0.000 C 
ATOM     25  C   UNL     1       5.317   5.004  15.558  0.00  0.00    +0.000 C 
ATOM     26  C   UNL     1       5.249   6.496  15.902  0.00  0.00    +0.000 C 
ENDBRANCH  19  21
ENDBRANCH  10  15
TORSDOF 2
ENDMDL
MODEL 7
REMARK VINA RESULT:      -6.8      2.679      6.366
REMARK  Name = 
REMARK  2 active torsions:
REMARK  status: ('A' for Active; 'I' for Inactive)
REMARK    1  A    between atoms: C_10  and  C_12
REMARK    2  A    between atoms: C_16  and  C_17
REMARK                            x       y       z     vdW  Elec       q    Type
REMARK                         _______ _______ _______ _____ _____    ______ ____
ROOT
ATOM      1  O   UNL     1       1.081   2.243  22.445  0.00  0.00    +0.000 OA
ATOM      2  C   UNL     1       1.667   2.739  21.499  0.00  0.00    +0.000 C 
ATOM      3  N   UNL     1       2.386   2.050  20.573  0.00  0.00    +0.000 N 
ATOM      4  C   UNL     1       2.813   2.887  19.509  0.00  0.00    +0.000 C 
ATOM      5  C   UNL     1       2.446   4.288  20.000  0.00  0.00    +0.000 C 
ATOM      6  C   UNL     1       1.543   5.045  19.020  0.00  0.00    +0.000 C 
ATOM      7  C   UNL     1       2.304   5.428  17.762  0.00  0.00    +0.000 C 
ATOM      8  C   UNL     1       3.578   6.201  18.083  0.00  0.00    +0.000 C 
ATOM      9  N   UNL     1       4.415   5.538  19.086  0.00  0.00    +0.000 N 
ATOM     10  C   UNL     1       5.836   5.471  19.076  0.00  0.00    +0.000 C 
ATOM     11  O   UNL     1       6.431   4.868  19.959  0.00  0.00    +0.000 OA
ATOM     12  C   UNL     1       3.707   5.118  20.309  0.00  0.00    +0.000 C 
ATOM     13  O   UNL     1       1.684   4.069  21.208  0.00  0.00    +0.000 OA
ATOM     14  H   UNL     1       2.427   1.042  20.602  0.00  0.00    +0.000 HD
ENDROOT
BRANCH  10  15
ATOM     15  C   UNL     1       6.581   6.154  18.008  0.00  0.00    +0.000 A 
ATOM     16  C   UNL     1       7.056   7.458  18.077  0.00  0.00    +0.000 A 
ATOM     17  N   UNL     1       7.648   7.735  16.894  0.00  0.00    +0.000 N 
ATOM     18  N   UNL     1       7.745   6.680  16.099  0.00  0.00    +0.000 NA
ATOM     19  C   UNL     1       7.115   5.680  16.746  0.00  0.00    +0.000 A 
ATOM     20  H   UNL     1       8.030   8.617  16.567  0.00  0.00    +0.000 HD
BRANCH  19  21
ATOM     21  C   UNL     1       7.159   4.313  16.053  0.00  0.00    +0.000 C 
ATOM     22  C   UNL     1       5.943   3.397  16.213  0.00  0.00    +0.000 C 
ATOM     23  C   UNL     1       4.692   3.970  15.557  0.00  0.00    +0.000 C 
ATOM     24  C   UNL     1       4.903   4.303  14.081  0.00  0.00    +0.000 C 
ATOM     25  C   UNL     1       6.209   5.038  13.789  0.00  0.00    +0.000 C 
ATOM     26  C   UNL     1       7.410   4.434  14.523  0.00  0.00    +0.000 C 
ENDBRANCH  19  21
ENDBRANCH  10  15
TORSDOF 2
ENDMDL
MODEL 8
REMARK VINA RESULT:      -6.8      2.925      6.167
REMARK  Name = 
REMARK  2 active torsions:
REMARK  status: ('A' for Active; 'I' for Inactive)
REMARK    1  A    between atoms: C_10  and  C_12
REMARK    2  A    between atoms: C_16  and  C_17
REMARK                            x       y       z     vdW  Elec       q    Type
REMARK                         _______ _______ _______ _____ _____    ______ ____
ROOT
ATOM      1  O   UNL     1      -0.761  12.749  18.193  0.00  0.00    +0.000 OA
ATOM      2  C   UNL     1      -0.020  11.860  18.573  0.00  0.00    +0.000 C 
ATOM      3  N   UNL     1       1.308  12.002  18.827  0.00  0.00    +0.000 N 
ATOM      4  C   UNL     1       1.862  10.829  19.405  0.00  0.00    +0.000 C 
ATOM      5  C   UNL     1       0.726   9.813  19.284  0.00  0.00    +0.000 C 
ATOM      6  C   UNL     1       0.336   9.191  20.629  0.00  0.00    +0.000 C 
ATOM      7  C   UNL     1       1.427   8.265  21.140  0.00  0.00    +0.000 C 
ATOM      8  C   UNL     1       1.803   7.209  20.107  0.00  0.00    +0.000 C 
ATOM      9  N   UNL     1       2.094   7.774  18.786  0.00  0.00    +0.000 N 
ATOM     10  C   UNL     1       3.121   7.343  17.902  0.00  0.00    +0.000 C 
ATOM     11  O   UNL     1       3.285   7.906  16.828  0.00  0.00    +0.000 OA
ATOM     12  C   UNL     1       1.075   8.706  18.270  0.00  0.00    +0.000 C 
ATOM     13  O   UNL     1      -0.407  10.578  18.817  0.00  0.00    +0.000 OA
ATOM     14  H   UNL     1       1.751  12.907  18.758  0.00  0.00    +0.000 HD
ENDROOT
BRANCH  10  15
ATOM     15  C   UNL     1       3.963   6.199  18.280  0.00  0.00    +0.000 A 
ATOM     16  C   UNL     1       5.090   6.272  19.089  0.00  0.00    +0.000 A 
ATOM     17  N   UNL     1       5.610   5.027  19.170  0.00  0.00    +0.000 N 
ATOM     18  N   UNL     1       4.842   4.103  18.611  0.00  0.00    +0.000 NA
ATOM     19  C   UNL     1       3.810   4.773  18.063  0.00  0.00    +0.000 A 
ATOM     20  H   UNL     1       6.475   4.728  19.609  0.00  0.00    +0.000 HD
BRANCH  19  21
ATOM     21  C   UNL     1       2.727   3.903  17.414  0.00  0.00    +0.000 C 
ATOM     22  C   UNL     1       2.916   2.384  17.459  0.00  0.00    +0.000 C 
ATOM     23  C   UNL     1       2.864   1.832  18.879  0.00  0.00    +0.000 C 
ATOM     24  C   UNL     1       1.580   2.220  19.613  0.00  0.00    +0.000 C 
ATOM     25  C   UNL     1       1.188   3.686  19.449  0.00  0.00    +0.000 C 
ATOM     26  C   UNL     1       1.316   4.180  18.005  0.00  0.00    +0.000 C 
ENDBRANCH  19  21
ENDBRANCH  10  15
TORSDOF 2
ENDMDL
MODEL 9
REMARK VINA RESULT:      -6.6     10.162     12.610
REMARK  Name = 
REMARK  2 active torsions:
REMARK  status: ('A' for Active; 'I' for Inactive)
REMARK    1  A    between atoms: C_10  and  C_12
REMARK    2  A    between atoms: C_16  and  C_17
REMARK                            x       y       z     vdW  Elec       q    Type
REMARK                         _______ _______ _______ _____ _____    ______ ____
ROOT
ATOM      1  O   UNL     1       3.527  18.153  21.179  0.00  0.00    +0.000 OA
ATOM      2  C   UNL     1       4.411  17.447  20.727  0.00  0.00    +0.000 C 
ATOM      3  N   UNL     1       5.177  16.590  21.453  0.00  0.00    +0.000 N 
ATOM      4  C   UNL     1       6.008  15.794  20.622  0.00  0.00    +0.000 C 
ATOM      5  C   UNL     1       5.824  16.424  19.241  0.00  0.00    +0.000 C 
ATOM      6  C   UNL     1       5.355  15.418  18.184  0.00  0.00    +0.000 C 
ATOM      7  C   UNL     1       6.458  14.428  17.847  0.00  0.00    +0.000 C 
ATOM      8  C   UNL     1       7.746  15.132  17.437  0.00  0.00    +0.000 C 
ATOM      9  N   UNL     1       8.166  16.163  18.390  0.00  0.00    +0.000 N 
ATOM     10  C   UNL     1       9.504  16.438  18.787  0.00  0.00    +0.000 C 
ATOM     11  O   UNL     1       9.734  17.314  19.611  0.00  0.00    +0.000 OA
ATOM     12  C   UNL     1       7.114  17.123  18.771  0.00  0.00    +0.000 C 
ATOM     13  O   UNL     1       4.766  17.392  19.413  0.00  0.00    +0.000 OA
ATOM     14  H   UNL     1       5.006  16.458  22.439  0.00  0.00    +0.000 HD
ENDROOT
BRANCH  10  15
ATOM     15  C   UNL     1      10.606  15.680  18.178  0.00  0.00    +0.000 A 
ATOM     16  C   UNL     1      11.212  15.989  16.967  0.00  0.00    +0.000 A 
ATOM     17  N   UNL     1      12.147  15.042  16.730  0.00  0.00    +0.000 N 
ATOM     18  N   UNL     1      12.323  14.216  17.751  0.00  0.00    +0.000 NA
ATOM     19  C   UNL     1      11.408  14.577  18.671  0.00  0.00    +0.000 A 
ATOM     20  H   UNL     1      12.720  14.909  15.903  0.00  0.00    +0.000 HD
BRANCH  19  21
ATOM     21  C   UNL     1      11.464  13.808  19.996  0.00  0.00    +0.000 C 
ATOM     22  C   UNL     1      10.172  13.703  20.810  0.00  0.00    +0.000 C 
ATOM     23  C   UNL     1       9.097  12.892  20.095  0.00  0.00    +0.000 C 
ATOM     24  C   UNL     1       9.580  11.496  19.700  0.00  0.00    +0.000 C 
ATOM     25  C   UNL     1      10.968  11.474  19.066  0.00  0.00    +0.000 C 
ATOM     26  C   UNL     1      11.978  12.352  19.812  0.00  0.00    +0.000 C 
ENDBRANCH  19  21
ENDBRANCH  10  15
TORSDOF 2
ENDMDL
