MODEL 1
REMARK VINA RESULT:      -8.7      0.000      0.000
REMARK  Name = 
REMARK  10 active torsions:
REMARK  status: ('A' for Active; 'I' for Inactive)
REMARK    1  A    between atoms: C_1  and  N_2
REMARK    2  A    between atoms: N_2  and  C_3
REMARK    3  A    between atoms: N_2  and  C_6
REMARK    4  A    between atoms: C_3  and  C_4
REMARK    5  A    between atoms: C_4  and  O_5
REMARK    6  A    between atoms: C_8  and  C_9
REMARK    7  A    between atoms: C_9  and  N_10
REMARK    8  A    between atoms: C_9  and  C_11
REMARK    9  A    between atoms: C_11  and  C_12
REMARK   10  A    between atoms: C_23  and  C_24
REMARK                            x       y       z     vdW  Elec       q    Type
REMARK                         _______ _______ _______ _____ _____    ______ ____
ROOT
ATOM      1  C   UNL     1       2.740   4.542  19.213  0.00  0.00    +0.000 A 
ATOM      2  N   UNL     1       3.454   4.028  18.190  0.00  0.00    +0.000 NA
ATOM      3  C   UNL     1       3.886   4.874  17.233  0.00  0.00    +0.000 A 
ATOM      4  N   UNL     1       3.618   6.194  17.206  0.00  0.00    +0.000 NA
ATOM      5  C   UNL     1       2.943   6.703  18.239  0.00  0.00    +0.000 A 
ATOM      6  C   UNL     1       2.688   8.069  18.262  0.00  0.00    +0.000 A 
ATOM      7  C   UNL     1       2.002   8.684  19.320  0.00  0.00    +0.000 A 
ATOM      8  C   UNL     1       1.530   7.921  20.385  0.00  0.00    +0.000 A 
ATOM      9  C   UNL     1       1.743   6.543  20.345  0.00  0.00    +0.000 A 
ATOM     10  C   UNL     1       2.469   5.919  19.297  0.00  0.00    +0.000 A 
ENDROOT
BRANCH   8  11
ATOM     11  C   UNL     1       0.833   8.504  21.515  0.00  0.00    +0.000 A 
ATOM     12  C   UNL     1       1.306   9.335  22.561  0.00  0.00    +0.000 A 
ATOM     13  N   UNL     1       0.339   9.708  23.403  0.00  0.00    +0.000 NA
ATOM     14  N   UNL     1      -0.758   9.126  22.898  0.00  0.00    +0.000 N 
ATOM     15  C   UNL     1      -0.523   8.403  21.765  0.00  0.00    +0.000 A 
ATOM     16  H   UNL     1      -1.644   9.273  23.373  0.00  0.00    +0.000 HD
ENDBRANCH   8  11
BRANCH   1  18
ATOM     17  C   UNL     1       1.030   2.961  19.839  0.00  0.00    +0.000 C 
ATOM     18  N   UNL     1       2.271   3.646  20.192  0.00  0.00    +0.000 N 
BRANCH  18  19
ATOM     19  C   UNL     1       3.290   2.841  20.899  0.00  0.00    +0.000 C 
BRANCH  19  20
ATOM     20  C   UNL     1       4.459   2.379  20.021  0.00  0.00    +0.000 C 
BRANCH  20  21
ATOM     21  O   UNL     1       4.056   1.425  19.046  0.00  0.00    +0.000 OA
ATOM     22  H   UNL     1       4.328   0.550  19.387  0.00  0.00    +0.000 HD
ENDBRANCH  20  21
ENDBRANCH  19  20
ENDBRANCH  18  19
ENDBRANCH   1  18
BRANCH   3  23
ATOM     23  C   UNL     1       4.689   4.278  16.070  0.00  0.00    +0.000 C 
BRANCH  23  24
ATOM     24  N   UNL     1       5.279   2.954  16.390  0.00  0.00    +0.000 NA
ATOM     25  H   UNL     1       5.693   2.588  15.530  0.00  0.00    +0.000 HD
ATOM     26  H   UNL     1       4.534   2.310  16.655  0.00  0.00    +0.000 HD
ENDBRANCH  23  24
BRANCH  23  27
ATOM     27  C   UNL     1       5.769   5.299  15.643  0.00  0.00    +0.000 C 
BRANCH  27  28
ATOM     28  C   UNL     1       6.657   5.798  16.766  0.00  0.00    +0.000 A 
ATOM     29  C   UNL     1       7.151   4.906  17.732  0.00  0.00    +0.000 A 
ATOM     30  C   UNL     1       7.926   5.367  18.801  0.00  0.00    +0.000 A 
ATOM     31  C   UNL     1       8.216   6.725  18.916  0.00  0.00    +0.000 A 
ATOM     32  C   UNL     1       7.739   7.608  17.955  0.00  0.00    +0.000 A 
ATOM     33  F   UNL     1       8.016   8.913  18.065  0.00  0.00    +0.000 F 
ATOM     34  C   UNL     1       6.967   7.160  16.887  0.00  0.00    +0.000 A 
ENDBRANCH  27  28
ENDBRANCH  23  27
ENDBRANCH   3  23
TORSDOF 9
ENDMDL
MODEL 2
REMARK VINA RESULT:      -8.5      2.377      3.132
REMARK  Name = 
REMARK  10 active torsions:
REMARK  status: ('A' for Active; 'I' for Inactive)
REMARK    1  A    between atoms: C_1  and  N_2
REMARK    2  A    between atoms: N_2  and  C_3
REMARK    3  A    between atoms: N_2  and  C_6
REMARK    4  A    between atoms: C_3  and  C_4
REMARK    5  A    between atoms: C_4  and  O_5
REMARK    6  A    between atoms: C_8  and  C_9
REMARK    7  A    between atoms: C_9  and  N_10
REMARK    8  A    between atoms: C_9  and  C_11
REMARK    9  A    between atoms: C_11  and  C_12
REMARK   10  A    between atoms: C_23  and  C_24
REMARK                            x       y       z     vdW  Elec       q    Type
REMARK                         _______ _______ _______ _____ _____    ______ ____
ROOT
ATOM      1  C   UNL     1       2.435   5.184  19.588  0.00  0.00    +0.000 A 
ATOM      2  N   UNL     1       3.164   4.505  18.679  0.00  0.00    +0.000 NA
ATOM      3  C   UNL     1       3.657   5.189  17.627  0.00  0.00    +0.000 A 
ATOM      4  N   UNL     1       3.436   6.498  17.397  0.00  0.00    +0.000 NA
ATOM      5  C   UNL     1       2.745   7.173  18.319  0.00  0.00    +0.000 A 
ATOM      6  C   UNL     1       2.536   8.534  18.134  0.00  0.00    +0.000 A 
ATOM      7  C   UNL     1       1.836   9.318  19.063  0.00  0.00    +0.000 A 
ATOM      8  C   UNL     1       1.303   8.732  20.209  0.00  0.00    +0.000 A 
ATOM      9  C   UNL     1       1.469   7.358  20.378  0.00  0.00    +0.000 A 
ATOM     10  C   UNL     1       2.209   6.566  19.461  0.00  0.00    +0.000 A 
ENDROOT
BRANCH   8  11
ATOM     11  C   UNL     1       0.588   9.494  21.215  0.00  0.00    +0.000 A 
ATOM     12  C   UNL     1       0.412   9.255  22.601  0.00  0.00    +0.000 A 
ATOM     13  N   UNL     1      -0.281  10.220  23.209  0.00  0.00    +0.000 NA
ATOM     14  N   UNL     1      -0.545  11.087  22.221  0.00  0.00    +0.000 N 
ATOM     15  C   UNL     1      -0.041  10.708  21.011  0.00  0.00    +0.000 A 
ATOM     16  H   UNL     1      -1.069  11.927  22.445  0.00  0.00    +0.000 HD
ENDBRANCH   8  11
BRANCH   1  18
ATOM     17  C   UNL     1       0.707   3.680  20.343  0.00  0.00    +0.000 C 
ATOM     18  N   UNL     1       1.902   4.455  20.667  0.00  0.00    +0.000 N 
BRANCH  18  19
ATOM     19  C   UNL     1       2.874   3.818  21.582  0.00  0.00    +0.000 C 
BRANCH  19  20
ATOM     20  C   UNL     1       3.166   2.344  21.276  0.00  0.00    +0.000 C 
BRANCH  20  21
ATOM     21  O   UNL     1       4.293   2.184  20.425  0.00  0.00    +0.000 OA
ATOM     22  H   UNL     1       4.389   1.222  20.272  0.00  0.00    +0.000 HD
ENDBRANCH  20  21
ENDBRANCH  19  20
ENDBRANCH  18  19
ENDBRANCH   1  18
BRANCH   3  23
ATOM     23  C   UNL     1       4.479   4.407  16.594  0.00  0.00    +0.000 C 
BRANCH  23  24
ATOM     24  N   UNL     1       5.208   3.256  17.184  0.00  0.00    +0.000 NA
ATOM     25  H   UNL     1       5.983   3.634  17.732  0.00  0.00    +0.000 HD
ATOM     26  H   UNL     1       5.621   2.701  16.435  0.00  0.00    +0.000 HD
ENDBRANCH  23  24
BRANCH  23  27
ATOM     27  C   UNL     1       5.437   5.388  15.880  0.00  0.00    +0.000 C 
BRANCH  27  28
ATOM     28  C   UNL     1       6.024   4.875  14.580  0.00  0.00    +0.000 A 
ATOM     29  C   UNL     1       7.297   5.295  14.159  0.00  0.00    +0.000 A 
ATOM     30  C   UNL     1       7.823   4.869  12.936  0.00  0.00    +0.000 A 
ATOM     31  C   UNL     1       7.082   4.017  12.119  0.00  0.00    +0.000 A 
ATOM     32  C   UNL     1       5.829   3.589  12.539  0.00  0.00    +0.000 A 
ATOM     33  F   UNL     1       5.116   2.770  11.754  0.00  0.00    +0.000 F 
ATOM     34  C   UNL     1       5.296   4.007  13.755  0.00  0.00    +0.000 A 
ENDBRANCH  27  28
ENDBRANCH  23  27
ENDBRANCH   3  23
TORSDOF 9
ENDMDL
MODEL 3
REMARK VINA RESULT:      -8.4      0.795      1.185
REMARK  Name = 
REMARK  10 active torsions:
REMARK  status: ('A' for Active; 'I' for Inactive)
REMARK    1  A    between atoms: C_1  and  N_2
REMARK    2  A    between atoms: N_2  and  C_3
REMARK    3  A    between atoms: N_2  and  C_6
REMARK    4  A    between atoms: C_3  and  C_4
REMARK    5  A    between atoms: C_4  and  O_5
REMARK    6  A    between atoms: C_8  and  C_9
REMARK    7  A    between atoms: C_9  and  N_10
REMARK    8  A    between atoms: C_9  and  C_11
REMARK    9  A    between atoms: C_11  and  C_12
REMARK   10  A    between atoms: C_23  and  C_24
REMARK                            x       y       z     vdW  Elec       q    Type
REMARK                         _______ _______ _______ _____ _____    ______ ____
ROOT
ATOM      1  C   UNL     1       2.739   4.589  19.254  0.00  0.00    +0.000 A 
ATOM      2  N   UNL     1       3.459   4.085  18.231  0.00  0.00    +0.000 NA
ATOM      3  C   UNL     1       3.893   4.939  17.283  0.00  0.00    +0.000 A 
ATOM      4  N   UNL     1       3.620   6.258  17.263  0.00  0.00    +0.000 NA
ATOM      5  C   UNL     1       2.939   6.759  18.297  0.00  0.00    +0.000 A 
ATOM      6  C   UNL     1       2.678   8.123  18.329  0.00  0.00    +0.000 A 
ATOM      7  C   UNL     1       1.985   8.728  19.387  0.00  0.00    +0.000 A 
ATOM      8  C   UNL     1       1.510   7.956  20.444  0.00  0.00    +0.000 A 
ATOM      9  C   UNL     1       1.728   6.578  20.396  0.00  0.00    +0.000 A 
ATOM     10  C   UNL     1       2.462   5.965  19.347  0.00  0.00    +0.000 A 
ENDROOT
BRANCH   8  11
ATOM     11  C   UNL     1       0.806   8.528  21.575  0.00  0.00    +0.000 A 
ATOM     12  C   UNL     1       1.278   9.321  22.651  0.00  0.00    +0.000 A 
ATOM     13  N   UNL     1       0.304   9.697  23.483  0.00  0.00    +0.000 NA
ATOM     14  N   UNL     1      -0.797   9.157  22.942  0.00  0.00    +0.000 N 
ATOM     15  C   UNL     1      -0.557   8.456  21.796  0.00  0.00    +0.000 A 
ATOM     16  H   UNL     1      -1.688   9.314  23.404  0.00  0.00    +0.000 HD
ENDBRANCH   8  11
BRANCH   1  18
ATOM     17  C   UNL     1       0.984   3.067  19.903  0.00  0.00    +0.000 C 
ATOM     18  N   UNL     1       2.268   3.685  20.224  0.00  0.00    +0.000 N 
BRANCH  18  19
ATOM     19  C   UNL     1       3.277   2.814  20.865  0.00  0.00    +0.000 C 
BRANCH  19  20
ATOM     20  C   UNL     1       4.493   2.494  19.989  0.00  0.00    +0.000 C 
BRANCH  20  21
ATOM     21  O   UNL     1       4.224   1.457  19.053  0.00  0.00    +0.000 OA
ATOM     22  H   UNL     1       4.943   1.491  18.391  0.00  0.00    +0.000 HD
ENDBRANCH  20  21
ENDBRANCH  19  20
ENDBRANCH  18  19
ENDBRANCH   1  18
BRANCH   3  23
ATOM     23  C   UNL     1       4.704   4.355  16.120  0.00  0.00    +0.000 C 
BRANCH  23  24
ATOM     24  N   UNL     1       5.370   3.073  16.462  0.00  0.00    +0.000 NA
ATOM     25  H   UNL     1       4.751   2.569  17.100  0.00  0.00    +0.000 HD
ATOM     26  H   UNL     1       6.227   3.268  16.978  0.00  0.00    +0.000 HD
ENDBRANCH  23  24
BRANCH  23  27
ATOM     27  C   UNL     1       5.720   5.419  15.644  0.00  0.00    +0.000 C 
BRANCH  27  28
ATOM     28  C   UNL     1       6.565   6.033  16.743  0.00  0.00    +0.000 A 
ATOM     29  C   UNL     1       6.842   7.410  16.743  0.00  0.00    +0.000 A 
ATOM     30  C   UNL     1       7.664   7.974  17.723  0.00  0.00    +0.000 A 
ATOM     31  C   UNL     1       8.218   7.168  18.715  0.00  0.00    +0.000 A 
ATOM     32  C   UNL     1       7.935   5.808  18.726  0.00  0.00    +0.000 A 
ATOM     33  F   UNL     1       8.468   5.032  19.678  0.00  0.00    +0.000 F 
ATOM     34  C   UNL     1       7.118   5.236  17.755  0.00  0.00    +0.000 A 
ENDBRANCH  27  28
ENDBRANCH  23  27
ENDBRANCH   3  23
TORSDOF 9
ENDMDL
MODEL 4
REMARK VINA RESULT:      -8.3      3.038      4.091
REMARK  Name = 
REMARK  10 active torsions:
REMARK  status: ('A' for Active; 'I' for Inactive)
REMARK    1  A    between atoms: C_1  and  N_2
REMARK    2  A    between atoms: N_2  and  C_3
REMARK    3  A    between atoms: N_2  and  C_6
REMARK    4  A    between atoms: C_3  and  C_4
REMARK    5  A    between atoms: C_4  and  O_5
REMARK    6  A    between atoms: C_8  and  C_9
REMARK    7  A    between atoms: C_9  and  N_10
REMARK    8  A    between atoms: C_9  and  C_11
REMARK    9  A    between atoms: C_11  and  C_12
REMARK   10  A    between atoms: C_23  and  C_24
REMARK                            x       y       z     vdW  Elec       q    Type
REMARK                         _______ _______ _______ _____ _____    ______ ____
ROOT
ATOM      1  C   UNL     1       3.475   4.394  18.199  0.00  0.00    +0.000 A 
ATOM      2  N   UNL     1       4.425   3.853  17.409  0.00  0.00    +0.000 NA
ATOM      3  C   UNL     1       5.149   4.683  16.632  0.00  0.00    +0.000 A 
ATOM      4  N   UNL     1       4.961   6.015  16.559  0.00  0.00    +0.000 NA
ATOM      5  C   UNL     1       4.045   6.550  17.370  0.00  0.00    +0.000 A 
ATOM      6  C   UNL     1       3.856   7.926  17.350  0.00  0.00    +0.000 A 
ATOM      7  C   UNL     1       2.928   8.567  18.183  0.00  0.00    +0.000 A 
ATOM      8  C   UNL     1       2.139   7.820  19.054  0.00  0.00    +0.000 A 
ATOM      9  C   UNL     1       2.291   6.433  19.047  0.00  0.00    +0.000 A 
ATOM     10  C   UNL     1       3.255   5.782  18.234  0.00  0.00    +0.000 A 
ENDROOT
BRANCH   8  11
ATOM     11  C   UNL     1       1.178   8.428  19.954  0.00  0.00    +0.000 A 
ATOM     12  C   UNL     1       0.421   9.620  19.827  0.00  0.00    +0.000 A 
ATOM     13  N   UNL     1      -0.399   9.824  20.860  0.00  0.00    +0.000 NA
ATOM     14  N   UNL     1      -0.180   8.763  21.650  0.00  0.00    +0.000 N 
ATOM     15  C   UNL     1       0.745   7.892  21.153  0.00  0.00    +0.000 A 
ATOM     16  H   UNL     1      -0.707   8.690  22.515  0.00  0.00    +0.000 HD
ENDBRANCH   8  11
BRANCH   1  18
ATOM     17  C   UNL     1       2.179   2.361  18.263  0.00  0.00    +0.000 C 
ATOM     18  N   UNL     1       2.707   3.515  18.986  0.00  0.00    +0.000 N 
BRANCH  18  19
ATOM     19  C   UNL     1       3.184   3.268  20.364  0.00  0.00    +0.000 C 
BRANCH  19  20
ATOM     20  C   UNL     1       2.160   3.584  21.460  0.00  0.00    +0.000 C 
BRANCH  20  21
ATOM     21  O   UNL     1       0.970   2.818  21.323  0.00  0.00    +0.000 OA
ATOM     22  H   UNL     1       0.632   2.669  22.228  0.00  0.00    +0.000 HD
ENDBRANCH  20  21
ENDBRANCH  19  20
ENDBRANCH  18  19
ENDBRANCH   1  18
BRANCH   3  23
ATOM     23  C   UNL     1       6.221   4.057  15.731  0.00  0.00    +0.000 C 
BRANCH  23  24
ATOM     24  N   UNL     1       7.568   4.041  16.356  0.00  0.00    +0.000 NA
ATOM     25  H   UNL     1       7.711   3.108  16.746  0.00  0.00    +0.000 HD
ATOM     26  H   UNL     1       7.581   4.692  17.141  0.00  0.00    +0.000 HD
ENDBRANCH  23  24
BRANCH  23  27
ATOM     27  C   UNL     1       6.226   4.805  14.378  0.00  0.00    +0.000 C 
BRANCH  27  28
ATOM     28  C   UNL     1       5.988   3.930  13.163  0.00  0.00    +0.000 A 
ATOM     29  C   UNL     1       4.686   3.724  12.678  0.00  0.00    +0.000 A 
ATOM     30  C   UNL     1       4.453   2.876  11.592  0.00  0.00    +0.000 A 
ATOM     31  C   UNL     1       5.519   2.224  10.976  0.00  0.00    +0.000 A 
ATOM     32  C   UNL     1       6.810   2.436  11.445  0.00  0.00    +0.000 A 
ATOM     33  F   UNL     1       7.836   1.809  10.855  0.00  0.00    +0.000 F 
ATOM     34  C   UNL     1       7.053   3.279  12.526  0.00  0.00    +0.000 A 
ENDBRANCH  27  28
ENDBRANCH  23  27
ENDBRANCH   3  23
TORSDOF 9
ENDMDL
MODEL 5
REMARK VINA RESULT:      -8.2      2.541      3.517
REMARK  Name = 
REMARK  10 active torsions:
REMARK  status: ('A' for Active; 'I' for Inactive)
REMARK    1  A    between atoms: C_1  and  N_2
REMARK    2  A    between atoms: N_2  and  C_3
REMARK    3  A    between atoms: N_2  and  C_6
REMARK    4  A    between atoms: C_3  and  C_4
REMARK    5  A    between atoms: C_4  and  O_5
REMARK    6  A    between atoms: C_8  and  C_9
REMARK    7  A    between atoms: C_9  and  N_10
REMARK    8  A    between atoms: C_9  and  C_11
REMARK    9  A    between atoms: C_11  and  C_12
REMARK   10  A    between atoms: C_23  and  C_24
REMARK                            x       y       z     vdW  Elec       q    Type
REMARK                         _______ _______ _______ _____ _____    ______ ____
ROOT
ATOM      1  C   UNL     1       2.834   4.832  19.199  0.00  0.00    +0.000 A 
ATOM      2  N   UNL     1       3.698   4.248  18.343  0.00  0.00    +0.000 NA
ATOM      3  C   UNL     1       4.273   5.021  17.401  0.00  0.00    +0.000 A 
ATOM      4  N   UNL     1       4.013   6.331  17.227  0.00  0.00    +0.000 NA
ATOM      5  C   UNL     1       3.185   6.912  18.099  0.00  0.00    +0.000 A 
ATOM      6  C   UNL     1       2.929   8.272  17.973  0.00  0.00    +0.000 A 
ATOM      7  C   UNL     1       2.086   8.960  18.858  0.00  0.00    +0.000 A 
ATOM      8  C   UNL     1       1.455   8.277  19.895  0.00  0.00    +0.000 A 
ATOM      9  C   UNL     1       1.672   6.903  19.999  0.00  0.00    +0.000 A 
ATOM     10  C   UNL     1       2.553   6.207  19.130  0.00  0.00    +0.000 A 
ENDROOT
BRANCH   8  11
ATOM     11  C   UNL     1       0.591   8.938  20.854  0.00  0.00    +0.000 A 
ATOM     12  C   UNL     1      -0.045   8.441  22.019  0.00  0.00    +0.000 A 
ATOM     13  N   UNL     1      -0.734   9.379  22.673  0.00  0.00    +0.000 NA
ATOM     14  N   UNL     1      -0.536  10.482  21.938  0.00  0.00    +0.000 N 
ATOM     15  C   UNL     1       0.255  10.279  20.845  0.00  0.00    +0.000 A 
ATOM     16  H   UNL     1      -0.966  11.350  22.247  0.00  0.00    +0.000 HD
ENDBRANCH   8  11
BRANCH   1  18
ATOM     17  C   UNL     1       2.515   4.373  21.545  0.00  0.00    +0.000 C 
ATOM     18  N   UNL     1       2.219   4.010  20.161  0.00  0.00    +0.000 N 
BRANCH  18  19
ATOM     19  C   UNL     1       0.835   3.574  19.876  0.00  0.00    +0.000 C 
BRANCH  19  20
ATOM     20  C   UNL     1       0.725   2.393  18.906  0.00  0.00    +0.000 C 
BRANCH  20  21
ATOM     21  O   UNL     1       1.922   1.627  18.852  0.00  0.00    +0.000 OA
ATOM     22  H   UNL     1       2.066   1.276  19.753  0.00  0.00    +0.000 HD
ENDBRANCH  20  21
ENDBRANCH  19  20
ENDBRANCH  18  19
ENDBRANCH   1  18
BRANCH   3  23
ATOM     23  C   UNL     1       5.248   4.346  16.427  0.00  0.00    +0.000 C 
BRANCH  23  24
ATOM     24  N   UNL     1       6.480   3.850  17.091  0.00  0.00    +0.000 NA
ATOM     25  H   UNL     1       7.255   3.988  16.439  0.00  0.00    +0.000 HD
ATOM     26  H   UNL     1       6.398   2.845  17.241  0.00  0.00    +0.000 HD
ENDBRANCH  23  24
BRANCH  23  27
ATOM     27  C   UNL     1       5.571   5.337  15.286  0.00  0.00    +0.000 C 
BRANCH  27  28
ATOM     28  C   UNL     1       6.067   4.696  14.004  0.00  0.00    +0.000 A 
ATOM     29  C   UNL     1       7.272   5.118  13.418  0.00  0.00    +0.000 A 
ATOM     30  C   UNL     1       7.709   4.569  12.209  0.00  0.00    +0.000 A 
ATOM     31  C   UNL     1       6.947   3.592  11.571  0.00  0.00    +0.000 A 
ATOM     32  C   UNL     1       5.762   3.164  12.156  0.00  0.00    +0.000 A 
ATOM     33  F   UNL     1       5.028   2.225  11.544  0.00  0.00    +0.000 F 
ATOM     34  C   UNL     1       5.318   3.703  13.360  0.00  0.00    +0.000 A 
ENDBRANCH  27  28
ENDBRANCH  23  27
ENDBRANCH   3  23
TORSDOF 9
ENDMDL
MODEL 6
REMARK VINA RESULT:      -8.2      2.731      3.578
REMARK  Name = 
REMARK  10 active torsions:
REMARK  status: ('A' for Active; 'I' for Inactive)
REMARK    1  A    between atoms: C_1  and  N_2
REMARK    2  A    between atoms: N_2  and  C_3
REMARK    3  A    between atoms: N_2  and  C_6
REMARK    4  A    between atoms: C_3  and  C_4
REMARK    5  A    between atoms: C_4  and  O_5
REMARK    6  A    between atoms: C_8  and  C_9
REMARK    7  A    between atoms: C_9  and  N_10
REMARK    8  A    between atoms: C_9  and  C_11
REMARK    9  A    between atoms: C_11  and  C_12
REMARK   10  A    between atoms: C_23  and  C_24
REMARK                            x       y       z     vdW  Elec       q    Type
REMARK                         _______ _______ _______ _____ _____    ______ ____
ROOT
ATOM      1  C   UNL     1       2.789   5.389  18.797  0.00  0.00    +0.000 A 
ATOM      2  N   UNL     1       3.829   4.692  18.295  0.00  0.00    +0.000 NA
ATOM      3  C   UNL     1       4.704   5.345  17.504  0.00  0.00    +0.000 A 
ATOM      4  N   UNL     1       4.588   6.638  17.145  0.00  0.00    +0.000 NA
ATOM      5  C   UNL     1       3.578   7.333  17.674  0.00  0.00    +0.000 A 
ATOM      6  C   UNL     1       3.454   8.680  17.358  0.00  0.00    +0.000 A 
ATOM      7  C   UNL     1       2.433   9.483  17.886  0.00  0.00    +0.000 A 
ATOM      8  C   UNL     1       1.482   8.931  18.741  0.00  0.00    +0.000 A 
ATOM      9  C   UNL     1       1.573   7.568  19.026  0.00  0.00    +0.000 A 
ATOM     10  C   UNL     1       2.627   6.759  18.526  0.00  0.00    +0.000 A 
ENDROOT
BRANCH   8  11
ATOM     11  C   UNL     1       0.416   9.715  19.334  0.00  0.00    +0.000 A 
ATOM     12  C   UNL     1      -0.742  10.287  18.751  0.00  0.00    +0.000 A 
ATOM     13  N   UNL     1      -1.518  10.908  19.643  0.00  0.00    +0.000 NA
ATOM     14  N   UNL     1      -0.867  10.730  20.802  0.00  0.00    +0.000 N 
ATOM     15  C   UNL     1       0.289  10.016  20.678  0.00  0.00    +0.000 A 
ATOM     16  H   UNL     1      -1.276  11.117  21.648  0.00  0.00    +0.000 HD
ENDBRANCH   8  11
BRANCH   1  18
ATOM     17  C   UNL     1       1.175   3.601  18.916  0.00  0.00    +0.000 C 
ATOM     18  N   UNL     1       1.867   4.691  19.599  0.00  0.00    +0.000 N 
BRANCH  18  19
ATOM     19  C   UNL     1       2.261   4.445  21.003  0.00  0.00    +0.000 C 
BRANCH  19  20
ATOM     20  C   UNL     1       2.453   2.967  21.362  0.00  0.00    +0.000 C 
BRANCH  20  21
ATOM     21  O   UNL     1       1.532   2.530  22.354  0.00  0.00    +0.000 OA
ATOM     22  H   UNL     1       0.694   3.002  22.180  0.00  0.00    +0.000 HD
ENDBRANCH  20  21
ENDBRANCH  19  20
ENDBRANCH  18  19
ENDBRANCH   1  18
BRANCH   3  23
ATOM     23  C   UNL     1       5.879   4.542  16.932  0.00  0.00    +0.000 C 
BRANCH  23  24
ATOM     24  N   UNL     1       6.747   3.955  17.983  0.00  0.00    +0.000 NA
ATOM     25  H   UNL     1       6.264   4.068  18.876  0.00  0.00    +0.000 HD
ATOM     26  H   UNL     1       7.610   4.494  18.045  0.00  0.00    +0.000 HD
ENDBRANCH  23  24
BRANCH  23  27
ATOM     27  C   UNL     1       6.678   5.454  15.971  0.00  0.00    +0.000 C 
BRANCH  27  28
ATOM     28  C   UNL     1       6.795   4.937  14.550  0.00  0.00    +0.000 A 
ATOM     29  C   UNL     1       7.750   5.478  13.673  0.00  0.00    +0.000 A 
ATOM     30  C   UNL     1       7.828   5.044  12.347  0.00  0.00    +0.000 A 
ATOM     31  C   UNL     1       6.954   4.064  11.881  0.00  0.00    +0.000 A 
ATOM     32  C   UNL     1       6.018   3.518  12.750  0.00  0.00    +0.000 A 
ATOM     33  F   UNL     1       5.176   2.577  12.304  0.00  0.00    +0.000 F 
ATOM     34  C   UNL     1       5.931   3.942  14.073  0.00  0.00    +0.000 A 
ENDBRANCH  27  28
ENDBRANCH  23  27
ENDBRANCH   3  23
TORSDOF 9
ENDMDL
MODEL 7
REMARK VINA RESULT:      -8.2      2.825      3.874
REMARK  Name = 
REMARK  10 active torsions:
REMARK  status: ('A' for Active; 'I' for Inactive)
REMARK    1  A    between atoms: C_1  and  N_2
REMARK    2  A    between atoms: N_2  and  C_3
REMARK    3  A    between atoms: N_2  and  C_6
REMARK    4  A    between atoms: C_3  and  C_4
REMARK    5  A    between atoms: C_4  and  O_5
REMARK    6  A    between atoms: C_8  and  C_9
REMARK    7  A    between atoms: C_9  and  N_10
REMARK    8  A    between atoms: C_9  and  C_11
REMARK    9  A    between atoms: C_11  and  C_12
REMARK   10  A    between atoms: C_23  and  C_24
REMARK                            x       y       z     vdW  Elec       q    Type
REMARK                         _______ _______ _______ _____ _____    ______ ____
ROOT
ATOM      1  C   UNL     1       3.269   4.606  18.463  0.00  0.00    +0.000 A 
ATOM      2  N   UNL     1       4.185   4.005  17.676  0.00  0.00    +0.000 NA
ATOM      3  C   UNL     1       4.876   4.774  16.811  0.00  0.00    +0.000 A 
ATOM      4  N   UNL     1       4.685   6.098  16.647  0.00  0.00    +0.000 NA
ATOM      5  C   UNL     1       3.803   6.694  17.453  0.00  0.00    +0.000 A 
ATOM      6  C   UNL     1       3.613   8.065  17.339  0.00  0.00    +0.000 A 
ATOM      7  C   UNL     1       2.720   8.769  18.160  0.00  0.00    +0.000 A 
ATOM      8  C   UNL     1       1.968   8.090  19.116  0.00  0.00    +0.000 A 
ATOM      9  C   UNL     1       2.119   6.706  19.205  0.00  0.00    +0.000 A 
ATOM     10  C   UNL     1       3.050   5.994  18.403  0.00  0.00    +0.000 A 
ENDROOT
BRANCH   8  11
ATOM     11  C   UNL     1       1.045   8.766  20.007  0.00  0.00    +0.000 A 
ATOM     12  C   UNL     1       0.159   9.848  19.771  0.00  0.00    +0.000 A 
ATOM     13  N   UNL     1      -0.569  10.163  20.844  0.00  0.00    +0.000 NA
ATOM     14  N   UNL     1      -0.164   9.282  21.769  0.00  0.00    +0.000 N 
ATOM     15  C   UNL     1       0.791   8.417  21.321  0.00  0.00    +0.000 A 
ATOM     16  H   UNL     1      -0.591   9.320  22.690  0.00  0.00    +0.000 HD
ENDBRANCH   8  11
BRANCH   1  18
ATOM     17  C   UNL     1       1.610   2.870  18.685  0.00  0.00    +0.000 C 
ATOM     18  N   UNL     1       2.534   3.790  19.343  0.00  0.00    +0.000 N 
BRANCH  18  19
ATOM     19  C   UNL     1       3.256   3.268  20.523  0.00  0.00    +0.000 C 
BRANCH  19  20
ATOM     20  C   UNL     1       3.934   1.910  20.308  0.00  0.00    +0.000 C 
BRANCH  20  21
ATOM     21  O   UNL     1       5.274   2.043  19.853  0.00  0.00    +0.000 OA
ATOM     22  H   UNL     1       5.224   2.182  18.886  0.00  0.00    +0.000 HD
ENDBRANCH  20  21
ENDBRANCH  19  20
ENDBRANCH  18  19
ENDBRANCH   1  18
BRANCH   3  23
ATOM     23  C   UNL     1       5.911   4.081  15.915  0.00  0.00    +0.000 C 
BRANCH  23  24
ATOM     24  N   UNL     1       7.235   3.928  16.569  0.00  0.00    +0.000 NA
ATOM     25  H   UNL     1       7.915   4.441  16.003  0.00  0.00    +0.000 HD
ATOM     26  H   UNL     1       7.511   2.948  16.542  0.00  0.00    +0.000 HD
ENDBRANCH  23  24
BRANCH  23  27
ATOM     27  C   UNL     1       6.013   4.861  14.585  0.00  0.00    +0.000 C 
BRANCH  27  28
ATOM     28  C   UNL     1       5.833   4.021  13.335  0.00  0.00    +0.000 A 
ATOM     29  C   UNL     1       4.554   3.820  12.791  0.00  0.00    +0.000 A 
ATOM     30  C   UNL     1       4.373   3.003  11.671  0.00  0.00    +0.000 A 
ATOM     31  C   UNL     1       5.470   2.378  11.081  0.00  0.00    +0.000 A 
ATOM     32  C   UNL     1       6.738   2.586  11.609  0.00  0.00    +0.000 A 
ATOM     33  F   UNL     1       7.793   1.985  11.043  0.00  0.00    +0.000 F 
ATOM     34  C   UNL     1       6.929   3.398  12.724  0.00  0.00    +0.000 A 
ENDBRANCH  27  28
ENDBRANCH  23  27
ENDBRANCH   3  23
TORSDOF 9
ENDMDL
MODEL 8
REMARK VINA RESULT:      -8.1      2.982      3.983
REMARK  Name = 
REMARK  10 active torsions:
REMARK  status: ('A' for Active; 'I' for Inactive)
REMARK    1  A    between atoms: C_1  and  N_2
REMARK    2  A    between atoms: N_2  and  C_3
REMARK    3  A    between atoms: N_2  and  C_6
REMARK    4  A    between atoms: C_3  and  C_4
REMARK    5  A    between atoms: C_4  and  O_5
REMARK    6  A    between atoms: C_8  and  C_9
REMARK    7  A    between atoms: C_9  and  N_10
REMARK    8  A    between atoms: C_9  and  C_11
REMARK    9  A    between atoms: C_11  and  C_12
REMARK   10  A    between atoms: C_23  and  C_24
REMARK                            x       y       z     vdW  Elec       q    Type
REMARK                         _______ _______ _______ _____ _____    ______ ____
ROOT
ATOM      1  C   UNL     1       3.582   4.448  18.408  0.00  0.00    +0.000 A 
ATOM      2  N   UNL     1       4.512   3.899  17.599  0.00  0.00    +0.000 NA
ATOM      3  C   UNL     1       5.149   4.708  16.729  0.00  0.00    +0.000 A 
ATOM      4  N   UNL     1       4.893   6.022  16.582  0.00  0.00    +0.000 NA
ATOM      5  C   UNL     1       3.999   6.568  17.411  0.00  0.00    +0.000 A 
ATOM      6  C   UNL     1       3.742   7.930  17.314  0.00  0.00    +0.000 A 
ATOM      7  C   UNL     1       2.832   8.582  18.158  0.00  0.00    +0.000 A 
ATOM      8  C   UNL     1       2.130   7.860  19.120  0.00  0.00    +0.000 A 
ATOM      9  C   UNL     1       2.349   6.484  19.192  0.00  0.00    +0.000 A 
ATOM     10  C   UNL     1       3.297   5.824  18.367  0.00  0.00    +0.000 A 
ENDROOT
BRANCH   8  11
ATOM     11  C   UNL     1       1.193   8.483  20.034  0.00  0.00    +0.000 A 
ATOM     12  C   UNL     1       0.402   9.651  19.892  0.00  0.00    +0.000 A 
ATOM     13  N   UNL     1      -0.380   9.879  20.950  0.00  0.00    +0.000 NA
ATOM     14  N   UNL     1      -0.102   8.856  21.771  0.00  0.00    +0.000 N 
ATOM     15  C   UNL     1       0.823   7.987  21.271  0.00  0.00    +0.000 A 
ATOM     16  H   UNL     1      -0.591   8.807  22.660  0.00  0.00    +0.000 HD
ENDBRANCH   8  11
BRANCH   1  18
ATOM     17  C   UNL     1       2.039   2.609  18.641  0.00  0.00    +0.000 C 
ATOM     18  N   UNL     1       2.903   3.590  19.293  0.00  0.00    +0.000 N 
BRANCH  18  19
ATOM     19  C   UNL     1       3.659   3.120  20.474  0.00  0.00    +0.000 C 
BRANCH  19  20
ATOM     20  C   UNL     1       4.590   1.933  20.205  0.00  0.00    +0.000 C 
BRANCH  20  21
ATOM     21  O   UNL     1       5.277   1.510  21.376  0.00  0.00    +0.000 OA
ATOM     22  H   UNL     1       4.964   0.603  21.567  0.00  0.00    +0.000 HD
ENDBRANCH  20  21
ENDBRANCH  19  20
ENDBRANCH  18  19
ENDBRANCH   1  18
BRANCH   3  23
ATOM     23  C   UNL     1       6.199   4.072  15.808  0.00  0.00    +0.000 C 
BRANCH  23  24
ATOM     24  N   UNL     1       7.563   4.072  16.395  0.00  0.00    +0.000 NA
ATOM     25  H   UNL     1       8.001   4.961  16.147  0.00  0.00    +0.000 HD
ATOM     26  H   UNL     1       8.116   3.339  15.955  0.00  0.00    +0.000 HD
ENDBRANCH  23  24
BRANCH  23  27
ATOM     27  C   UNL     1       6.161   4.798  14.444  0.00  0.00    +0.000 C 
BRANCH  27  28
ATOM     28  C   UNL     1       5.929   3.896  13.247  0.00  0.00    +0.000 A 
ATOM     29  C   UNL     1       7.002   3.207  12.657  0.00  0.00    +0.000 A 
ATOM     30  C   UNL     1       6.805   2.416  11.521  0.00  0.00    +0.000 A 
ATOM     31  C   UNL     1       5.534   2.304  10.962  0.00  0.00    +0.000 A 
ATOM     32  C   UNL     1       4.469   2.974  11.551  0.00  0.00    +0.000 A 
ATOM     33  F   UNL     1       3.247   2.869  11.014  0.00  0.00    +0.000 F 
ATOM     34  C   UNL     1       4.654   3.764  12.682  0.00  0.00    +0.000 A 
ENDBRANCH  27  28
ENDBRANCH  23  27
ENDBRANCH   3  23
TORSDOF 9
ENDMDL
MODEL 9
REMARK VINA RESULT:      -8.1      3.117      4.138
REMARK  Name = 
REMARK  10 active torsions:
REMARK  status: ('A' for Active; 'I' for Inactive)
REMARK    1  A    between atoms: C_1  and  N_2
REMARK    2  A    between atoms: N_2  and  C_3
REMARK    3  A    between atoms: N_2  and  C_6
REMARK    4  A    between atoms: C_3  and  C_4
REMARK    5  A    between atoms: C_4  and  O_5
REMARK    6  A    between atoms: C_8  and  C_9
REMARK    7  A    between atoms: C_9  and  N_10
REMARK    8  A    between atoms: C_9  and  C_11
REMARK    9  A    between atoms: C_11  and  C_12
REMARK   10  A    between atoms: C_23  and  C_24
REMARK                            x       y       z     vdW  Elec       q    Type
REMARK                         _______ _______ _______ _____ _____    ______ ____
ROOT
ATOM      1  C   UNL     1       3.495   4.313  18.173  0.00  0.00    +0.000 A 
ATOM      2  N   UNL     1       4.443   3.775  17.378  0.00  0.00    +0.000 NA
ATOM      3  C   UNL     1       5.173   4.611  16.612  0.00  0.00    +0.000 A 
ATOM      4  N   UNL     1       4.993   5.944  16.554  0.00  0.00    +0.000 NA
ATOM      5  C   UNL     1       4.080   6.476  17.370  0.00  0.00    +0.000 A 
ATOM      6  C   UNL     1       3.900   7.853  17.366  0.00  0.00    +0.000 A 
ATOM      7  C   UNL     1       2.975   8.490  18.206  0.00  0.00    +0.000 A 
ATOM      8  C   UNL     1       2.181   7.738  19.068  0.00  0.00    +0.000 A 
ATOM      9  C   UNL     1       2.323   6.350  19.043  0.00  0.00    +0.000 A 
ATOM     10  C   UNL     1       3.284   5.702  18.224  0.00  0.00    +0.000 A 
ENDROOT
BRANCH   8  11
ATOM     11  C   UNL     1       1.222   8.341  19.974  0.00  0.00    +0.000 A 
ATOM     12  C   UNL     1       0.463   9.533  19.854  0.00  0.00    +0.000 A 
ATOM     13  N   UNL     1      -0.353   9.732  20.891  0.00  0.00    +0.000 NA
ATOM     14  N   UNL     1      -0.129   8.669  21.676  0.00  0.00    +0.000 N 
ATOM     15  C   UNL     1       0.795   7.801  21.172  0.00  0.00    +0.000 A 
ATOM     16  H   UNL     1      -0.652   8.591  22.543  0.00  0.00    +0.000 HD
ENDBRANCH   8  11
BRANCH   1  18
ATOM     17  C   UNL     1       2.180   2.292  18.209  0.00  0.00    +0.000 C 
ATOM     18  N   UNL     1       2.721   3.430  18.948  0.00  0.00    +0.000 N 
BRANCH  18  19
ATOM     19  C   UNL     1       3.198   3.158  20.321  0.00  0.00    +0.000 C 
BRANCH  19  20
ATOM     20  C   UNL     1       2.204   3.531  21.427  0.00  0.00    +0.000 C 
BRANCH  20  21
ATOM     21  O   UNL     1       0.858   3.262  21.056  0.00  0.00    +0.000 OA
ATOM     22  H   UNL     1       0.775   3.519  20.115  0.00  0.00    +0.000 HD
ENDBRANCH  20  21
ENDBRANCH  19  20
ENDBRANCH  18  19
ENDBRANCH   1  18
BRANCH   3  23
ATOM     23  C   UNL     1       6.242   3.989  15.704  0.00  0.00    +0.000 C 
BRANCH  23  24
ATOM     24  N   UNL     1       7.599   4.010  16.307  0.00  0.00    +0.000 NA
ATOM     25  H   UNL     1       7.530   3.571  17.227  0.00  0.00    +0.000 HD
ATOM     26  H   UNL     1       7.881   4.977  16.462  0.00  0.00    +0.000 HD
ENDBRANCH  23  24
BRANCH  23  27
ATOM     27  C   UNL     1       6.210   4.711  14.337  0.00  0.00    +0.000 C 
BRANCH  27  28
ATOM     28  C   UNL     1       5.955   3.810  13.145  0.00  0.00    +0.000 A 
ATOM     29  C   UNL     1       7.016   3.121  12.533  0.00  0.00    +0.000 A 
ATOM     30  C   UNL     1       6.797   2.331  11.401  0.00  0.00    +0.000 A 
ATOM     31  C   UNL     1       5.515   2.220  10.866  0.00  0.00    +0.000 A 
ATOM     32  C   UNL     1       4.462   2.888  11.477  0.00  0.00    +0.000 A 
ATOM     33  F   UNL     1       3.229   2.783  10.964  0.00  0.00    +0.000 F 
ATOM     34  C   UNL     1       4.668   3.677  12.605  0.00  0.00    +0.000 A 
ENDBRANCH  27  28
ENDBRANCH  23  27
ENDBRANCH   3  23
TORSDOF 9
ENDMDL
