MODEL 1
REMARK VINA RESULT:      -8.1      0.000      0.000
REMARK  Name = 
REMARK  8 active torsions:
REMARK  status: ('A' for Active; 'I' for Inactive)
REMARK    1  A    between atoms: C_1  and  C_2
REMARK    2  A    between atoms: C_2  and  O_3
REMARK    3  A    between atoms: O_3  and  C_4
REMARK    4  A    between atoms: C_4  and  C_6
REMARK    5  A    between atoms: N_9  and  C_10
REMARK    6  A    between atoms: C_13  and  N_14
REMARK    7  A    between atoms: C_16  and  C_17
REMARK    8  A    between atoms: C_27  and  C_28
REMARK                            x       y       z     vdW  Elec       q    Type
REMARK                         _______ _______ _______ _____ _____    ______ ____
ROOT
ATOM      1  C   UNL     1       2.573   7.554  18.723  0.00  0.00    +0.000 A 
ATOM      2  C   UNL     1       2.327   7.121  20.020  0.00  0.00    +0.000 A 
ATOM      3  C   UNL     1       1.552   7.881  20.892  0.00  0.00    +0.000 A 
ATOM      4  C   UNL     1       0.972   9.079  20.463  0.00  0.00    +0.000 A 
ATOM      5  C   UNL     1       1.147   9.491  19.139  0.00  0.00    +0.000 A 
ATOM      6  C   UNL     1       1.940   8.725  18.268  0.00  0.00    +0.000 A 
ENDROOT
BRANCH   1  10
ATOM      7  C   UNL     1       4.558   5.373  16.603  0.00  0.00    +0.000 A 
ATOM      8  C   UNL     1       5.190   6.626  16.623  0.00  0.00    +0.000 A 
ATOM      9  N   UNL     1       4.561   7.498  17.401  0.00  0.00    +0.000 NA
ATOM     10  N   UNL     1       3.451   6.847  17.845  0.00  0.00    +0.000 N 
ATOM     11  C   UNL     1       3.413   5.542  17.371  0.00  0.00    +0.000 A 
BRANCH  11  12
ATOM     12  C   UNL     1       2.369   4.565  17.727  0.00  0.00    +0.000 C 
ATOM     13  F   UNL     1       2.435   4.120  19.003  0.00  0.00    +0.000 F 
ATOM     14  F   UNL     1       1.119   5.063  17.567  0.00  0.00    +0.000 F 
ATOM     15  F   UNL     1       2.464   3.445  16.966  0.00  0.00    +0.000 F 
ENDBRANCH  11  12
BRANCH   7  16
ATOM     16  C   UNL     1       5.064   4.161  16.001  0.00  0.00    +0.000 C 
ATOM     17  O   UNL     1       5.512   3.226  16.650  0.00  0.00    +0.000 OA
BRANCH  16  18
ATOM     18  O   UNL     1       5.099   4.249  14.644  0.00  0.00    +0.000 OA
BRANCH  18  20
ATOM     19  C   UNL     1       6.093   3.540  12.603  0.00  0.00    +0.000 C 
ATOM     20  C   UNL     1       6.354   3.887  14.058  0.00  0.00    +0.000 C 
ENDBRANCH  18  20
ENDBRANCH  16  18
ENDBRANCH   7  16
ENDBRANCH   1  10
BRANCH   4  21
ATOM     21  N   UNL     1       0.215   9.852  21.372  0.00  0.00    +0.000 N 
ATOM     22  C   UNL     1      -0.769  10.770  21.079  0.00  0.00    +0.000 A 
ATOM     23  C   UNL     1      -1.182  11.251  22.295  0.00  0.00    +0.000 A 
ATOM     24  N   UNL     1      -0.470  10.628  23.283  0.00  0.00    +0.000 NA
ATOM     25  N   UNL     1       0.367   9.768  22.715  0.00  0.00    +0.000 NA
BRANCH  23  26
ATOM     26  C   UNL     1      -2.216  12.240  22.515  0.00  0.00    +0.000 A 
ATOM     27  C   UNL     1      -3.049  12.155  23.632  0.00  0.00    +0.000 A 
ATOM     28  C   UNL     1      -4.055  13.105  23.819  0.00  0.00    +0.000 A 
ATOM     29  C   UNL     1      -4.195  14.114  22.882  0.00  0.00    +0.000 A 
ATOM     30  N   UNL     1      -3.407  14.238  21.795  0.00  0.00    +0.000 NA
ATOM     31  C   UNL     1      -2.442  13.300  21.641  0.00  0.00    +0.000 A 
ENDBRANCH  23  26
ENDBRANCH   4  21
TORSDOF 7
ENDMDL
MODEL 2
REMARK VINA RESULT:      -7.8      0.575      1.025
REMARK  Name = 
REMARK  8 active torsions:
REMARK  status: ('A' for Active; 'I' for Inactive)
REMARK    1  A    between atoms: C_1  and  C_2
REMARK    2  A    between atoms: C_2  and  O_3
REMARK    3  A    between atoms: O_3  and  C_4
REMARK    4  A    between atoms: C_4  and  C_6
REMARK    5  A    between atoms: N_9  and  C_10
REMARK    6  A    between atoms: C_13  and  N_14
REMARK    7  A    between atoms: C_16  and  C_17
REMARK    8  A    between atoms: C_27  and  C_28
REMARK                            x       y       z     vdW  Elec       q    Type
REMARK                         _______ _______ _______ _____ _____    ______ ____
ROOT
ATOM      1  C   UNL     1       2.591   7.569  18.703  0.00  0.00    +0.000 A 
ATOM      2  C   UNL     1       2.318   7.173  20.007  0.00  0.00    +0.000 A 
ATOM      3  C   UNL     1       1.544   7.967  20.848  0.00  0.00    +0.000 A 
ATOM      4  C   UNL     1       0.991   9.164  20.381  0.00  0.00    +0.000 A 
ATOM      5  C   UNL     1       1.193   9.540  19.051  0.00  0.00    +0.000 A 
ATOM      6  C   UNL     1       1.985   8.740  18.211  0.00  0.00    +0.000 A 
ENDROOT
BRANCH   1  10
ATOM      7  C   UNL     1       4.561   5.306  16.657  0.00  0.00    +0.000 A 
ATOM      8  C   UNL     1       5.235   6.537  16.687  0.00  0.00    +0.000 A 
ATOM      9  N   UNL     1       4.613   7.436  17.440  0.00  0.00    +0.000 NA
ATOM     10  N   UNL     1       3.469   6.826  17.857  0.00  0.00    +0.000 N 
ATOM     11  C   UNL     1       3.401   5.520  17.390  0.00  0.00    +0.000 A 
BRANCH  11  12
ATOM     12  C   UNL     1       2.314   4.582  17.722  0.00  0.00    +0.000 C 
ATOM     13  F   UNL     1       2.329   3.436  17.002  0.00  0.00    +0.000 F 
ATOM     14  F   UNL     1       2.334   4.206  19.025  0.00  0.00    +0.000 F 
ATOM     15  F   UNL     1       1.098   5.130  17.474  0.00  0.00    +0.000 F 
ENDBRANCH  11  12
BRANCH   7  16
ATOM     16  C   UNL     1       5.043   4.073  16.079  0.00  0.00    +0.000 C 
ATOM     17  O   UNL     1       5.481   3.145  16.745  0.00  0.00    +0.000 OA
BRANCH  16  18
ATOM     18  O   UNL     1       5.067   4.130  14.720  0.00  0.00    +0.000 OA
BRANCH  18  20
ATOM     19  C   UNL     1       6.214   3.582  12.709  0.00  0.00    +0.000 C 
ATOM     20  C   UNL     1       6.376   4.047  14.146  0.00  0.00    +0.000 C 
ENDBRANCH  18  20
ENDBRANCH  16  18
ENDBRANCH   7  16
ENDBRANCH   1  10
BRANCH   4  21
ATOM     21  N   UNL     1       0.235   9.972  21.260  0.00  0.00    +0.000 N 
ATOM     22  C   UNL     1      -0.708  10.920  20.928  0.00  0.00    +0.000 A 
ATOM     23  C   UNL     1      -1.141  11.427  22.127  0.00  0.00    +0.000 A 
ATOM     24  N   UNL     1      -0.480  10.792  23.142  0.00  0.00    +0.000 NA
ATOM     25  N   UNL     1       0.344   9.898  22.607  0.00  0.00    +0.000 NA
BRANCH  23  26
ATOM     26  C   UNL     1      -2.147  12.453  22.306  0.00  0.00    +0.000 A 
ATOM     27  C   UNL     1      -3.112  12.675  21.322  0.00  0.00    +0.000 A 
ATOM     28  C   UNL     1      -4.062  13.682  21.500  0.00  0.00    +0.000 A 
ATOM     29  C   UNL     1      -4.020  14.435  22.661  0.00  0.00    +0.000 A 
ATOM     30  N   UNL     1      -3.112  14.247  23.640  0.00  0.00    +0.000 NA
ATOM     31  C   UNL     1      -2.202  13.264  23.436  0.00  0.00    +0.000 A 
ENDBRANCH  23  26
ENDBRANCH   4  21
TORSDOF 7
ENDMDL
MODEL 3
REMARK VINA RESULT:      -7.8      6.536      8.907
REMARK  Name = 
REMARK  8 active torsions:
REMARK  status: ('A' for Active; 'I' for Inactive)
REMARK    1  A    between atoms: C_1  and  C_2
REMARK    2  A    between atoms: C_2  and  O_3
REMARK    3  A    between atoms: O_3  and  C_4
REMARK    4  A    between atoms: C_4  and  C_6
REMARK    5  A    between atoms: N_9  and  C_10
REMARK    6  A    between atoms: C_13  and  N_14
REMARK    7  A    between atoms: C_16  and  C_17
REMARK    8  A    between atoms: C_27  and  C_28
REMARK                            x       y       z     vdW  Elec       q    Type
REMARK                         _______ _______ _______ _____ _____    ______ ____
ROOT
ATOM      1  C   UNL     1       6.775   6.520  17.560  0.00  0.00    +0.000 A 
ATOM      2  C   UNL     1       6.641   7.745  16.920  0.00  0.00    +0.000 A 
ATOM      3  C   UNL     1       7.375   8.853  17.335  0.00  0.00    +0.000 A 
ATOM      4  C   UNL     1       8.293   8.741  18.384  0.00  0.00    +0.000 A 
ATOM      5  C   UNL     1       8.495   7.498  18.989  0.00  0.00    +0.000 A 
ATOM      6  C   UNL     1       7.743   6.387  18.572  0.00  0.00    +0.000 A 
ENDROOT
BRANCH   1  10
ATOM      7  C   UNL     1       4.404   3.817  17.044  0.00  0.00    +0.000 A 
ATOM      8  C   UNL     1       5.529   3.544  16.251  0.00  0.00    +0.000 A 
ATOM      9  N   UNL     1       6.480   4.459  16.390  0.00  0.00    +0.000 NA
ATOM     10  N   UNL     1       5.956   5.399  17.223  0.00  0.00    +0.000 N 
ATOM     11  C   UNL     1       4.681   5.041  17.641  0.00  0.00    +0.000 A 
BRANCH  11  12
ATOM     12  C   UNL     1       3.876   5.822  18.596  0.00  0.00    +0.000 C 
ATOM     13  F   UNL     1       2.578   5.447  18.668  0.00  0.00    +0.000 F 
ATOM     14  F   UNL     1       4.358   5.747  19.861  0.00  0.00    +0.000 F 
ATOM     15  F   UNL     1       3.838   7.134  18.251  0.00  0.00    +0.000 F 
ENDBRANCH  11  12
BRANCH   7  16
ATOM     16  C   UNL     1       3.270   2.949  17.261  0.00  0.00    +0.000 C 
ATOM     17  O   UNL     1       2.144   3.201  16.857  0.00  0.00    +0.000 OA
BRANCH  16  18
ATOM     18  O   UNL     1       3.586   1.902  18.070  0.00  0.00    +0.000 OA
BRANCH  18  20
ATOM     19  C   UNL     1       2.551   2.496  20.129  0.00  0.00    +0.000 C 
ATOM     20  C   UNL     1       3.877   2.266  19.425  0.00  0.00    +0.000 C 
ENDBRANCH  18  20
ENDBRANCH  16  18
ENDBRANCH   7  16
ENDBRANCH   1  10
BRANCH   4  21
ATOM     21  N   UNL     1       9.005   9.884  18.811  0.00  0.00    +0.000 N 
ATOM     22  C   UNL     1       9.552  10.876  18.027  0.00  0.00    +0.000 A 
ATOM     23  C   UNL     1      10.142  11.744  18.910  0.00  0.00    +0.000 A 
ATOM     24  N   UNL     1       9.942  11.286  20.183  0.00  0.00    +0.000 NA
ATOM     25  N   UNL     1       9.238  10.163  20.116  0.00  0.00    +0.000 NA
BRANCH  23  26
ATOM     26  C   UNL     1      10.846  12.962  18.567  0.00  0.00    +0.000 A 
ATOM     27  C   UNL     1      11.649  13.604  19.511  0.00  0.00    +0.000 A 
ATOM     28  C   UNL     1      12.304  14.788  19.172  0.00  0.00    +0.000 A 
ATOM     29  C   UNL     1      12.138  15.294  17.895  0.00  0.00    +0.000 A 
ATOM     30  N   UNL     1      11.381  14.702  16.950  0.00  0.00    +0.000 NA
ATOM     31  C   UNL     1      10.756  13.556  17.311  0.00  0.00    +0.000 A 
ENDBRANCH  23  26
ENDBRANCH   4  21
TORSDOF 7
ENDMDL
MODEL 4
REMARK VINA RESULT:      -7.8      6.653      8.622
REMARK  Name = 
REMARK  8 active torsions:
REMARK  status: ('A' for Active; 'I' for Inactive)
REMARK    1  A    between atoms: C_1  and  C_2
REMARK    2  A    between atoms: C_2  and  O_3
REMARK    3  A    between atoms: O_3  and  C_4
REMARK    4  A    between atoms: C_4  and  C_6
REMARK    5  A    between atoms: N_9  and  C_10
REMARK    6  A    between atoms: C_13  and  N_14
REMARK    7  A    between atoms: C_16  and  C_17
REMARK    8  A    between atoms: C_27  and  C_28
REMARK                            x       y       z     vdW  Elec       q    Type
REMARK                         _______ _______ _______ _____ _____    ______ ____
ROOT
ATOM      1  C   UNL     1       6.385   6.130  17.547  0.00  0.00    +0.000 A 
ATOM      2  C   UNL     1       6.060   7.356  16.979  0.00  0.00    +0.000 A 
ATOM      3  C   UNL     1       6.802   8.497  17.268  0.00  0.00    +0.000 A 
ATOM      4  C   UNL     1       7.917   8.423  18.108  0.00  0.00    +0.000 A 
ATOM      5  C   UNL     1       8.303   7.185  18.629  0.00  0.00    +0.000 A 
ATOM      6  C   UNL     1       7.542   6.039  18.342  0.00  0.00    +0.000 A 
ENDROOT
BRANCH   1  10
ATOM      7  C   UNL     1       4.148   3.270  17.475  0.00  0.00    +0.000 A 
ATOM      8  C   UNL     1       4.992   3.169  16.359  0.00  0.00    +0.000 A 
ATOM      9  N   UNL     1       5.880   4.155  16.305  0.00  0.00    +0.000 NA
ATOM     10  N   UNL     1       5.576   4.969  17.352  0.00  0.00    +0.000 N 
ATOM     11  C   UNL     1       4.514   4.461  18.089  0.00  0.00    +0.000 A 
BRANCH  11  12
ATOM     12  C   UNL     1       3.991   5.083  19.319  0.00  0.00    +0.000 C 
ATOM     13  F   UNL     1       2.902   5.862  19.128  0.00  0.00    +0.000 F 
ATOM     14  F   UNL     1       3.639   4.166  20.253  0.00  0.00    +0.000 F 
ATOM     15  F   UNL     1       4.910   5.908  19.882  0.00  0.00    +0.000 F 
ENDBRANCH  11  12
BRANCH   7  16
ATOM     16  C   UNL     1       3.192   2.285  17.927  0.00  0.00    +0.000 C 
ATOM     17  O   UNL     1       3.511   1.179  18.338  0.00  0.00    +0.000 OA
BRANCH  16  18
ATOM     18  O   UNL     1       1.912   2.692  17.714  0.00  0.00    +0.000 OA
BRANCH  18  20
ATOM     19  C   UNL     1       0.756   3.358  19.684  0.00  0.00    +0.000 C 
ATOM     20  C   UNL     1       0.972   2.229  18.691  0.00  0.00    +0.000 C 
ENDBRANCH  18  20
ENDBRANCH  16  18
ENDBRANCH   7  16
ENDBRANCH   1  10
BRANCH   4  21
ATOM     21  N   UNL     1       8.639   9.598  18.414  0.00  0.00    +0.000 N 
ATOM     22  C   UNL     1       8.729  10.749  17.662  0.00  0.00    +0.000 A 
ATOM     23  C   UNL     1       9.549  11.581  18.381  0.00  0.00    +0.000 A 
ATOM     24  N   UNL     1       9.927  10.946  19.531  0.00  0.00    +0.000 NA
ATOM     25  N   UNL     1       9.358   9.747  19.552  0.00  0.00    +0.000 NA
BRANCH  23  26
ATOM     26  C   UNL     1       9.943  12.923  18.006  0.00  0.00    +0.000 A 
ATOM     27  C   UNL     1      11.095  13.136  17.248  0.00  0.00    +0.000 A 
ATOM     28  C   UNL     1      11.473  14.437  16.912  0.00  0.00    +0.000 A 
ATOM     29  C   UNL     1      10.682  15.488  17.343  0.00  0.00    +0.000 A 
ATOM     30  N   UNL     1       9.556  15.327  18.067  0.00  0.00    +0.000 NA
ATOM     31  C   UNL     1       9.218  14.052  18.379  0.00  0.00    +0.000 A 
ENDBRANCH  23  26
ENDBRANCH   4  21
TORSDOF 7
ENDMDL
MODEL 5
REMARK VINA RESULT:      -7.7      4.482     10.510
REMARK  Name = 
REMARK  8 active torsions:
REMARK  status: ('A' for Active; 'I' for Inactive)
REMARK    1  A    between atoms: C_1  and  C_2
REMARK    2  A    between atoms: C_2  and  O_3
REMARK    3  A    between atoms: O_3  and  C_4
REMARK    4  A    between atoms: C_4  and  C_6
REMARK    5  A    between atoms: N_9  and  C_10
REMARK    6  A    between atoms: C_13  and  N_14
REMARK    7  A    between atoms: C_16  and  C_17
REMARK    8  A    between atoms: C_27  and  C_28
REMARK                            x       y       z     vdW  Elec       q    Type
REMARK                         _______ _______ _______ _____ _____    ______ ____
ROOT
ATOM      1  C   UNL     1       0.640   9.811  20.313  0.00  0.00    +0.000 A 
ATOM      2  C   UNL     1       0.959   8.627  20.968  0.00  0.00    +0.000 A 
ATOM      3  C   UNL     1       1.714   7.643  20.337  0.00  0.00    +0.000 A 
ATOM      4  C   UNL     1       2.201   7.845  19.042  0.00  0.00    +0.000 A 
ATOM      5  C   UNL     1       1.953   9.060  18.397  0.00  0.00    +0.000 A 
ATOM      6  C   UNL     1       1.180  10.045  19.036  0.00  0.00    +0.000 A 
ENDROOT
BRANCH   1  10
ATOM      7  C   UNL     1      -1.743  12.338  21.373  0.00  0.00    +0.000 A 
ATOM      8  C   UNL     1      -0.865  12.117  22.444  0.00  0.00    +0.000 A 
ATOM      9  N   UNL     1       0.076  11.226  22.152  0.00  0.00    +0.000 NA
ATOM     10  N   UNL     1      -0.222  10.788  20.898  0.00  0.00    +0.000 N 
ATOM     11  C   UNL     1      -1.336  11.444  20.391  0.00  0.00    +0.000 A 
BRANCH  11  12
ATOM     12  C   UNL     1      -1.870  11.234  19.033  0.00  0.00    +0.000 C 
ATOM     13  F   UNL     1      -3.161  11.608  18.880  0.00  0.00    +0.000 F 
ATOM     14  F   UNL     1      -1.169  11.911  18.091  0.00  0.00    +0.000 F 
ATOM     15  F   UNL     1      -1.849   9.920  18.694  0.00  0.00    +0.000 F 
ENDBRANCH  11  12
BRANCH   7  16
ATOM     16  C   UNL     1      -2.766  13.356  21.292  0.00  0.00    +0.000 C 
ATOM     17  O   UNL     1      -2.623  14.405  20.681  0.00  0.00    +0.000 OA
BRANCH  16  18
ATOM     18  O   UNL     1      -3.835  13.057  22.079  0.00  0.00    +0.000 OA
BRANCH  18  20
ATOM     19  C   UNL     1      -5.711  12.252  20.856  0.00  0.00    +0.000 C 
ATOM     20  C   UNL     1      -5.099  13.462  21.540  0.00  0.00    +0.000 C 
ENDBRANCH  18  20
ENDBRANCH  16  18
ENDBRANCH   7  16
ENDBRANCH   1  10
BRANCH   4  21
ATOM     21  N   UNL     1       2.938   6.821  18.407  0.00  0.00    +0.000 N 
ATOM     22  C   UNL     1       3.898   6.960  17.427  0.00  0.00    +0.000 A 
ATOM     23  C   UNL     1       4.300   5.680  17.139  0.00  0.00    +0.000 A 
ATOM     24  N   UNL     1       3.606   4.807  17.931  0.00  0.00    +0.000 NA
ATOM     25  N   UNL     1       2.791   5.509  18.709  0.00  0.00    +0.000 NA
BRANCH  23  26
ATOM     26  C   UNL     1       5.309   5.301  16.172  0.00  0.00    +0.000 A 
ATOM     27  C   UNL     1       5.003   4.403  15.147  0.00  0.00    +0.000 A 
ATOM     28  C   UNL     1       5.991   4.031  14.235  0.00  0.00    +0.000 A 
ATOM     29  C   UNL     1       7.258   4.572  14.375  0.00  0.00    +0.000 A 
ATOM     30  N   UNL     1       7.593   5.449  15.342  0.00  0.00    +0.000 NA
ATOM     31  C   UNL     1       6.612   5.788  16.213  0.00  0.00    +0.000 A 
ENDBRANCH  23  26
ENDBRANCH   4  21
TORSDOF 7
ENDMDL
MODEL 6
REMARK VINA RESULT:      -7.7      1.944      2.311
REMARK  Name = 
REMARK  8 active torsions:
REMARK  status: ('A' for Active; 'I' for Inactive)
REMARK    1  A    between atoms: C_1  and  C_2
REMARK    2  A    between atoms: C_2  and  O_3
REMARK    3  A    between atoms: O_3  and  C_4
REMARK    4  A    between atoms: C_4  and  C_6
REMARK    5  A    between atoms: N_9  and  C_10
REMARK    6  A    between atoms: C_13  and  N_14
REMARK    7  A    between atoms: C_16  and  C_17
REMARK    8  A    between atoms: C_27  and  C_28
REMARK                            x       y       z     vdW  Elec       q    Type
REMARK                         _______ _______ _______ _____ _____    ______ ____
ROOT
ATOM      1  C   UNL     1       2.940   6.364  18.615  0.00  0.00    +0.000 A 
ATOM      2  C   UNL     1       2.589   6.098  19.932  0.00  0.00    +0.000 A 
ATOM      3  C   UNL     1       1.908   7.043  20.695  0.00  0.00    +0.000 A 
ATOM      4  C   UNL     1       1.527   8.265  20.133  0.00  0.00    +0.000 A 
ATOM      5  C   UNL     1       1.805   8.518  18.788  0.00  0.00    +0.000 A 
ATOM      6  C   UNL     1       2.503   7.565  18.027  0.00  0.00    +0.000 A 
ENDROOT
BRANCH   1  10
ATOM      7  C   UNL     1       5.252   4.415  16.603  0.00  0.00    +0.000 A 
ATOM      8  C   UNL     1       4.107   3.629  16.802  0.00  0.00    +0.000 A 
ATOM      9  N   UNL     1       3.175   4.263  17.504  0.00  0.00    +0.000 NA
ATOM     10  N   UNL     1       3.732   5.456  17.847  0.00  0.00    +0.000 N 
ATOM     11  C   UNL     1       5.009   5.582  17.316  0.00  0.00    +0.000 A 
BRANCH  11  12
ATOM     12  C   UNL     1       5.846   6.786  17.458  0.00  0.00    +0.000 C 
ATOM     13  F   UNL     1       5.206   7.848  18.000  0.00  0.00    +0.000 F 
ATOM     14  F   UNL     1       6.937   6.570  18.234  0.00  0.00    +0.000 F 
ATOM     15  F   UNL     1       6.284   7.227  16.251  0.00  0.00    +0.000 F 
ENDBRANCH  11  12
BRANCH   7  16
ATOM     16  C   UNL     1       6.375   4.102  15.750  0.00  0.00    +0.000 C 
ATOM     17  O   UNL     1       7.520   4.458  15.989  0.00  0.00    +0.000 OA
BRANCH  16  18
ATOM     18  O   UNL     1       5.979   3.487  14.603  0.00  0.00    +0.000 OA
BRANCH  18  20
ATOM     19  C   UNL     1       5.936   3.290  12.232  0.00  0.00    +0.000 C 
ATOM     20  C   UNL     1       6.461   4.103  13.402  0.00  0.00    +0.000 C 
ENDBRANCH  18  20
ENDBRANCH  16  18
ENDBRANCH   7  16
ENDBRANCH   1  10
BRANCH   4  21
ATOM     21  N   UNL     1       0.864   9.223  20.933  0.00  0.00    +0.000 N 
ATOM     22  C   UNL     1      -0.245   9.971  20.602  0.00  0.00    +0.000 A 
ATOM     23  C   UNL     1      -0.488  10.753  21.703  0.00  0.00    +0.000 A 
ATOM     24  N   UNL     1       0.444  10.471  22.663  0.00  0.00    +0.000 NA
ATOM     25  N   UNL     1       1.254   9.529  22.193  0.00  0.00    +0.000 NA
BRANCH  23  26
ATOM     26  C   UNL     1      -1.565  11.710  21.848  0.00  0.00    +0.000 A 
ATOM     27  C   UNL     1      -2.185  11.894  23.084  0.00  0.00    +0.000 A 
ATOM     28  C   UNL     1      -3.235  12.806  23.203  0.00  0.00    +0.000 A 
ATOM     29  C   UNL     1      -3.632  13.509  22.079  0.00  0.00    +0.000 A 
ATOM     30  N   UNL     1      -3.054  13.370  20.869  0.00  0.00    +0.000 NA
ATOM     31  C   UNL     1      -2.039  12.477  20.786  0.00  0.00    +0.000 A 
ENDBRANCH  23  26
ENDBRANCH   4  21
TORSDOF 7
ENDMDL
MODEL 7
REMARK VINA RESULT:      -7.7      4.533     10.560
REMARK  Name = 
REMARK  8 active torsions:
REMARK  status: ('A' for Active; 'I' for Inactive)
REMARK    1  A    between atoms: C_1  and  C_2
REMARK    2  A    between atoms: C_2  and  O_3
REMARK    3  A    between atoms: O_3  and  C_4
REMARK    4  A    between atoms: C_4  and  C_6
REMARK    5  A    between atoms: N_9  and  C_10
REMARK    6  A    between atoms: C_13  and  N_14
REMARK    7  A    between atoms: C_16  and  C_17
REMARK    8  A    between atoms: C_27  and  C_28
REMARK                            x       y       z     vdW  Elec       q    Type
REMARK                         _______ _______ _______ _____ _____    ______ ____
ROOT
ATOM      1  C   UNL     1       0.514   9.827  20.299  0.00  0.00    +0.000 A 
ATOM      2  C   UNL     1       1.033   9.937  19.015  0.00  0.00    +0.000 A 
ATOM      3  C   UNL     1       1.874   8.955  18.497  0.00  0.00    +0.000 A 
ATOM      4  C   UNL     1       2.180   7.817  19.249  0.00  0.00    +0.000 A 
ATOM      5  C   UNL     1       1.606   7.654  20.513  0.00  0.00    +0.000 A 
ATOM      6  C   UNL     1       0.768   8.654  21.033  0.00  0.00    +0.000 A 
ENDROOT
BRANCH   1  10
ATOM      7  C   UNL     1      -1.659  12.528  21.383  0.00  0.00    +0.000 A 
ATOM      8  C   UNL     1      -0.766  12.263  22.431  0.00  0.00    +0.000 A 
ATOM      9  N   UNL     1       0.103  11.306  22.127  0.00  0.00    +0.000 NA
ATOM     10  N   UNL     1      -0.262  10.870  20.891  0.00  0.00    +0.000 N 
ATOM     11  C   UNL     1      -1.344  11.592  20.405  0.00  0.00    +0.000 A 
BRANCH  11  12
ATOM     12  C   UNL     1      -1.931  11.398  19.068  0.00  0.00    +0.000 C 
ATOM     13  F   UNL     1      -2.024  10.104  18.683  0.00  0.00    +0.000 F 
ATOM     14  F   UNL     1      -3.184  11.908  18.974  0.00  0.00    +0.000 F 
ATOM     15  F   UNL     1      -1.176  11.990  18.108  0.00  0.00    +0.000 F 
ENDBRANCH  11  12
BRANCH   7  16
ATOM     16  C   UNL     1      -2.613  13.611  21.314  0.00  0.00    +0.000 C 
ATOM     17  O   UNL     1      -2.463  14.594  20.602  0.00  0.00    +0.000 OA
BRANCH  16  18
ATOM     18  O   UNL     1      -3.613  13.459  22.223  0.00  0.00    +0.000 OA
BRANCH  18  20
ATOM     19  C   UNL     1      -5.774  13.731  21.266  0.00  0.00    +0.000 C 
ATOM     20  C   UNL     1      -4.744  12.722  21.745  0.00  0.00    +0.000 C 
ENDBRANCH  18  20
ENDBRANCH  16  18
ENDBRANCH   7  16
ENDBRANCH   1  10
BRANCH   4  21
ATOM     21  N   UNL     1       3.060   6.847  18.719  0.00  0.00    +0.000 N 
ATOM     22  C   UNL     1       3.785   6.921  17.549  0.00  0.00    +0.000 A 
ATOM     23  C   UNL     1       4.468   5.733  17.479  0.00  0.00    +0.000 A 
ATOM     24  N   UNL     1       4.164   4.980  18.579  0.00  0.00    +0.000 NA
ATOM     25  N   UNL     1       3.319   5.670  19.335  0.00  0.00    +0.000 NA
BRANCH  23  26
ATOM     26  C   UNL     1       5.382   5.336  16.428  0.00  0.00    +0.000 A 
ATOM     27  C   UNL     1       4.972   4.445  15.434  0.00  0.00    +0.000 A 
ATOM     28  C   UNL     1       5.870   4.055  14.440  0.00  0.00    +0.000 A 
ATOM     29  C   UNL     1       7.153   4.573  14.468  0.00  0.00    +0.000 A 
ATOM     30  N   UNL     1       7.588   5.443  15.402  0.00  0.00    +0.000 NA
ATOM     31  C   UNL     1       6.693   5.799  16.354  0.00  0.00    +0.000 A 
ENDBRANCH  23  26
ENDBRANCH   4  21
TORSDOF 7
ENDMDL
MODEL 8
REMARK VINA RESULT:      -7.7      1.903      2.370
REMARK  Name = 
REMARK  8 active torsions:
REMARK  status: ('A' for Active; 'I' for Inactive)
REMARK    1  A    between atoms: C_1  and  C_2
REMARK    2  A    between atoms: C_2  and  O_3
REMARK    3  A    between atoms: O_3  and  C_4
REMARK    4  A    between atoms: C_4  and  C_6
REMARK    5  A    between atoms: N_9  and  C_10
REMARK    6  A    between atoms: C_13  and  N_14
REMARK    7  A    between atoms: C_16  and  C_17
REMARK    8  A    between atoms: C_27  and  C_28
REMARK                            x       y       z     vdW  Elec       q    Type
REMARK                         _______ _______ _______ _____ _____    ______ ____
ROOT
ATOM      1  C   UNL     1       2.746   6.319  18.558  0.00  0.00    +0.000 A 
ATOM      2  C   UNL     1       2.426   6.062  19.885  0.00  0.00    +0.000 A 
ATOM      3  C   UNL     1       1.813   7.032  20.674  0.00  0.00    +0.000 A 
ATOM      4  C   UNL     1       1.472   8.274  20.131  0.00  0.00    +0.000 A 
ATOM      5  C   UNL     1       1.718   8.522  18.778  0.00  0.00    +0.000 A 
ATOM      6  C   UNL     1       2.346   7.543  17.991  0.00  0.00    +0.000 A 
ENDROOT
BRANCH   1  10
ATOM      7  C   UNL     1       4.829   4.304  16.369  0.00  0.00    +0.000 A 
ATOM      8  C   UNL     1       3.834   3.464  16.889  0.00  0.00    +0.000 A 
ATOM      9  N   UNL     1       2.990   4.111  17.684  0.00  0.00    +0.000 NA
ATOM     10  N   UNL     1       3.470   5.381  17.760  0.00  0.00    +0.000 N 
ATOM     11  C   UNL     1       4.602   5.536  16.971  0.00  0.00    +0.000 A 
BRANCH  11  12
ATOM     12  C   UNL     1       5.317   6.812  16.794  0.00  0.00    +0.000 C 
ATOM     13  F   UNL     1       5.145   7.691  17.809  0.00  0.00    +0.000 F 
ATOM     14  F   UNL     1       6.656   6.643  16.667  0.00  0.00    +0.000 F 
ATOM     15  F   UNL     1       4.882   7.472  15.691  0.00  0.00    +0.000 F 
ENDBRANCH  11  12
BRANCH   7  16
ATOM     16  C   UNL     1       5.797   3.969  15.350  0.00  0.00    +0.000 C 
ATOM     17  O   UNL     1       6.976   3.751  15.589  0.00  0.00    +0.000 OA
BRANCH  16  18
ATOM     18  O   UNL     1       5.262   4.054  14.102  0.00  0.00    +0.000 OA
BRANCH  18  20
ATOM     19  C   UNL     1       5.312   3.132  11.909  0.00  0.00    +0.000 C 
ATOM     20  C   UNL     1       6.156   3.679  13.047  0.00  0.00    +0.000 C 
ENDBRANCH  18  20
ENDBRANCH  16  18
ENDBRANCH   7  16
ENDBRANCH   1  10
BRANCH   4  21
ATOM     21  N   UNL     1       0.879   9.256  20.956  0.00  0.00    +0.000 N 
ATOM     22  C   UNL     1      -0.075  10.186  20.603  0.00  0.00    +0.000 A 
ATOM     23  C   UNL     1      -0.307  10.908  21.746  0.00  0.00    +0.000 A 
ATOM     24  N   UNL     1       0.479  10.415  22.751  0.00  0.00    +0.000 NA
ATOM     25  N   UNL     1       1.187   9.401  22.266  0.00  0.00    +0.000 NA
BRANCH  23  26
ATOM     26  C   UNL     1      -1.245  12.002  21.888  0.00  0.00    +0.000 A 
ATOM     27  C   UNL     1      -2.053  12.384  20.815  0.00  0.00    +0.000 A 
ATOM     28  C   UNL     1      -2.936  13.454  20.961  0.00  0.00    +0.000 A 
ATOM     29  C   UNL     1      -2.987  14.110  22.178  0.00  0.00    +0.000 A 
ATOM     30  N   UNL     1      -2.233  13.768  23.242  0.00  0.00    +0.000 NA
ATOM     31  C   UNL     1      -1.384  12.727  23.068  0.00  0.00    +0.000 A 
ENDBRANCH  23  26
ENDBRANCH   4  21
TORSDOF 7
ENDMDL
MODEL 9
REMARK VINA RESULT:      -7.7      5.121     10.724
REMARK  Name = 
REMARK  8 active torsions:
REMARK  status: ('A' for Active; 'I' for Inactive)
REMARK    1  A    between atoms: C_1  and  C_2
REMARK    2  A    between atoms: C_2  and  O_3
REMARK    3  A    between atoms: O_3  and  C_4
REMARK    4  A    between atoms: C_4  and  C_6
REMARK    5  A    between atoms: N_9  and  C_10
REMARK    6  A    between atoms: C_13  and  N_14
REMARK    7  A    between atoms: C_16  and  C_17
REMARK    8  A    between atoms: C_27  and  C_28
REMARK                            x       y       z     vdW  Elec       q    Type
REMARK                         _______ _______ _______ _____ _____    ______ ____
ROOT
ATOM      1  C   UNL     1      -0.344  10.414  19.714  0.00  0.00    +0.000 A 
ATOM      2  C   UNL     1      -0.002   9.447  20.651  0.00  0.00    +0.000 A 
ATOM      3  C   UNL     1       0.964   8.486  20.367  0.00  0.00    +0.000 A 
ATOM      4  C   UNL     1       1.640   8.502  19.143  0.00  0.00    +0.000 A 
ATOM      5  C   UNL     1       1.363   9.513  18.219  0.00  0.00    +0.000 A 
ATOM      6  C   UNL     1       0.378  10.473  18.508  0.00  0.00    +0.000 A 
ENDROOT
BRANCH   1  10
ATOM      7  C   UNL     1      -2.863  12.831  20.718  0.00  0.00    +0.000 A 
ATOM      8  C   UNL     1      -3.251  12.315  19.472  0.00  0.00    +0.000 A 
ATOM      9  N   UNL     1      -2.410  11.391  19.023  0.00  0.00    +0.000 NA
ATOM     10  N   UNL     1      -1.406  11.343  19.939  0.00  0.00    +0.000 N 
ATOM     11  C   UNL     1      -1.646  12.217  20.991  0.00  0.00    +0.000 A 
BRANCH  11  12
ATOM     12  C   UNL     1      -0.773  12.349  22.171  0.00  0.00    +0.000 C 
ATOM     13  F   UNL     1       0.549  12.360  21.885  0.00  0.00    +0.000 F 
ATOM     14  F   UNL     1      -1.015  13.485  22.870  0.00  0.00    +0.000 F 
ATOM     15  F   UNL     1      -0.934  11.304  23.021  0.00  0.00    +0.000 F 
ENDBRANCH  11  12
BRANCH   7  16
ATOM     16  C   UNL     1      -3.630  13.718  21.561  0.00  0.00    +0.000 C 
ATOM     17  O   UNL     1      -3.373  14.906  21.696  0.00  0.00    +0.000 OA
BRANCH  16  18
ATOM     18  O   UNL     1      -4.573  13.045  22.273  0.00  0.00    +0.000 OA
BRANCH  18  20
ATOM     19  C   UNL     1      -4.011  12.501  24.520  0.00  0.00    +0.000 C 
ATOM     20  C   UNL     1      -4.730  13.494  23.624  0.00  0.00    +0.000 C 
ENDBRANCH  18  20
ENDBRANCH  16  18
ENDBRANCH   7  16
ENDBRANCH   1  10
BRANCH   4  21
ATOM     21  N   UNL     1       2.595   7.500  18.861  0.00  0.00    +0.000 N 
ATOM     22  C   UNL     1       3.394   7.390  17.744  0.00  0.00    +0.000 A 
ATOM     23  C   UNL     1       4.130   6.250  17.943  0.00  0.00    +0.000 A 
ATOM     24  N   UNL     1       3.785   5.703  19.148  0.00  0.00    +0.000 NA
ATOM     25  N   UNL     1       2.861   6.477  19.707  0.00  0.00    +0.000 NA
BRANCH  23  26
ATOM     26  C   UNL     1       5.129   5.712  17.044  0.00  0.00    +0.000 A 
ATOM     27  C   UNL     1       4.870   4.551  16.314  0.00  0.00    +0.000 A 
ATOM     28  C   UNL     1       5.851   4.033  15.466  0.00  0.00    +0.000 A 
ATOM     29  C   UNL     1       7.062   4.695  15.373  0.00  0.00    +0.000 A 
ATOM     30  N   UNL     1       7.350   5.824  16.052  0.00  0.00    +0.000 NA
ATOM     31  C   UNL     1       6.379   6.300  16.867  0.00  0.00    +0.000 A 
ENDBRANCH  23  26
ENDBRANCH   4  21
TORSDOF 7
ENDMDL
