MODEL 1
REMARK VINA RESULT:      -7.0      0.000      0.000
REMARK  Name = 
REMARK  4 active torsions:
REMARK  status: ('A' for Active; 'I' for Inactive)
REMARK    1  A    between atoms: C_1  and  O_2
REMARK    2  A    between atoms: O_2  and  C_3
REMARK    3  A    between atoms: N_14  and  C_15
REMARK    4  A    between atoms: N_14  and  C_16
REMARK                            x       y       z     vdW  Elec       q    Type
REMARK                         _______ _______ _______ _____ _____    ______ ____
ROOT
ATOM      1  C   UNL     1       6.422   6.066  16.863  0.00  0.00    +0.000 C 
ATOM      2  N   UNL     1       5.250   6.512  16.658  0.00  0.00    +0.000 NA
ATOM      3  O   UNL     1       4.358   5.611  16.963  0.00  0.00    +0.000 OA
ATOM      4  C   UNL     1       4.883   4.615  17.761  0.00  0.00    +0.000 C 
ATOM      5  C   UNL     1       6.360   4.628  17.288  0.00  0.00    +0.000 C 
ATOM      6  C   UNL     1       4.069   3.308  17.597  0.00  0.00    +0.000 C 
ATOM      7  C   UNL     1       2.631   3.434  18.268  0.00  0.00    +0.000 C 
ATOM      8  C   UNL     1       1.936   4.732  17.760  0.00  0.00    +0.000 C 
ATOM      9  C   UNL     1       2.387   5.819  18.790  0.00  0.00    +0.000 C 
ATOM     10  C   UNL     1       3.286   5.026  19.771  0.00  0.00    +0.000 C 
ATOM     11  C   UNL     1       4.773   5.061  19.251  0.00  0.00    +0.000 C 
ATOM     12  N   UNL     1       2.717   3.650  19.745  0.00  0.00    +0.000 N 
ATOM     13  C   UNL     1       1.364   3.616  20.389  0.00  0.00    +0.000 C 
ATOM     14  C   UNL     1       3.510   2.620  20.476  0.00  0.00    +0.000 C 
ENDROOT
BRANCH   1  16
ATOM     15  C   UNL     1       7.816   7.909  17.569  0.00  0.00    +0.000 C 
ATOM     16  O   UNL     1       7.535   6.832  16.738  0.00  0.00    +0.000 OA
ENDBRANCH   1  16
TORSDOF 1
ENDMDL
MODEL 2
REMARK VINA RESULT:      -6.8      1.214      1.674
REMARK  Name = 
REMARK  4 active torsions:
REMARK  status: ('A' for Active; 'I' for Inactive)
REMARK    1  A    between atoms: C_1  and  O_2
REMARK    2  A    between atoms: O_2  and  C_3
REMARK    3  A    between atoms: N_14  and  C_15
REMARK    4  A    between atoms: N_14  and  C_16
REMARK                            x       y       z     vdW  Elec       q    Type
REMARK                         _______ _______ _______ _____ _____    ______ ____
ROOT
ATOM      1  C   UNL     1       6.457   5.629  17.271  0.00  0.00    +0.000 C 
ATOM      2  N   UNL     1       5.871   4.757  16.557  0.00  0.00    +0.000 NA
ATOM      3  O   UNL     1       5.171   3.948  17.303  0.00  0.00    +0.000 OA
ATOM      4  C   UNL     1       4.946   4.472  18.560  0.00  0.00    +0.000 C 
ATOM      5  C   UNL     1       6.213   5.352  18.726  0.00  0.00    +0.000 C 
ATOM      6  C   UNL     1       4.702   3.335  19.582  0.00  0.00    +0.000 C 
ATOM      7  C   UNL     1       3.290   2.638  19.345  0.00  0.00    +0.000 C 
ATOM      8  C   UNL     1       3.156   2.241  17.845  0.00  0.00    +0.000 C 
ATOM      9  C   UNL     1       2.516   3.505  17.184  0.00  0.00    +0.000 C 
ATOM     10  C   UNL     1       2.353   4.483  18.374  0.00  0.00    +0.000 C 
ATOM     11  C   UNL     1       3.661   5.352  18.510  0.00  0.00    +0.000 C 
ATOM     12  N   UNL     1       2.153   3.589  19.548  0.00  0.00    +0.000 N 
ATOM     13  C   UNL     1       0.829   2.891  19.472  0.00  0.00    +0.000 C 
ATOM     14  C   UNL     1       2.146   4.270  20.874  0.00  0.00    +0.000 C 
ENDROOT
BRANCH   1  16
ATOM     15  C   UNL     1       7.632   7.727  17.501  0.00  0.00    +0.000 C 
ATOM     16  O   UNL     1       7.160   6.663  16.744  0.00  0.00    +0.000 OA
ENDBRANCH   1  16
TORSDOF 1
ENDMDL
MODEL 3
REMARK VINA RESULT:      -6.7      1.551      1.821
REMARK  Name = 
REMARK  4 active torsions:
REMARK  status: ('A' for Active; 'I' for Inactive)
REMARK    1  A    between atoms: C_1  and  O_2
REMARK    2  A    between atoms: O_2  and  C_3
REMARK    3  A    between atoms: N_14  and  C_15
REMARK    4  A    between atoms: N_14  and  C_16
REMARK                            x       y       z     vdW  Elec       q    Type
REMARK                         _______ _______ _______ _____ _____    ______ ____
ROOT
ATOM      1  C   UNL     1       6.397   5.151  15.286  0.00  0.00    +0.000 C 
ATOM      2  N   UNL     1       5.561   6.064  15.575  0.00  0.00    +0.000 NA
ATOM      3  O   UNL     1       4.563   5.572  16.255  0.00  0.00    +0.000 OA
ATOM      4  C   UNL     1       4.865   4.337  16.793  0.00  0.00    +0.000 C 
ATOM      5  C   UNL     1       5.883   3.817  15.745  0.00  0.00    +0.000 C 
ATOM      6  C   UNL     1       3.570   3.521  17.028  0.00  0.00    +0.000 C 
ATOM      7  C   UNL     1       2.720   4.118  18.234  0.00  0.00    +0.000 C 
ATOM      8  C   UNL     1       2.526   5.649  18.021  0.00  0.00    +0.000 C 
ATOM      9  C   UNL     1       3.767   6.281  18.731  0.00  0.00    +0.000 C 
ATOM     10  C   UNL     1       4.532   5.047  19.272  0.00  0.00    +0.000 C 
ATOM     11  C   UNL     1       5.551   4.550  18.176  0.00  0.00    +0.000 C 
ATOM     12  N   UNL     1       3.460   4.048  19.532  0.00  0.00    +0.000 N 
ATOM     13  C   UNL     1       2.599   4.471  20.684  0.00  0.00    +0.000 C 
ATOM     14  C   UNL     1       3.937   2.683  19.898  0.00  0.00    +0.000 C 
ENDROOT
BRANCH   1  16
ATOM     15  C   UNL     1       7.800   5.228  13.322  0.00  0.00    +0.000 C 
ATOM     16  O   UNL     1       7.585   5.404  14.682  0.00  0.00    +0.000 OA
ENDBRANCH   1  16
TORSDOF 1
ENDMDL
MODEL 4
REMARK VINA RESULT:      -6.6      1.649      2.254
REMARK  Name = 
REMARK  4 active torsions:
REMARK  status: ('A' for Active; 'I' for Inactive)
REMARK    1  A    between atoms: C_1  and  O_2
REMARK    2  A    between atoms: O_2  and  C_3
REMARK    3  A    between atoms: N_14  and  C_15
REMARK    4  A    between atoms: N_14  and  C_16
REMARK                            x       y       z     vdW  Elec       q    Type
REMARK                         _______ _______ _______ _____ _____    ______ ____
ROOT
ATOM      1  C   UNL     1       6.436   4.705  16.225  0.00  0.00    +0.000 C 
ATOM      2  N   UNL     1       5.690   3.732  15.894  0.00  0.00    +0.000 NA
ATOM      3  O   UNL     1       5.018   3.299  16.925  0.00  0.00    +0.000 OA
ATOM      4  C   UNL     1       4.999   4.220  17.952  0.00  0.00    +0.000 C 
ATOM      5  C   UNL     1       6.351   4.939  17.706  0.00  0.00    +0.000 C 
ATOM      6  C   UNL     1       4.782   3.508  19.310  0.00  0.00    +0.000 C 
ATOM      7  C   UNL     1       3.295   2.955  19.442  0.00  0.00    +0.000 C 
ATOM      8  C   UNL     1       2.939   2.121  18.175  0.00  0.00    +0.000 C 
ATOM      9  C   UNL     1       2.339   3.179  17.193  0.00  0.00    +0.000 C 
ATOM     10  C   UNL     1       2.415   4.497  18.003  0.00  0.00    +0.000 C 
ATOM     11  C   UNL     1       3.803   5.193  17.728  0.00  0.00    +0.000 C 
ATOM     12  N   UNL     1       2.283   4.056  19.419  0.00  0.00    +0.000 N 
ATOM     13  C   UNL     1       0.902   3.544  19.695  0.00  0.00    +0.000 C 
ATOM     14  C   UNL     1       2.503   5.120  20.441  0.00  0.00    +0.000 C 
ENDROOT
BRANCH   1  16
ATOM     15  C   UNL     1       7.299   5.051  13.996  0.00  0.00    +0.000 C 
ATOM     16  O   UNL     1       7.158   5.420  15.327  0.00  0.00    +0.000 OA
ENDBRANCH   1  16
TORSDOF 1
ENDMDL
MODEL 5
REMARK VINA RESULT:      -6.5      2.026      3.624
REMARK  Name = 
REMARK  4 active torsions:
REMARK  status: ('A' for Active; 'I' for Inactive)
REMARK    1  A    between atoms: C_1  and  O_2
REMARK    2  A    between atoms: O_2  and  C_3
REMARK    3  A    between atoms: N_14  and  C_15
REMARK    4  A    between atoms: N_14  and  C_16
REMARK                            x       y       z     vdW  Elec       q    Type
REMARK                         _______ _______ _______ _____ _____    ______ ____
ROOT
ATOM      1  C   UNL     1       2.692   8.060  17.957  0.00  0.00    +0.000 C 
ATOM      2  N   UNL     1       3.699   7.522  17.399  0.00  0.00    +0.000 NA
ATOM      3  O   UNL     1       4.021   6.413  18.005  0.00  0.00    +0.000 OA
ATOM      4  C   UNL     1       2.993   5.942  18.797  0.00  0.00    +0.000 C 
ATOM      5  C   UNL     1       2.298   7.276  19.175  0.00  0.00    +0.000 C 
ATOM      6  C   UNL     1       3.554   5.057  19.936  0.00  0.00    +0.000 C 
ATOM      7  C   UNL     1       4.096   3.668  19.377  0.00  0.00    +0.000 C 
ATOM      8  C   UNL     1       5.065   3.934  18.186  0.00  0.00    +0.000 C 
ATOM      9  C   UNL     1       4.124   3.940  16.938  0.00  0.00    +0.000 C 
ATOM     10  C   UNL     1       2.725   3.677  17.549  0.00  0.00    +0.000 C 
ATOM     11  C   UNL     1       2.057   5.056  17.922  0.00  0.00    +0.000 C 
ATOM     12  N   UNL     1       3.009   2.851  18.754  0.00  0.00    +0.000 N 
ATOM     13  C   UNL     1       3.495   1.487  18.367  0.00  0.00    +0.000 C 
ATOM     14  C   UNL     1       1.840   2.597  19.644  0.00  0.00    +0.000 C 
ENDROOT
BRANCH   1  16
ATOM     15  C   UNL     1       1.170   9.921  18.191  0.00  0.00    +0.000 C 
ATOM     16  O   UNL     1       2.076   9.162  17.462  0.00  0.00    +0.000 OA
ENDBRANCH   1  16
TORSDOF 1
ENDMDL
MODEL 6
REMARK VINA RESULT:      -6.5      1.078      1.115
REMARK  Name = 
REMARK  4 active torsions:
REMARK  status: ('A' for Active; 'I' for Inactive)
REMARK    1  A    between atoms: C_1  and  O_2
REMARK    2  A    between atoms: O_2  and  C_3
REMARK    3  A    between atoms: N_14  and  C_15
REMARK    4  A    between atoms: N_14  and  C_16
REMARK                            x       y       z     vdW  Elec       q    Type
REMARK                         _______ _______ _______ _____ _____    ______ ____
ROOT
ATOM      1  C   UNL     1       5.705   6.533  16.744  0.00  0.00    +0.000 C 
ATOM      2  N   UNL     1       4.670   6.974  17.334  0.00  0.00    +0.000 NA
ATOM      3  O   UNL     1       3.774   6.034  17.450  0.00  0.00    +0.000 OA
ATOM      4  C   UNL     1       4.317   4.778  17.270  0.00  0.00    +0.000 C 
ATOM      5  C   UNL     1       5.483   5.115  16.304  0.00  0.00    +0.000 C 
ATOM      6  C   UNL     1       3.231   3.784  16.793  0.00  0.00    +0.000 C 
ATOM      7  C   UNL     1       2.202   3.446  17.960  0.00  0.00    +0.000 C 
ATOM      8  C   UNL     1       1.678   4.773  18.586  0.00  0.00    +0.000 C 
ATOM      9  C   UNL     1       2.702   5.073  19.728  0.00  0.00    +0.000 C 
ATOM     10  C   UNL     1       3.696   3.888  19.632  0.00  0.00    +0.000 C 
ATOM     11  C   UNL     1       4.860   4.270  18.640  0.00  0.00    +0.000 C 
ATOM     12  N   UNL     1       2.866   2.766  19.114  0.00  0.00    +0.000 N 
ATOM     13  C   UNL     1       1.869   2.317  20.140  0.00  0.00    +0.000 C 
ATOM     14  C   UNL     1       3.619   1.530  18.754  0.00  0.00    +0.000 C 
ENDROOT
BRANCH   1  16
ATOM     15  C   UNL     1       7.676   7.598  17.647  0.00  0.00    +0.000 C 
ATOM     16  O   UNL     1       6.837   7.266  16.593  0.00  0.00    +0.000 OA
ENDBRANCH   1  16
TORSDOF 1
ENDMDL
MODEL 7
REMARK VINA RESULT:      -6.4      1.811      2.813
REMARK  Name = 
REMARK  4 active torsions:
REMARK  status: ('A' for Active; 'I' for Inactive)
REMARK    1  A    between atoms: C_1  and  O_2
REMARK    2  A    between atoms: O_2  and  C_3
REMARK    3  A    between atoms: N_14  and  C_15
REMARK    4  A    between atoms: N_14  and  C_16
REMARK                            x       y       z     vdW  Elec       q    Type
REMARK                         _______ _______ _______ _____ _____    ______ ____
ROOT
ATOM      1  C   UNL     1       6.792   5.455  15.423  0.00  0.00    +0.000 C 
ATOM      2  N   UNL     1       7.135   5.241  16.627  0.00  0.00    +0.000 NA
ATOM      3  O   UNL     1       6.133   5.456  17.434  0.00  0.00    +0.000 OA
ATOM      4  C   UNL     1       4.926   5.470  16.765  0.00  0.00    +0.000 C 
ATOM      5  C   UNL     1       5.385   5.977  15.372  0.00  0.00    +0.000 C 
ATOM      6  C   UNL     1       3.886   6.310  17.547  0.00  0.00    +0.000 C 
ATOM      7  C   UNL     1       3.426   5.567  18.877  0.00  0.00    +0.000 C 
ATOM      8  C   UNL     1       4.684   5.125  19.683  0.00  0.00    +0.000 C 
ATOM      9  C   UNL     1       4.995   3.697  19.129  0.00  0.00    +0.000 C 
ATOM     10  C   UNL     1       3.884   3.479  18.071  0.00  0.00    +0.000 C 
ATOM     11  C   UNL     1       4.389   4.010  16.675  0.00  0.00    +0.000 C 
ATOM     12  N   UNL     1       2.736   4.272  18.588  0.00  0.00    +0.000 N 
ATOM     13  C   UNL     1       2.173   3.655  19.832  0.00  0.00    +0.000 C 
ATOM     14  C   UNL     1       1.572   4.386  17.663  0.00  0.00    +0.000 C 
ENDROOT
BRANCH   1  16
ATOM     15  C   UNL     1       7.173   4.566  13.209  0.00  0.00    +0.000 C 
ATOM     16  O   UNL     1       7.605   5.198  14.367  0.00  0.00    +0.000 OA
ENDBRANCH   1  16
TORSDOF 1
ENDMDL
MODEL 8
REMARK VINA RESULT:      -6.2      1.594      2.673
REMARK  Name = 
REMARK  4 active torsions:
REMARK  status: ('A' for Active; 'I' for Inactive)
REMARK    1  A    between atoms: C_1  and  O_2
REMARK    2  A    between atoms: O_2  and  C_3
REMARK    3  A    between atoms: N_14  and  C_15
REMARK    4  A    between atoms: N_14  and  C_16
REMARK                            x       y       z     vdW  Elec       q    Type
REMARK                         _______ _______ _______ _____ _____    ______ ____
ROOT
ATOM      1  C   UNL     1       6.716   5.296  16.386  0.00  0.00    +0.000 C 
ATOM      2  N   UNL     1       6.911   4.469  17.331  0.00  0.00    +0.000 NA
ATOM      3  O   UNL     1       5.888   4.451  18.141  0.00  0.00    +0.000 OA
ATOM      4  C   UNL     1       4.764   5.008  17.565  0.00  0.00    +0.000 C 
ATOM      5  C   UNL     1       5.422   6.027  16.599  0.00  0.00    +0.000 C 
ATOM      6  C   UNL     1       3.808   5.542  18.659  0.00  0.00    +0.000 C 
ATOM      7  C   UNL     1       3.116   4.351  19.456  0.00  0.00    +0.000 C 
ATOM      8  C   UNL     1       4.209   3.352  19.942  0.00  0.00    +0.000 C 
ATOM      9  C   UNL     1       4.334   2.338  18.759  0.00  0.00    +0.000 C 
ATOM     10  C   UNL     1       3.302   2.864  17.730  0.00  0.00    +0.000 C 
ATOM     11  C   UNL     1       4.009   3.898  16.773  0.00  0.00    +0.000 C 
ATOM     12  N   UNL     1       2.255   3.507  18.570  0.00  0.00    +0.000 N 
ATOM     13  C   UNL     1       1.491   2.483  19.354  0.00  0.00    +0.000 C 
ATOM     14  C   UNL     1       1.212   4.264  17.820  0.00  0.00    +0.000 C 
ENDROOT
BRANCH   1  16
ATOM     15  C   UNL     1       7.279   4.985  14.058  0.00  0.00    +0.000 C 
ATOM     16  O   UNL     1       7.568   5.434  15.339  0.00  0.00    +0.000 OA
ENDBRANCH   1  16
TORSDOF 1
ENDMDL
MODEL 9
REMARK VINA RESULT:      -6.2      2.093      3.183
REMARK  Name = 
REMARK  4 active torsions:
REMARK  status: ('A' for Active; 'I' for Inactive)
REMARK    1  A    between atoms: C_1  and  O_2
REMARK    2  A    between atoms: O_2  and  C_3
REMARK    3  A    between atoms: N_14  and  C_15
REMARK    4  A    between atoms: N_14  and  C_16
REMARK                            x       y       z     vdW  Elec       q    Type
REMARK                         _______ _______ _______ _____ _____    ______ ____
ROOT
ATOM      1  C   UNL     1       8.249   8.099  18.250  0.00  0.00    +0.000 C 
ATOM      2  N   UNL     1       7.718   8.099  17.096  0.00  0.00    +0.000 NA
ATOM      3  O   UNL     1       7.265   6.912  16.800  0.00  0.00    +0.000 OA
ATOM      4  C   UNL     1       7.133   6.117  17.920  0.00  0.00    +0.000 C 
ATOM      5  C   UNL     1       8.253   6.708  18.815  0.00  0.00    +0.000 C 
ATOM      6  C   UNL     1       7.216   4.621  17.531  0.00  0.00    +0.000 C 
ATOM      7  C   UNL     1       5.915   4.156  16.739  0.00  0.00    +0.000 C 
ATOM      8  C   UNL     1       5.642   5.146  15.568  0.00  0.00    +0.000 C 
ATOM      9  C   UNL     1       4.724   6.235  16.211  0.00  0.00    +0.000 C 
ATOM     10  C   UNL     1       4.571   5.750  17.675  0.00  0.00    +0.000 C 
ATOM     11  C   UNL     1       5.729   6.369  18.547  0.00  0.00    +0.000 C 
ATOM     12  N   UNL     1       4.679   4.269  17.574  0.00  0.00    +0.000 N 
ATOM     13  C   UNL     1       3.486   3.689  16.877  0.00  0.00    +0.000 C 
ATOM     14  C   UNL     1       4.745   3.545  18.876  0.00  0.00    +0.000 C 
ENDROOT
BRANCH   1  16
ATOM     15  C   UNL     1       8.931  10.415  18.176  0.00  0.00    +0.000 C 
ATOM     16  O   UNL     1       8.698   9.227  18.855  0.00  0.00    +0.000 OA
ENDBRANCH   1  16
TORSDOF 1
ENDMDL
