MODEL 1
REMARK VINA RESULT:      -7.6      0.000      0.000
REMARK  Name = 
REMARK  6 active torsions:
REMARK  status: ('A' for Active; 'I' for Inactive)
REMARK    1  A    between atoms: C_1  and  C_2
REMARK    2  A    between atoms: N_4  and  C_5
REMARK    3  A    between atoms: N_4  and  C_11
REMARK    4  A    between atoms: C_5  and  C_6
REMARK    5  A    between atoms: C_11  and  C_12
REMARK    6  A    between atoms: N_14  and  C_15
REMARK                            x       y       z     vdW  Elec       q    Type
REMARK                         _______ _______ _______ _____ _____    ______ ____
ROOT
ATOM      1  C   UNL     1       2.356   4.944  20.048  0.00  0.00    +0.000 C 
ATOM      2  C   UNL     1       0.866   4.476  19.912  0.00  0.00    +0.000 C 
ATOM      3  C   UNL     1       0.638   2.979  20.163  0.00  0.00    +0.000 C 
ATOM      4  C   UNL     1       1.241   2.487  21.473  0.00  0.00    +0.000 C 
ATOM      5  C   UNL     1       2.673   2.965  21.651  0.00  0.00    +0.000 C 
ATOM      6  C   UNL     1       2.755   4.482  21.484  0.00  0.00    +0.000 C 
ENDROOT
BRANCH   1  10
ATOM      7  C   UNL     1       1.445   4.237  17.238  0.00  0.00    +0.000 C 
ATOM      8  C   UNL     1       2.874   4.037  17.684  0.00  0.00    +0.000 C 
ATOM      9  O   UNL     1       3.642   3.469  16.903  0.00  0.00    +0.000 OA
ATOM     10  N   UNL     1       3.299   4.449  18.955  0.00  0.00    +0.000 N 
BRANCH  10  11
ATOM     11  C   UNL     1       4.670   4.010  19.310  0.00  0.00    +0.000 C 
BRANCH  11  12
ATOM     12  C   UNL     1       5.736   4.974  18.935  0.00  0.00    +0.000 A 
ATOM     13  C   UNL     1       5.947   5.852  17.893  0.00  0.00    +0.000 A 
ATOM     14  C   UNL     1       7.224   6.430  18.101  0.00  0.00    +0.000 A 
ATOM     15  C   UNL     1       7.717   5.868  19.252  0.00  0.00    +0.000 A 
ATOM     16  O   UNL     1       6.824   4.987  19.769  0.00  0.00    +0.000 OA
ENDBRANCH  11  12
ENDBRANCH  10  11
ENDBRANCH   1  10
BRANCH   1  17
ATOM     17  C   UNL     1       2.334   6.521  19.943  0.00  0.00    +0.000 C 
ATOM     18  O   UNL     1       2.907   7.128  19.041  0.00  0.00    +0.000 OA
ATOM     19  N   UNL     1       1.726   7.175  21.008  0.00  0.00    +0.000 N 
ATOM     20  H   UNL     1       1.134   6.611  21.601  0.00  0.00    +0.000 HD
BRANCH  19  21
ATOM     21  C   UNL     1       1.462   8.603  21.028  0.00  0.00    +0.000 C 
ATOM     22  C   UNL     1       0.362   9.025  20.053  0.00  0.00    +0.000 C 
ATOM     23  C   UNL     1      -0.051  10.405  20.554  0.00  0.00    +0.000 C 
ATOM     24  C   UNL     1       0.186  10.385  22.064  0.00  0.00    +0.000 C 
ATOM     25  C   UNL     1       0.887   9.063  22.367  0.00  0.00    +0.000 C 
ENDBRANCH  19  21
ENDBRANCH   1  17
TORSDOF 5
ENDMDL
MODEL 2
REMARK VINA RESULT:      -7.2      3.067      7.000
REMARK  Name = 
REMARK  6 active torsions:
REMARK  status: ('A' for Active; 'I' for Inactive)
REMARK    1  A    between atoms: C_1  and  C_2
REMARK    2  A    between atoms: N_4  and  C_5
REMARK    3  A    between atoms: N_4  and  C_11
REMARK    4  A    between atoms: C_5  and  C_6
REMARK    5  A    between atoms: C_11  and  C_12
REMARK    6  A    between atoms: N_14  and  C_15
REMARK                            x       y       z     vdW  Elec       q    Type
REMARK                         _______ _______ _______ _____ _____    ______ ____
ROOT
ATOM      1  C   UNL     1       4.452   4.928  17.295  0.00  0.00    +0.000 C 
ATOM      2  C   UNL     1       2.942   4.516  17.231  0.00  0.00    +0.000 C 
ATOM      3  C   UNL     1       1.999   5.400  18.061  0.00  0.00    +0.000 C 
ATOM      4  C   UNL     1       2.166   6.889  17.780  0.00  0.00    +0.000 C 
ATOM      5  C   UNL     1       3.628   7.307  17.792  0.00  0.00    +0.000 C 
ATOM      6  C   UNL     1       4.444   6.423  16.849  0.00  0.00    +0.000 C 
ENDROOT
BRANCH   1  10
ATOM      7  C   UNL     1       6.869   6.501  18.248  0.00  0.00    +0.000 C 
ATOM      8  C   UNL     1       6.308   5.348  19.044  0.00  0.00    +0.000 C 
ATOM      9  O   UNL     1       6.934   4.988  20.045  0.00  0.00    +0.000 OA
ATOM     10  N   UNL     1       5.140   4.687  18.636  0.00  0.00    +0.000 N 
BRANCH  10  11
ATOM     11  C   UNL     1       4.832   3.463  19.412  0.00  0.00    +0.000 C 
BRANCH  11  12
ATOM     12  C   UNL     1       3.510   3.487  20.091  0.00  0.00    +0.000 A 
ATOM     13  C   UNL     1       2.875   4.329  20.977  0.00  0.00    +0.000 A 
ATOM     14  C   UNL     1       1.634   3.723  21.294  0.00  0.00    +0.000 A 
ATOM     15  C   UNL     1       1.589   2.547  20.588  0.00  0.00    +0.000 A 
ATOM     16  O   UNL     1       2.718   2.394  19.853  0.00  0.00    +0.000 OA
ENDBRANCH  11  12
ENDBRANCH  10  11
ENDBRANCH   1  10
BRANCH   1  17
ATOM     17  C   UNL     1       5.202   4.023  16.238  0.00  0.00    +0.000 C 
ATOM     18  O   UNL     1       5.240   2.799  16.330  0.00  0.00    +0.000 OA
ATOM     19  N   UNL     1       5.914   4.717  15.266  0.00  0.00    +0.000 N 
ATOM     20  H   UNL     1       5.685   5.695  15.156  0.00  0.00    +0.000 HD
BRANCH  19  21
ATOM     21  C   UNL     1       6.535   4.080  14.119  0.00  0.00    +0.000 C 
ATOM     22  C   UNL     1       5.522   3.564  13.096  0.00  0.00    +0.000 C 
ATOM     23  C   UNL     1       6.354   3.372  11.832  0.00  0.00    +0.000 C 
ATOM     24  C   UNL     1       7.464   4.421  11.906  0.00  0.00    +0.000 C 
ATOM     25  C   UNL     1       7.347   5.069  13.282  0.00  0.00    +0.000 C 
ENDBRANCH  19  21
ENDBRANCH   1  17
TORSDOF 5
ENDMDL
MODEL 3
REMARK VINA RESULT:      -7.1      1.983      4.705
REMARK  Name = 
REMARK  6 active torsions:
REMARK  status: ('A' for Active; 'I' for Inactive)
REMARK    1  A    between atoms: C_1  and  C_2
REMARK    2  A    between atoms: N_4  and  C_5
REMARK    3  A    between atoms: N_4  and  C_11
REMARK    4  A    between atoms: C_5  and  C_6
REMARK    5  A    between atoms: C_11  and  C_12
REMARK    6  A    between atoms: N_14  and  C_15
REMARK                            x       y       z     vdW  Elec       q    Type
REMARK                         _______ _______ _______ _____ _____    ______ ____
ROOT
ATOM      1  C   UNL     1       4.386   5.059  17.259  0.00  0.00    +0.000 C 
ATOM      2  C   UNL     1       5.087   6.026  16.245  0.00  0.00    +0.000 C 
ATOM      3  C   UNL     1       6.369   5.470  15.608  0.00  0.00    +0.000 C 
ATOM      4  C   UNL     1       6.188   4.086  14.997  0.00  0.00    +0.000 C 
ATOM      5  C   UNL     1       5.468   3.139  15.944  0.00  0.00    +0.000 C 
ATOM      6  C   UNL     1       4.157   3.759  16.427  0.00  0.00    +0.000 C 
ENDROOT
BRANCH   1  10
ATOM      7  C   UNL     1       6.738   6.752  18.167  0.00  0.00    +0.000 C 
ATOM      8  C   UNL     1       6.274   5.549  18.953  0.00  0.00    +0.000 C 
ATOM      9  O   UNL     1       6.954   5.205  19.924  0.00  0.00    +0.000 OA
ATOM     10  N   UNL     1       5.134   4.829  18.569  0.00  0.00    +0.000 N 
BRANCH  10  11
ATOM     11  C   UNL     1       4.925   3.571  19.325  0.00  0.00    +0.000 C 
BRANCH  11  12
ATOM     12  C   UNL     1       3.576   3.441  19.934  0.00  0.00    +0.000 A 
ATOM     13  C   UNL     1       2.564   2.508  19.890  0.00  0.00    +0.000 A 
ATOM     14  C   UNL     1       1.491   3.036  20.651  0.00  0.00    +0.000 A 
ATOM     15  C   UNL     1       1.912   4.261  21.108  0.00  0.00    +0.000 A 
ATOM     16  O   UNL     1       3.174   4.516  20.683  0.00  0.00    +0.000 OA
ENDBRANCH  11  12
ENDBRANCH  10  11
ENDBRANCH   1  10
BRANCH   1  17
ATOM     17  C   UNL     1       3.011   5.740  17.640  0.00  0.00    +0.000 C 
ATOM     18  O   UNL     1       1.950   5.121  17.644  0.00  0.00    +0.000 OA
ATOM     19  N   UNL     1       3.071   7.112  17.851  0.00  0.00    +0.000 N 
ATOM     20  H   UNL     1       3.990   7.503  18.005  0.00  0.00    +0.000 HD
BRANCH  19  21
ATOM     21  C   UNL     1       1.959   7.895  18.361  0.00  0.00    +0.000 C 
ATOM     22  C   UNL     1       1.950   8.001  19.887  0.00  0.00    +0.000 C 
ATOM     23  C   UNL     1       1.029   9.187  20.158  0.00  0.00    +0.000 C 
ATOM     24  C   UNL     1       1.184  10.115  18.952  0.00  0.00    +0.000 C 
ATOM     25  C   UNL     1       2.051   9.363  17.946  0.00  0.00    +0.000 C 
ENDBRANCH  19  21
ENDBRANCH   1  17
TORSDOF 5
ENDMDL
MODEL 4
REMARK VINA RESULT:      -7.0      3.172      7.334
REMARK  Name = 
REMARK  6 active torsions:
REMARK  status: ('A' for Active; 'I' for Inactive)
REMARK    1  A    between atoms: C_1  and  C_2
REMARK    2  A    between atoms: N_4  and  C_5
REMARK    3  A    between atoms: N_4  and  C_11
REMARK    4  A    between atoms: C_5  and  C_6
REMARK    5  A    between atoms: C_11  and  C_12
REMARK    6  A    between atoms: N_14  and  C_15
REMARK                            x       y       z     vdW  Elec       q    Type
REMARK                         _______ _______ _______ _____ _____    ______ ____
ROOT
ATOM      1  C   UNL     1       6.194   5.341  17.433  0.00  0.00    +0.000 C 
ATOM      2  C   UNL     1       6.922   6.531  16.720  0.00  0.00    +0.000 C 
ATOM      3  C   UNL     1       7.478   7.604  17.667  0.00  0.00    +0.000 C 
ATOM      4  C   UNL     1       8.344   7.033  18.784  0.00  0.00    +0.000 C 
ATOM      5  C   UNL     1       7.680   5.846  19.464  0.00  0.00    +0.000 C 
ATOM      6  C   UNL     1       7.266   4.800  18.429  0.00  0.00    +0.000 C 
ENDROOT
BRANCH   1  10
ATOM      7  C   UNL     1       4.181   7.269  16.226  0.00  0.00    +0.000 C 
ATOM      8  C   UNL     1       3.967   6.642  17.582  0.00  0.00    +0.000 C 
ATOM      9  O   UNL     1       2.996   7.026  18.241  0.00  0.00    +0.000 OA
ATOM     10  N   UNL     1       4.860   5.687  18.089  0.00  0.00    +0.000 N 
BRANCH  10  11
ATOM     11  C   UNL     1       4.617   5.317  19.503  0.00  0.00    +0.000 C 
BRANCH  11  12
ATOM     12  C   UNL     1       3.472   4.392  19.703  0.00  0.00    +0.000 A 
ATOM     13  C   UNL     1       3.055   3.206  19.139  0.00  0.00    +0.000 A 
ATOM     14  C   UNL     1       1.816   2.881  19.745  0.00  0.00    +0.000 A 
ATOM     15  C   UNL     1       1.549   3.890  20.637  0.00  0.00    +0.000 A 
ATOM     16  O   UNL     1       2.545   4.810  20.623  0.00  0.00    +0.000 OA
ENDBRANCH  11  12
ENDBRANCH  10  11
ENDBRANCH   1  10
BRANCH   1  17
ATOM     17  C   UNL     1       5.877   4.278  16.306  0.00  0.00    +0.000 C 
ATOM     18  O   UNL     1       5.112   3.335  16.488  0.00  0.00    +0.000 OA
ATOM     19  N   UNL     1       6.618   4.419  15.137  0.00  0.00    +0.000 N 
ATOM     20  H   UNL     1       7.079   5.308  15.004  0.00  0.00    +0.000 HD
BRANCH  19  21
ATOM     21  C   UNL     1       6.368   3.650  13.932  0.00  0.00    +0.000 C 
ATOM     22  C   UNL     1       4.971   3.879  13.351  0.00  0.00    +0.000 C 
ATOM     23  C   UNL     1       5.091   3.370  11.918  0.00  0.00    +0.000 C 
ATOM     24  C   UNL     1       6.546   3.611  11.514  0.00  0.00    +0.000 C 
ATOM     25  C   UNL     1       7.263   4.089  12.773  0.00  0.00    +0.000 C 
ENDBRANCH  19  21
ENDBRANCH   1  17
TORSDOF 5
ENDMDL
MODEL 5
REMARK VINA RESULT:      -6.9      2.949      6.630
REMARK  Name = 
REMARK  6 active torsions:
REMARK  status: ('A' for Active; 'I' for Inactive)
REMARK    1  A    between atoms: C_1  and  C_2
REMARK    2  A    between atoms: N_4  and  C_5
REMARK    3  A    between atoms: N_4  and  C_11
REMARK    4  A    between atoms: C_5  and  C_6
REMARK    5  A    between atoms: C_11  and  C_12
REMARK    6  A    between atoms: N_14  and  C_15
REMARK                            x       y       z     vdW  Elec       q    Type
REMARK                         _______ _______ _______ _____ _____    ______ ____
ROOT
ATOM      1  C   UNL     1       4.002   4.335  17.330  0.00  0.00    +0.000 C 
ATOM      2  C   UNL     1       4.410   2.825  17.233  0.00  0.00    +0.000 C 
ATOM      3  C   UNL     1       3.755   1.914  18.281  0.00  0.00    +0.000 C 
ATOM      4  C   UNL     1       2.239   2.061  18.345  0.00  0.00    +0.000 C 
ATOM      5  C   UNL     1       1.813   3.520  18.393  0.00  0.00    +0.000 C 
ATOM      6  C   UNL     1       2.445   4.300  17.241  0.00  0.00    +0.000 C 
ENDROOT
BRANCH   1  10
ATOM      7  C   UNL     1       6.955   4.551  18.008  0.00  0.00    +0.000 C 
ATOM      8  C   UNL     1       5.888   5.110  18.918  0.00  0.00    +0.000 C 
ATOM      9  O   UNL     1       6.247   5.561  20.010  0.00  0.00    +0.000 OA
ATOM     10  N   UNL     1       4.534   5.081  18.550  0.00  0.00    +0.000 N 
BRANCH  10  11
ATOM     11  C   UNL     1       3.602   5.488  19.628  0.00  0.00    +0.000 C 
BRANCH  11  12
ATOM     12  C   UNL     1       2.851   6.738  19.345  0.00  0.00    +0.000 A 
ATOM     13  C   UNL     1       2.777   7.624  18.292  0.00  0.00    +0.000 A 
ATOM     14  C   UNL     1       1.910   8.668  18.700  0.00  0.00    +0.000 A 
ATOM     15  C   UNL     1       1.512   8.359  19.977  0.00  0.00    +0.000 A 
ATOM     16  O   UNL     1       2.072   7.191  20.378  0.00  0.00    +0.000 OA
ENDBRANCH  11  12
ENDBRANCH  10  11
ENDBRANCH   1  10
BRANCH   1  17
ATOM     17  C   UNL     1       4.629   5.043  16.062  0.00  0.00    +0.000 C 
ATOM     18  O   UNL     1       4.684   6.265  15.953  0.00  0.00    +0.000 OA
ATOM     19  N   UNL     1       5.000   4.188  15.032  0.00  0.00    +0.000 N 
ATOM     20  H   UNL     1       5.088   3.210  15.270  0.00  0.00    +0.000 HD
BRANCH  19  21
ATOM     21  C   UNL     1       5.734   4.619  13.856  0.00  0.00    +0.000 C 
ATOM     22  C   UNL     1       7.197   4.956  14.151  0.00  0.00    +0.000 C 
ATOM     23  C   UNL     1       7.856   4.930  12.775  0.00  0.00    +0.000 C 
ATOM     24  C   UNL     1       7.065   3.907  11.959  0.00  0.00    +0.000 C 
ATOM     25  C   UNL     1       5.874   3.502  12.822  0.00  0.00    +0.000 C 
ENDBRANCH  19  21
ENDBRANCH   1  17
TORSDOF 5
ENDMDL
MODEL 6
REMARK VINA RESULT:      -6.8      2.215      5.175
REMARK  Name = 
REMARK  6 active torsions:
REMARK  status: ('A' for Active; 'I' for Inactive)
REMARK    1  A    between atoms: C_1  and  C_2
REMARK    2  A    between atoms: N_4  and  C_5
REMARK    3  A    between atoms: N_4  and  C_11
REMARK    4  A    between atoms: C_5  and  C_6
REMARK    5  A    between atoms: C_11  and  C_12
REMARK    6  A    between atoms: N_14  and  C_15
REMARK                            x       y       z     vdW  Elec       q    Type
REMARK                         _______ _______ _______ _____ _____    ______ ____
ROOT
ATOM      1  C   UNL     1       5.362   5.675  16.690  0.00  0.00    +0.000 C 
ATOM      2  C   UNL     1       6.907   5.836  16.481  0.00  0.00    +0.000 C 
ATOM      3  C   UNL     1       7.568   4.707  15.677  0.00  0.00    +0.000 C 
ATOM      4  C   UNL     1       6.871   4.422  14.353  0.00  0.00    +0.000 C 
ATOM      5  C   UNL     1       5.364   4.306  14.519  0.00  0.00    +0.000 C 
ATOM      6  C   UNL     1       4.809   5.536  15.237  0.00  0.00    +0.000 C 
ENDROOT
BRANCH   1  10
ATOM      7  C   UNL     1       6.530   5.263  19.463  0.00  0.00    +0.000 C 
ATOM      8  C   UNL     1       5.539   4.294  18.867  0.00  0.00    +0.000 C 
ATOM      9  O   UNL     1       5.300   3.260  19.498  0.00  0.00    +0.000 OA
ATOM     10  N   UNL     1       4.942   4.542  17.622  0.00  0.00    +0.000 N 
BRANCH  10  11
ATOM     11  C   UNL     1       4.146   3.410  17.092  0.00  0.00    +0.000 C 
BRANCH  11  12
ATOM     12  C   UNL     1       2.797   3.275  17.700  0.00  0.00    +0.000 A 
ATOM     13  C   UNL     1       1.732   4.119  17.926  0.00  0.00    +0.000 A 
ATOM     14  C   UNL     1       0.758   3.365  18.628  0.00  0.00    +0.000 A 
ATOM     15  C   UNL     1       1.290   2.110  18.792  0.00  0.00    +0.000 A 
ATOM     16  O   UNL     1       2.523   2.041  18.231  0.00  0.00    +0.000 OA
ENDBRANCH  11  12
ENDBRANCH  10  11
ENDBRANCH   1  10
BRANCH   1  17
ATOM     17  C   UNL     1       4.865   7.017  17.361  0.00  0.00    +0.000 C 
ATOM     18  O   UNL     1       5.598   7.992  17.502  0.00  0.00    +0.000 OA
ATOM     19  N   UNL     1       3.579   6.972  17.888  0.00  0.00    +0.000 N 
ATOM     20  H   UNL     1       2.993   6.212  17.575  0.00  0.00    +0.000 HD
BRANCH  19  21
ATOM     21  C   UNL     1       2.882   8.138  18.402  0.00  0.00    +0.000 C 
ATOM     22  C   UNL     1       1.777   8.636  17.469  0.00  0.00    +0.000 C 
ATOM     23  C   UNL     1       0.918   9.519  18.369  0.00  0.00    +0.000 C 
ATOM     24  C   UNL     1       1.041   8.921  19.771  0.00  0.00    +0.000 C 
ATOM     25  C   UNL     1       2.097   7.823  19.675  0.00  0.00    +0.000 C 
ENDBRANCH  19  21
ENDBRANCH   1  17
TORSDOF 5
ENDMDL
MODEL 7
REMARK VINA RESULT:      -6.7      1.147      1.269
REMARK  Name = 
REMARK  6 active torsions:
REMARK  status: ('A' for Active; 'I' for Inactive)
REMARK    1  A    between atoms: C_1  and  C_2
REMARK    2  A    between atoms: N_4  and  C_5
REMARK    3  A    between atoms: N_4  and  C_11
REMARK    4  A    between atoms: C_5  and  C_6
REMARK    5  A    between atoms: C_11  and  C_12
REMARK    6  A    between atoms: N_14  and  C_15
REMARK                            x       y       z     vdW  Elec       q    Type
REMARK                         _______ _______ _______ _____ _____    ______ ____
ROOT
ATOM      1  C   UNL     1       2.566   4.685  19.738  0.00  0.00    +0.000 C 
ATOM      2  C   UNL     1       1.039   4.506  20.039  0.00  0.00    +0.000 C 
ATOM      3  C   UNL     1       0.631   3.089  20.468  0.00  0.00    +0.000 C 
ATOM      4  C   UNL     1       1.475   2.537  21.610  0.00  0.00    +0.000 C 
ATOM      5  C   UNL     1       2.962   2.740  21.365  0.00  0.00    +0.000 C 
ATOM      6  C   UNL     1       3.257   4.207  21.053  0.00  0.00    +0.000 C 
ENDROOT
BRANCH   1  10
ATOM      7  C   UNL     1       0.868   4.248  17.258  0.00  0.00    +0.000 C 
ATOM      8  C   UNL     1       2.269   3.699  17.368  0.00  0.00    +0.000 C 
ATOM      9  O   UNL     1       2.668   2.964  16.459  0.00  0.00    +0.000 OA
ATOM     10  N   UNL     1       3.073   3.982  18.482  0.00  0.00    +0.000 N 
BRANCH  10  11
ATOM     11  C   UNL     1       4.341   3.215  18.529  0.00  0.00    +0.000 C 
BRANCH  11  12
ATOM     12  C   UNL     1       5.504   3.922  17.933  0.00  0.00    +0.000 A 
ATOM     13  C   UNL     1       5.953   4.170  16.654  0.00  0.00    +0.000 A 
ATOM     14  C   UNL     1       7.192   4.846  16.784  0.00  0.00    +0.000 A 
ATOM     15  C   UNL     1       7.425   4.965  18.131  0.00  0.00    +0.000 A 
ATOM     16  O   UNL     1       6.409   4.411  18.838  0.00  0.00    +0.000 OA
ENDBRANCH  11  12
ENDBRANCH  10  11
ENDBRANCH   1  10
BRANCH   1  17
ATOM     17  C   UNL     1       2.791   6.233  19.508  0.00  0.00    +0.000 C 
ATOM     18  O   UNL     1       3.766   6.673  18.904  0.00  0.00    +0.000 OA
ATOM     19  N   UNL     1       1.873   7.064  20.142  0.00  0.00    +0.000 N 
ATOM     20  H   UNL     1       1.019   6.628  20.458  0.00  0.00    +0.000 HD
BRANCH  19  21
ATOM     21  C   UNL     1       1.810   8.499  19.929  0.00  0.00    +0.000 C 
ATOM     22  C   UNL     1       1.439   8.878  18.495  0.00  0.00    +0.000 C 
ATOM     23  C   UNL     1       0.993  10.332  18.612  0.00  0.00    +0.000 C 
ATOM     24  C   UNL     1       0.402  10.470  20.016  0.00  0.00    +0.000 C 
ATOM     25  C   UNL     1       0.679   9.148  20.726  0.00  0.00    +0.000 C 
ENDBRANCH  19  21
ENDBRANCH   1  17
TORSDOF 5
ENDMDL
MODEL 8
REMARK VINA RESULT:      -6.7      1.002      1.240
REMARK  Name = 
REMARK  6 active torsions:
REMARK  status: ('A' for Active; 'I' for Inactive)
REMARK    1  A    between atoms: C_1  and  C_2
REMARK    2  A    between atoms: N_4  and  C_5
REMARK    3  A    between atoms: N_4  and  C_11
REMARK    4  A    between atoms: C_5  and  C_6
REMARK    5  A    between atoms: C_11  and  C_12
REMARK    6  A    between atoms: N_14  and  C_15
REMARK                            x       y       z     vdW  Elec       q    Type
REMARK                         _______ _______ _______ _____ _____    ______ ____
ROOT
ATOM      1  C   UNL     1       2.554   4.923  19.534  0.00  0.00    +0.000 C 
ATOM      2  C   UNL     1       1.186   4.260  19.157  0.00  0.00    +0.000 C 
ATOM      3  C   UNL     1       1.042   2.793  19.588  0.00  0.00    +0.000 C 
ATOM      4  C   UNL     1       1.367   2.562  21.058  0.00  0.00    +0.000 C 
ATOM      5  C   UNL     1       2.670   3.234  21.463  0.00  0.00    +0.000 C 
ATOM      6  C   UNL     1       2.650   4.713  21.077  0.00  0.00    +0.000 C 
ENDROOT
BRANCH   1  10
ATOM      7  C   UNL     1       2.359   3.484  16.866  0.00  0.00    +0.000 C 
ATOM      8  C   UNL     1       3.679   3.664  17.577  0.00  0.00    +0.000 C 
ATOM      9  O   UNL     1       4.669   3.107  17.093  0.00  0.00    +0.000 OA
ATOM     10  N   UNL     1       3.767   4.407  18.764  0.00  0.00    +0.000 N 
BRANCH  10  11
ATOM     11  C   UNL     1       5.086   4.327  19.435  0.00  0.00    +0.000 C 
BRANCH  11  12
ATOM     12  C   UNL     1       6.095   5.283  18.912  0.00  0.00    +0.000 A 
ATOM     13  C   UNL     1       7.378   5.646  19.259  0.00  0.00    +0.000 A 
ATOM     14  C   UNL     1       7.757   6.691  18.379  0.00  0.00    +0.000 A 
ATOM     15  C   UNL     1       6.681   6.905  17.553  0.00  0.00    +0.000 A 
ATOM     16  O   UNL     1       5.670   6.057  17.863  0.00  0.00    +0.000 OA
ENDBRANCH  11  12
ENDBRANCH  10  11
ENDBRANCH   1  10
BRANCH   1  17
ATOM     17  C   UNL     1       2.415   6.457  19.176  0.00  0.00    +0.000 C 
ATOM     18  O   UNL     1       2.718   6.905  18.074  0.00  0.00    +0.000 OA
ATOM     19  N   UNL     1       2.041   7.277  20.234  0.00  0.00    +0.000 N 
ATOM     20  H   UNL     1       1.643   6.817  21.040  0.00  0.00    +0.000 HD
BRANCH  19  21
ATOM     21  C   UNL     1       1.706   8.682  20.081  0.00  0.00    +0.000 C 
ATOM     22  C   UNL     1       1.258   9.041  18.663  0.00  0.00    +0.000 C 
ATOM     23  C   UNL     1       0.547  10.379  18.840  0.00  0.00    +0.000 C 
ATOM     24  C   UNL     1      -0.047  10.347  20.249  0.00  0.00    +0.000 C 
ATOM     25  C   UNL     1       0.481   9.075  20.905  0.00  0.00    +0.000 C 
ENDBRANCH  19  21
ENDBRANCH   1  17
TORSDOF 5
ENDMDL
MODEL 9
REMARK VINA RESULT:      -6.7      3.127      6.854
REMARK  Name = 
REMARK  6 active torsions:
REMARK  status: ('A' for Active; 'I' for Inactive)
REMARK    1  A    between atoms: C_1  and  C_2
REMARK    2  A    between atoms: N_4  and  C_5
REMARK    3  A    between atoms: N_4  and  C_11
REMARK    4  A    between atoms: C_5  and  C_6
REMARK    5  A    between atoms: C_11  and  C_12
REMARK    6  A    between atoms: N_14  and  C_15
REMARK                            x       y       z     vdW  Elec       q    Type
REMARK                         _______ _______ _______ _____ _____    ______ ____
ROOT
ATOM      1  C   UNL     1       4.407   5.614  17.400  0.00  0.00    +0.000 C 
ATOM      2  C   UNL     1       2.864   5.341  17.429  0.00  0.00    +0.000 C 
ATOM      3  C   UNL     1       2.035   6.411  18.154  0.00  0.00    +0.000 C 
ATOM      4  C   UNL     1       2.324   7.827  17.672  0.00  0.00    +0.000 C 
ATOM      5  C   UNL     1       3.817   8.105  17.591  0.00  0.00    +0.000 C 
ATOM      6  C   UNL     1       4.515   7.032  16.756  0.00  0.00    +0.000 C 
ENDROOT
BRANCH   1  10
ATOM      7  C   UNL     1       7.397   6.010  17.757  0.00  0.00    +0.000 C 
ATOM      8  C   UNL     1       6.510   5.584  18.901  0.00  0.00    +0.000 C 
ATOM      9  O   UNL     1       7.056   5.289  19.968  0.00  0.00    +0.000 OA
ATOM     10  N   UNL     1       5.119   5.490  18.744  0.00  0.00    +0.000 N 
BRANCH  10  11
ATOM     11  C   UNL     1       4.417   4.875  19.895  0.00  0.00    +0.000 C 
BRANCH  11  12
ATOM     12  C   UNL     1       4.036   3.454  19.690  0.00  0.00    +0.000 A 
ATOM     13  C   UNL     1       2.871   2.782  19.391  0.00  0.00    +0.000 A 
ATOM     14  C   UNL     1       3.183   1.399  19.413  0.00  0.00    +0.000 A 
ATOM     15  C   UNL     1       4.516   1.312  19.729  0.00  0.00    +0.000 A 
ATOM     16  O   UNL     1       5.045   2.550  19.897  0.00  0.00    +0.000 OA
ENDBRANCH  11  12
ENDBRANCH  10  11
ENDBRANCH   1  10
BRANCH   1  17
ATOM     17  C   UNL     1       5.033   4.511  16.456  0.00  0.00    +0.000 C 
ATOM     18  O   UNL     1       5.030   3.318  16.747  0.00  0.00    +0.000 OA
ATOM     19  N   UNL     1       5.692   5.000  15.334  0.00  0.00    +0.000 N 
ATOM     20  H   UNL     1       5.494   5.957  15.079  0.00  0.00    +0.000 HD
BRANCH  19  21
ATOM     21  C   UNL     1       6.194   4.154  14.266  0.00  0.00    +0.000 C 
ATOM     22  C   UNL     1       5.113   3.745  13.265  0.00  0.00    +0.000 C 
ATOM     23  C   UNL     1       5.907   3.283  12.047  0.00  0.00    +0.000 C 
ATOM     24  C   UNL     1       7.196   4.106  12.059  0.00  0.00    +0.000 C 
ATOM     25  C   UNL     1       7.188   4.890  13.368  0.00  0.00    +0.000 C 
ENDBRANCH  19  21
ENDBRANCH   1  17
TORSDOF 5
ENDMDL
