MODEL 1
REMARK VINA RESULT:      -6.7      0.000      0.000
REMARK  Name = 
REMARK  4 active torsions:
REMARK  status: ('A' for Active; 'I' for Inactive)
REMARK    1  A    between atoms: N_1  and  C_2
REMARK    2  A    between atoms: C_5  and  N_6
REMARK    3  A    between atoms: N_7  and  C_8
REMARK    4  A    between atoms: C_14  and  N_15
REMARK                            x       y       z     vdW  Elec       q    Type
REMARK                         _______ _______ _______ _____ _____    ______ ____
ROOT
ATOM      1  C   UNL     1       6.453   4.779  14.753  0.00  0.00    +0.000 A 
ATOM      2  C   UNL     1       5.350   5.603  14.975  0.00  0.00    +0.000 A 
ATOM      3  C   UNL     1       5.015   6.020  16.269  0.00  0.00    +0.000 A 
ATOM      4  C   UNL     1       5.771   5.609  17.374  0.00  0.00    +0.000 A 
ATOM      5  C   UNL     1       6.833   4.697  17.162  0.00  0.00    +0.000 A 
ATOM      6  C   UNL     1       7.174   4.315  15.857  0.00  0.00    +0.000 A 
ENDROOT
BRANCH   1   7
ATOM      7  N   UNL     1       6.688   4.242  13.481  0.00  0.00    +0.000 N 
ATOM      8  H   UNL     1       7.468   4.666  12.988  0.00  0.00    +0.000 HD
ATOM      9  H   UNL     1       6.720   3.228  13.458  0.00  0.00    +0.000 HD
ENDBRANCH   1   7
BRANCH   5  10
ATOM     10  N   UNL     1       7.681   4.313  18.229  0.00  0.00    +0.000 N 
ATOM     11  H   UNL     1       8.242   3.497  17.979  0.00  0.00    +0.000 HD
ATOM     12  H   UNL     1       8.243   5.076  18.588  0.00  0.00    +0.000 HD
ENDBRANCH   5  10
BRANCH   4  13
ATOM     13  N   UNL     1       5.428   5.919  18.713  0.00  0.00    +0.000 NA
ATOM     14  N   UNL     1       4.782   5.140  19.449  0.00  0.00    +0.000 NA
BRANCH  14  15
ATOM     15  C   UNL     1       3.779   4.278  18.961  0.00  0.00    +0.000 A 
ATOM     16  C   UNL     1       4.064   2.903  18.961  0.00  0.00    +0.000 A 
ATOM     17  C   UNL     1       3.108   1.964  18.570  0.00  0.00    +0.000 A 
ATOM     18  C   UNL     1       1.846   2.392  18.166  0.00  0.00    +0.000 A 
ATOM     19  C   UNL     1       1.538   3.751  18.174  0.00  0.00    +0.000 A 
ATOM     20  C   UNL     1       2.492   4.686  18.590  0.00  0.00    +0.000 A 
ENDBRANCH  14  15
ENDBRANCH   4  13
TORSDOF 4
ENDMDL
MODEL 2
REMARK VINA RESULT:      -6.6      0.280      1.234
REMARK  Name = 
REMARK  4 active torsions:
REMARK  status: ('A' for Active; 'I' for Inactive)
REMARK    1  A    between atoms: N_1  and  C_2
REMARK    2  A    between atoms: C_5  and  N_6
REMARK    3  A    between atoms: N_7  and  C_8
REMARK    4  A    between atoms: C_14  and  N_15
REMARK                            x       y       z     vdW  Elec       q    Type
REMARK                         _______ _______ _______ _____ _____    ______ ____
ROOT
ATOM      1  C   UNL     1       6.359   4.398  14.681  0.00  0.00    +0.000 A 
ATOM      2  C   UNL     1       5.265   5.248  14.845  0.00  0.00    +0.000 A 
ATOM      3  C   UNL     1       4.978   5.814  16.093  0.00  0.00    +0.000 A 
ATOM      4  C   UNL     1       5.773   5.531  17.211  0.00  0.00    +0.000 A 
ATOM      5  C   UNL     1       6.826   4.595  17.069  0.00  0.00    +0.000 A 
ATOM      6  C   UNL     1       7.119   4.061  15.805  0.00  0.00    +0.000 A 
ENDROOT
BRANCH   1   7
ATOM      7  N   UNL     1       6.546   3.716  13.473  0.00  0.00    +0.000 N 
ATOM      8  H   UNL     1       6.377   2.716  13.529  0.00  0.00    +0.000 HD
ATOM      9  H   UNL     1       6.082   4.143  12.677  0.00  0.00    +0.000 HD
ENDBRANCH   1   7
BRANCH   5  10
ATOM     10  N   UNL     1       7.712   4.333  18.141  0.00  0.00    +0.000 N 
ATOM     11  H   UNL     1       8.561   3.870  17.814  0.00  0.00    +0.000 HD
ATOM     12  H   UNL     1       7.908   5.151  18.707  0.00  0.00    +0.000 HD
ENDBRANCH   5  10
BRANCH   4  13
ATOM     13  N   UNL     1       5.479   5.996  18.516  0.00  0.00    +0.000 NA
ATOM     14  N   UNL     1       4.874   5.305  19.366  0.00  0.00    +0.000 NA
BRANCH  14  15
ATOM     15  C   UNL     1       3.866   4.381  19.027  0.00  0.00    +0.000 A 
ATOM     16  C   UNL     1       2.618   4.904  18.654  0.00  0.00    +0.000 A 
ATOM     17  C   UNL     1       1.580   4.073  18.227  0.00  0.00    +0.000 A 
ATOM     18  C   UNL     1       1.779   2.696  18.171  0.00  0.00    +0.000 A 
ATOM     19  C   UNL     1       3.015   2.158  18.521  0.00  0.00    +0.000 A 
ATOM     20  C   UNL     1       4.059   2.997  18.926  0.00  0.00    +0.000 A 
ENDBRANCH  14  15
ENDBRANCH   4  13
TORSDOF 4
ENDMDL
MODEL 3
REMARK VINA RESULT:      -6.5      2.144      5.337
REMARK  Name = 
REMARK  4 active torsions:
REMARK  status: ('A' for Active; 'I' for Inactive)
REMARK    1  A    between atoms: N_1  and  C_2
REMARK    2  A    between atoms: C_5  and  N_6
REMARK    3  A    between atoms: N_7  and  C_8
REMARK    4  A    between atoms: C_14  and  N_15
REMARK                            x       y       z     vdW  Elec       q    Type
REMARK                         _______ _______ _______ _____ _____    ______ ____
ROOT
ATOM      1  C   UNL     1       2.629   4.912  19.914  0.00  0.00    +0.000 A 
ATOM      2  C   UNL     1       2.821   5.959  19.013  0.00  0.00    +0.000 A 
ATOM      3  C   UNL     1       3.480   5.747  17.796  0.00  0.00    +0.000 A 
ATOM      4  C   UNL     1       3.975   4.480  17.459  0.00  0.00    +0.000 A 
ATOM      5  C   UNL     1       3.866   3.439  18.412  0.00  0.00    +0.000 A 
ATOM      6  C   UNL     1       3.175   3.661  19.612  0.00  0.00    +0.000 A 
ENDROOT
BRANCH   1   7
ATOM      7  N   UNL     1       2.110   5.165  21.190  0.00  0.00    +0.000 N 
ATOM      8  H   UNL     1       1.207   4.735  21.365  0.00  0.00    +0.000 HD
ATOM      9  H   UNL     1       2.769   5.005  21.945  0.00  0.00    +0.000 HD
ENDBRANCH   1   7
BRANCH   5  10
ATOM     10  N   UNL     1       4.273   2.121  18.093  0.00  0.00    +0.000 N 
ATOM     11  H   UNL     1       5.212   1.930  18.446  0.00  0.00    +0.000 HD
ATOM     12  H   UNL     1       3.601   1.415  18.373  0.00  0.00    +0.000 HD
ENDBRANCH   5  10
BRANCH   4  13
ATOM     13  N   UNL     1       4.732   4.224  16.289  0.00  0.00    +0.000 NA
ATOM     14  N   UNL     1       5.982   4.251  16.266  0.00  0.00    +0.000 NA
BRANCH  14  15
ATOM     15  C   UNL     1       6.746   5.130  17.060  0.00  0.00    +0.000 A 
ATOM     16  C   UNL     1       6.846   6.461  16.625  0.00  0.00    +0.000 A 
ATOM     17  C   UNL     1       7.515   7.424  17.382  0.00  0.00    +0.000 A 
ATOM     18  C   UNL     1       8.100   7.064  18.593  0.00  0.00    +0.000 A 
ATOM     19  C   UNL     1       7.999   5.753  19.051  0.00  0.00    +0.000 A 
ATOM     20  C   UNL     1       7.306   4.797  18.299  0.00  0.00    +0.000 A 
ENDBRANCH  14  15
ENDBRANCH   4  13
TORSDOF 4
ENDMDL
MODEL 4
REMARK VINA RESULT:      -6.5      1.782      5.001
REMARK  Name = 
REMARK  4 active torsions:
REMARK  status: ('A' for Active; 'I' for Inactive)
REMARK    1  A    between atoms: N_1  and  C_2
REMARK    2  A    between atoms: C_5  and  N_6
REMARK    3  A    between atoms: N_7  and  C_8
REMARK    4  A    between atoms: C_14  and  N_15
REMARK                            x       y       z     vdW  Elec       q    Type
REMARK                         _______ _______ _______ _____ _____    ______ ____
ROOT
ATOM      1  C   UNL     1       1.729   3.589  19.692  0.00  0.00    +0.000 A 
ATOM      2  C   UNL     1       2.011   4.954  19.675  0.00  0.00    +0.000 A 
ATOM      3  C   UNL     1       3.333   5.414  19.658  0.00  0.00    +0.000 A 
ATOM      4  C   UNL     1       4.407   4.515  19.670  0.00  0.00    +0.000 A 
ATOM      5  C   UNL     1       4.125   3.132  19.783  0.00  0.00    +0.000 A 
ATOM      6  C   UNL     1       2.795   2.687  19.767  0.00  0.00    +0.000 A 
ENDROOT
BRANCH   1   7
ATOM      7  N   UNL     1       0.414   3.142  19.867  0.00  0.00    +0.000 N 
ATOM      8  H   UNL     1      -0.287   3.724  19.418  0.00  0.00    +0.000 HD
ATOM      9  H   UNL     1       0.281   2.155  19.670  0.00  0.00    +0.000 HD
ENDBRANCH   1   7
BRANCH   5  10
ATOM     10  N   UNL     1       5.165   2.173  19.716  0.00  0.00    +0.000 N 
ATOM     11  H   UNL     1       4.808   1.230  19.877  0.00  0.00    +0.000 HD
ATOM     12  H   UNL     1       5.719   2.241  18.869  0.00  0.00    +0.000 HD
ENDBRANCH   5  10
BRANCH   4  13
ATOM     13  N   UNL     1       5.763   4.918  19.749  0.00  0.00    +0.000 NA
ATOM     14  N   UNL     1       6.353   5.512  18.819  0.00  0.00    +0.000 NA
BRANCH  14  15
ATOM     15  C   UNL     1       6.079   5.270  17.458  0.00  0.00    +0.000 A 
ATOM     16  C   UNL     1       5.448   6.298  16.740  0.00  0.00    +0.000 A 
ATOM     17  C   UNL     1       5.205   6.184  15.370  0.00  0.00    +0.000 A 
ATOM     18  C   UNL     1       5.589   5.029  14.696  0.00  0.00    +0.000 A 
ATOM     19  C   UNL     1       6.231   4.003  15.386  0.00  0.00    +0.000 A 
ATOM     20  C   UNL     1       6.494   4.132  16.755  0.00  0.00    +0.000 A 
ENDBRANCH  14  15
ENDBRANCH   4  13
TORSDOF 4
ENDMDL
MODEL 5
REMARK VINA RESULT:      -6.4      1.781      4.797
REMARK  Name = 
REMARK  4 active torsions:
REMARK  status: ('A' for Active; 'I' for Inactive)
REMARK    1  A    between atoms: N_1  and  C_2
REMARK    2  A    between atoms: C_5  and  N_6
REMARK    3  A    between atoms: N_7  and  C_8
REMARK    4  A    between atoms: C_14  and  N_15
REMARK                            x       y       z     vdW  Elec       q    Type
REMARK                         _______ _______ _______ _____ _____    ______ ____
ROOT
ATOM      1  C   UNL     1       1.796   3.724  19.593  0.00  0.00    +0.000 A 
ATOM      2  C   UNL     1       2.125   5.079  19.564  0.00  0.00    +0.000 A 
ATOM      3  C   UNL     1       3.462   5.493  19.571  0.00  0.00    +0.000 A 
ATOM      4  C   UNL     1       4.504   4.557  19.621  0.00  0.00    +0.000 A 
ATOM      5  C   UNL     1       4.172   3.187  19.747  0.00  0.00    +0.000 A 
ATOM      6  C   UNL     1       2.828   2.788  19.707  0.00  0.00    +0.000 A 
ENDROOT
BRANCH   1   7
ATOM      7  N   UNL     1       0.462   3.325  19.743  0.00  0.00    +0.000 N 
ATOM      8  H   UNL     1       0.311   2.651  20.487  0.00  0.00    +0.000 HD
ATOM      9  H   UNL     1      -0.201   4.094  19.776  0.00  0.00    +0.000 HD
ENDBRANCH   1   7
BRANCH   5  10
ATOM     10  N   UNL     1       5.179   2.192  19.719  0.00  0.00    +0.000 N 
ATOM     11  H   UNL     1       5.149   1.662  18.847  0.00  0.00    +0.000 HD
ATOM     12  H   UNL     1       6.104   2.553  19.923  0.00  0.00    +0.000 HD
ENDBRANCH   5  10
BRANCH   4  13
ATOM     13  N   UNL     1       5.870   4.915  19.727  0.00  0.00    +0.000 NA
ATOM     14  N   UNL     1       6.475   5.565  18.845  0.00  0.00    +0.000 NA
BRANCH  14  15
ATOM     15  C   UNL     1       6.192   5.441  17.470  0.00  0.00    +0.000 A 
ATOM     16  C   UNL     1       6.528   4.225  16.855  0.00  0.00    +0.000 A 
ATOM     17  C   UNL     1       6.218   3.977  15.517  0.00  0.00    +0.000 A 
ATOM     18  C   UNL     1       5.565   4.953  14.769  0.00  0.00    +0.000 A 
ATOM     19  C   UNL     1       5.207   6.161  15.365  0.00  0.00    +0.000 A 
ATOM     20  C   UNL     1       5.500   6.394  16.713  0.00  0.00    +0.000 A 
ENDBRANCH  14  15
ENDBRANCH   4  13
TORSDOF 4
ENDMDL
MODEL 6
REMARK VINA RESULT:      -6.4      2.138      5.259
REMARK  Name = 
REMARK  4 active torsions:
REMARK  status: ('A' for Active; 'I' for Inactive)
REMARK    1  A    between atoms: N_1  and  C_2
REMARK    2  A    between atoms: C_5  and  N_6
REMARK    3  A    between atoms: N_7  and  C_8
REMARK    4  A    between atoms: C_14  and  N_15
REMARK                            x       y       z     vdW  Elec       q    Type
REMARK                         _______ _______ _______ _____ _____    ______ ____
ROOT
ATOM      1  C   UNL     1       2.477   4.869  19.901  0.00  0.00    +0.000 A 
ATOM      2  C   UNL     1       2.636   5.859  18.932  0.00  0.00    +0.000 A 
ATOM      3  C   UNL     1       3.342   5.600  17.751  0.00  0.00    +0.000 A 
ATOM      4  C   UNL     1       3.917   4.344  17.519  0.00  0.00    +0.000 A 
ATOM      5  C   UNL     1       3.839   3.368  18.542  0.00  0.00    +0.000 A 
ATOM      6  C   UNL     1       3.102   3.634  19.705  0.00  0.00    +0.000 A 
ENDROOT
BRANCH   1   7
ATOM      7  N   UNL     1       1.908   5.182  21.142  0.00  0.00    +0.000 N 
ATOM      8  H   UNL     1       0.900   5.296  21.121  0.00  0.00    +0.000 HD
ATOM      9  H   UNL     1       2.215   4.583  21.903  0.00  0.00    +0.000 HD
ENDBRANCH   1   7
BRANCH   5  10
ATOM     10  N   UNL     1       4.329   2.057  18.330  0.00  0.00    +0.000 N 
ATOM     11  H   UNL     1       4.654   1.936  17.370  0.00  0.00    +0.000 HD
ATOM     12  H   UNL     1       5.020   1.772  19.014  0.00  0.00    +0.000 HD
ENDBRANCH   5  10
BRANCH   4  13
ATOM     13  N   UNL     1       4.721   4.050  16.390  0.00  0.00    +0.000 NA
ATOM     14  N   UNL     1       5.964   4.190  16.383  0.00  0.00    +0.000 NA
BRANCH  14  15
ATOM     15  C   UNL     1       6.626   5.206  17.100  0.00  0.00    +0.000 A 
ATOM     16  C   UNL     1       7.262   4.835  18.295  0.00  0.00    +0.000 A 
ATOM     17  C   UNL     1       8.009   5.753  19.036  0.00  0.00    +0.000 A 
ATOM     18  C   UNL     1       8.125   7.067  18.590  0.00  0.00    +0.000 A 
ATOM     19  C   UNL     1       7.515   7.452  17.398  0.00  0.00    +0.000 A 
ATOM     20  C   UNL     1       6.788   6.521  16.647  0.00  0.00    +0.000 A 
ENDBRANCH  14  15
ENDBRANCH   4  13
TORSDOF 4
ENDMDL
MODEL 7
REMARK VINA RESULT:      -6.3      1.665      5.012
REMARK  Name = 
REMARK  4 active torsions:
REMARK  status: ('A' for Active; 'I' for Inactive)
REMARK    1  A    between atoms: N_1  and  C_2
REMARK    2  A    between atoms: C_5  and  N_6
REMARK    3  A    between atoms: N_7  and  C_8
REMARK    4  A    between atoms: C_14  and  N_15
REMARK                            x       y       z     vdW  Elec       q    Type
REMARK                         _______ _______ _______ _____ _____    ______ ____
ROOT
ATOM      1  C   UNL     1       2.109   2.671  18.947  0.00  0.00    +0.000 A 
ATOM      2  C   UNL     1       3.337   2.015  18.866  0.00  0.00    +0.000 A 
ATOM      3  C   UNL     1       4.529   2.684  19.169  0.00  0.00    +0.000 A 
ATOM      4  C   UNL     1       4.520   4.033  19.548  0.00  0.00    +0.000 A 
ATOM      5  C   UNL     1       3.286   4.726  19.539  0.00  0.00    +0.000 A 
ATOM      6  C   UNL     1       2.098   4.033  19.264  0.00  0.00    +0.000 A 
ENDROOT
BRANCH   1   7
ATOM      7  N   UNL     1       0.942   2.044  18.494  0.00  0.00    +0.000 N 
ATOM      8  H   UNL     1       0.084   2.500  18.787  0.00  0.00    +0.000 HD
ATOM      9  H   UNL     1       0.946   1.825  17.503  0.00  0.00    +0.000 HD
ENDBRANCH   1   7
BRANCH   5  10
ATOM     10  N   UNL     1       3.205   6.065  19.992  0.00  0.00    +0.000 N 
ATOM     11  H   UNL     1       4.086   6.365  20.413  0.00  0.00    +0.000 HD
ATOM     12  H   UNL     1       2.874   6.709  19.283  0.00  0.00    +0.000 HD
ENDBRANCH   5  10
BRANCH   4  13
ATOM     13  N   UNL     1       5.697   4.787  19.774  0.00  0.00    +0.000 NA
ATOM     14  N   UNL     1       6.178   5.572  18.926  0.00  0.00    +0.000 NA
BRANCH  14  15
ATOM     15  C   UNL     1       6.102   5.341  17.538  0.00  0.00    +0.000 A 
ATOM     16  C   UNL     1       5.278   6.198  16.791  0.00  0.00    +0.000 A 
ATOM     17  C   UNL     1       5.198   6.099  15.401  0.00  0.00    +0.000 A 
ATOM     18  C   UNL     1       5.944   5.131  14.735  0.00  0.00    +0.000 A 
ATOM     19  C   UNL     1       6.780   4.281  15.455  0.00  0.00    +0.000 A 
ATOM     20  C   UNL     1       6.875   4.400  16.847  0.00  0.00    +0.000 A 
ENDBRANCH  14  15
ENDBRANCH   4  13
TORSDOF 4
ENDMDL
MODEL 8
REMARK VINA RESULT:      -6.3      1.587      4.675
REMARK  Name = 
REMARK  4 active torsions:
REMARK  status: ('A' for Active; 'I' for Inactive)
REMARK    1  A    between atoms: N_1  and  C_2
REMARK    2  A    between atoms: C_5  and  N_6
REMARK    3  A    between atoms: N_7  and  C_8
REMARK    4  A    between atoms: C_14  and  N_15
REMARK                            x       y       z     vdW  Elec       q    Type
REMARK                         _______ _______ _______ _____ _____    ______ ____
ROOT
ATOM      1  C   UNL     1       1.659   2.698  18.542  0.00  0.00    +0.000 A 
ATOM      2  C   UNL     1       1.526   4.078  18.394  0.00  0.00    +0.000 A 
ATOM      3  C   UNL     1       2.597   4.936  18.674  0.00  0.00    +0.000 A 
ATOM      4  C   UNL     1       3.824   4.431  19.122  0.00  0.00    +0.000 A 
ATOM      5  C   UNL     1       3.931   3.040  19.363  0.00  0.00    +0.000 A 
ATOM      6  C   UNL     1       2.860   2.192  19.048  0.00  0.00    +0.000 A 
ENDROOT
BRANCH   1   7
ATOM      7  N   UNL     1       0.542   1.864  18.411  0.00  0.00    +0.000 N 
ATOM      8  H   UNL     1      -0.272   2.318  18.007  0.00  0.00    +0.000 HD
ATOM      9  H   UNL     1       0.741   0.968  17.978  0.00  0.00    +0.000 HD
ENDBRANCH   1   7
BRANCH   5  10
ATOM     10  N   UNL     1       5.170   2.464  19.736  0.00  0.00    +0.000 N 
ATOM     11  H   UNL     1       5.236   2.356  20.749  0.00  0.00    +0.000 HD
ATOM     12  H   UNL     1       5.378   1.606  19.239  0.00  0.00    +0.000 HD
ENDBRANCH   5  10
BRANCH   4  13
ATOM     13  N   UNL     1       4.911   5.252  19.511  0.00  0.00    +0.000 NA
ATOM     14  N   UNL     1       5.554   5.960  18.704  0.00  0.00    +0.000 NA
BRANCH  14  15
ATOM     15  C   UNL     1       5.789   5.580  17.368  0.00  0.00    +0.000 A 
ATOM     16  C   UNL     1       6.763   4.593  17.146  0.00  0.00    +0.000 A 
ATOM     17  C   UNL     1       7.013   4.094  15.866  0.00  0.00    +0.000 A 
ATOM     18  C   UNL     1       6.290   4.584  14.782  0.00  0.00    +0.000 A 
ATOM     19  C   UNL     1       5.308   5.552  14.983  0.00  0.00    +0.000 A 
ATOM     20  C   UNL     1       5.045   6.031  16.271  0.00  0.00    +0.000 A 
ENDBRANCH  14  15
ENDBRANCH   4  13
TORSDOF 4
ENDMDL
MODEL 9
REMARK VINA RESULT:      -6.3      1.614      2.088
REMARK  Name = 
REMARK  4 active torsions:
REMARK  status: ('A' for Active; 'I' for Inactive)
REMARK    1  A    between atoms: N_1  and  C_2
REMARK    2  A    between atoms: C_5  and  N_6
REMARK    3  A    between atoms: N_7  and  C_8
REMARK    4  A    between atoms: C_14  and  N_15
REMARK                            x       y       z     vdW  Elec       q    Type
REMARK                         _______ _______ _______ _____ _____    ______ ____
ROOT
ATOM      1  C   UNL     1       5.271   6.487  16.332  0.00  0.00    +0.000 A 
ATOM      2  C   UNL     1       4.296   6.548  17.326  0.00  0.00    +0.000 A 
ATOM      3  C   UNL     1       4.442   5.829  18.519  0.00  0.00    +0.000 A 
ATOM      4  C   UNL     1       5.564   5.020  18.737  0.00  0.00    +0.000 A 
ATOM      5  C   UNL     1       6.508   4.882  17.691  0.00  0.00    +0.000 A 
ATOM      6  C   UNL     1       6.363   5.634  16.516  0.00  0.00    +0.000 A 
ENDROOT
BRANCH   1   7
ATOM      7  N   UNL     1       5.044   7.082  15.084  0.00  0.00    +0.000 N 
ATOM      8  H   UNL     1       4.607   6.468  14.404  0.00  0.00    +0.000 HD
ATOM      9  H   UNL     1       4.593   7.990  15.132  0.00  0.00    +0.000 HD
ENDBRANCH   1   7
BRANCH   5  10
ATOM     10  N   UNL     1       7.702   4.145  17.886  0.00  0.00    +0.000 N 
ATOM     11  H   UNL     1       8.323   4.617  18.545  0.00  0.00    +0.000 HD
ATOM     12  H   UNL     1       7.538   3.176  18.131  0.00  0.00    +0.000 HD
ENDBRANCH   5  10
BRANCH   4  13
ATOM     13  N   UNL     1       5.723   4.197  19.879  0.00  0.00    +0.000 NA
ATOM     14  N   UNL     1       5.159   3.087  20.004  0.00  0.00    +0.000 NA
BRANCH  14  15
ATOM     15  C   UNL     1       3.880   2.813  19.479  0.00  0.00    +0.000 A 
ATOM     16  C   UNL     1       2.777   3.136  20.285  0.00  0.00    +0.000 A 
ATOM     17  C   UNL     1       1.469   2.974  19.823  0.00  0.00    +0.000 A 
ATOM     18  C   UNL     1       1.247   2.479  18.541  0.00  0.00    +0.000 A 
ATOM     19  C   UNL     1       2.328   2.168  17.720  0.00  0.00    +0.000 A 
ATOM     20  C   UNL     1       3.637   2.355  18.179  0.00  0.00    +0.000 A 
ENDBRANCH  14  15
ENDBRANCH   4  13
TORSDOF 4
ENDMDL
