MODEL 1
REMARK VINA RESULT:      -8.7      0.000      0.000
REMARK  Name = 
REMARK  9 active torsions:
REMARK  status: ('A' for Active; 'I' for Inactive)
REMARK    1  A    between atoms: C_1  and  O_2
REMARK    2  A    between atoms: O_2  and  C_3
REMARK    3  A    between atoms: C_6  and  S_7
REMARK    4  A    between atoms: S_7  and  N_10
REMARK    5  A    between atoms: C_17  and  N_18
REMARK    6  A    between atoms: C_19  and  C_21
REMARK    7  A    between atoms: C_21  and  N_22
REMARK    8  A    between atoms: N_22  and  C_23
REMARK    9  A    between atoms: C_28  and  N_29
REMARK                            x       y       z     vdW  Elec       q    Type
REMARK                         _______ _______ _______ _____ _____    ______ ____
ROOT
ATOM      1  N   UNL     1       0.672   9.086  18.284  0.00  0.00    +0.000 N 
ATOM      2  C   UNL     1       1.956   9.500  17.951  0.00  0.00    +0.000 C 
ATOM      3  O   UNL     1       2.331  10.669  17.942  0.00  0.00    +0.000 OA
ATOM      4  H   UNL     1       0.520   8.106  18.489  0.00  0.00    +0.000 HD
ENDROOT
BRANCH   1  10
ATOM      5  C   UNL     1      -1.386  10.444  17.963  0.00  0.00    +0.000 A 
ATOM      6  C   UNL     1      -2.249  11.405  18.512  0.00  0.00    +0.000 A 
ATOM      7  C   UNL     1      -2.038  11.929  19.789  0.00  0.00    +0.000 A 
ATOM      8  C   UNL     1      -0.979  11.452  20.564  0.00  0.00    +0.000 A 
ATOM      9  C   UNL     1      -0.104  10.497  20.034  0.00  0.00    +0.000 A 
ATOM     10  C   UNL     1      -0.305   9.982  18.744  0.00  0.00    +0.000 A 
BRANCH   8  11
ATOM     11  S   UNL     1      -0.658  12.183  22.165  0.00  0.00    +0.000 S 
ATOM     12  O   UNL     1      -0.437  11.091  23.093  0.00  0.00    +0.000 OA
ATOM     13  O   UNL     1       0.344  13.207  21.965  0.00  0.00    +0.000 OA
BRANCH  11  14
ATOM     14  N   UNL     1      -2.134  12.955  22.585  0.00  0.00    +0.000 NA
ATOM     15  C   UNL     1      -2.994  12.197  23.530  0.00  0.00    +0.000 C 
ATOM     16  C   UNL     1      -4.341  12.875  23.754  0.00  0.00    +0.000 C 
ATOM     17  C   UNL     1      -4.165  14.332  24.146  0.00  0.00    +0.000 C 
ATOM     18  C   UNL     1      -3.401  15.054  23.047  0.00  0.00    +0.000 C 
ATOM     19  C   UNL     1      -2.036  14.418  22.810  0.00  0.00    +0.000 C 
ENDBRANCH  11  14
ENDBRANCH   8  11
BRANCH   5  21
ATOM     20  C   UNL     1      -2.669  10.863  15.988  0.00  0.00    +0.000 C 
ATOM     21  O   UNL     1      -1.775  10.042  16.716  0.00  0.00    +0.000 OA
ENDBRANCH   5  21
ENDBRANCH   1  10
BRANCH   2  22
ATOM     22  C   UNL     1       2.865   8.336  17.517  0.00  0.00    +0.000 C 
BRANCH  22  23
ATOM     23  N   UNL     1       2.793   7.243  18.481  0.00  0.00    +0.000 N 
ATOM     24  H   UNL     1       3.077   7.444  19.436  0.00  0.00    +0.000 HD
BRANCH  23  25
ATOM     25  C   UNL     1       2.788   5.891  18.146  0.00  0.00    +0.000 A 
ATOM     26  C   UNL     1       1.586   5.157  18.153  0.00  0.00    +0.000 A 
ATOM     27  C   UNL     1       1.536   3.813  17.783  0.00  0.00    +0.000 A 
ATOM     28  C   UNL     1       2.697   3.157  17.415  0.00  0.00    +0.000 A 
ATOM     29  C   UNL     1       3.908   3.845  17.434  0.00  0.00    +0.000 A 
ATOM     30  C   UNL     1       3.989   5.201  17.812  0.00  0.00    +0.000 A 
BRANCH  30  31
ATOM     31  N   UNL     1       5.287   5.805  17.919  0.00  0.00    +0.000 N 
ATOM     32  C   UNL     1       6.232   5.376  18.927  0.00  0.00    +0.000 C 
ATOM     33  C   UNL     1       7.471   6.207  18.663  0.00  0.00    +0.000 C 
ATOM     34  C   UNL     1       7.435   6.452  17.170  0.00  0.00    +0.000 C 
ATOM     35  C   UNL     1       5.963   6.411  16.843  0.00  0.00    +0.000 C 
ATOM     36  O   UNL     1       5.511   6.821  15.784  0.00  0.00    +0.000 OA
ENDBRANCH  30  31
ENDBRANCH  23  25
ENDBRANCH  22  23
ENDBRANCH   2  22
TORSDOF 8
ENDMDL
MODEL 2
REMARK VINA RESULT:      -8.6      2.735      3.721
REMARK  Name = 
REMARK  9 active torsions:
REMARK  status: ('A' for Active; 'I' for Inactive)
REMARK    1  A    between atoms: C_1  and  O_2
REMARK    2  A    between atoms: O_2  and  C_3
REMARK    3  A    between atoms: C_6  and  S_7
REMARK    4  A    between atoms: S_7  and  N_10
REMARK    5  A    between atoms: C_17  and  N_18
REMARK    6  A    between atoms: C_19  and  C_21
REMARK    7  A    between atoms: C_21  and  N_22
REMARK    8  A    between atoms: N_22  and  C_23
REMARK    9  A    between atoms: C_28  and  N_29
REMARK                            x       y       z     vdW  Elec       q    Type
REMARK                         _______ _______ _______ _____ _____    ______ ____
ROOT
ATOM      1  N   UNL     1       0.816   9.434  19.496  0.00  0.00    +0.000 N 
ATOM      2  C   UNL     1       1.758   8.926  18.610  0.00  0.00    +0.000 C 
ATOM      3  O   UNL     1       2.083   9.463  17.554  0.00  0.00    +0.000 OA
ATOM      4  H   UNL     1       0.783   9.054  20.434  0.00  0.00    +0.000 HD
ENDROOT
BRANCH   1  10
ATOM      5  C   UNL     1      -0.804  10.935  18.353  0.00  0.00    +0.000 A 
ATOM      6  C   UNL     1      -1.272  12.248  18.199  0.00  0.00    +0.000 A 
ATOM      7  C   UNL     1      -0.734  13.304  18.939  0.00  0.00    +0.000 A 
ATOM      8  C   UNL     1       0.253  13.047  19.892  0.00  0.00    +0.000 A 
ATOM      9  C   UNL     1       0.736  11.744  20.058  0.00  0.00    +0.000 A 
ATOM     10  C   UNL     1       0.208  10.685  19.303  0.00  0.00    +0.000 A 
BRANCH   8  11
ATOM     11  S   UNL     1       1.001  14.408  20.778  0.00  0.00    +0.000 S 
ATOM     12  O   UNL     1      -0.037  15.398  20.991  0.00  0.00    +0.000 OA
ATOM     13  O   UNL     1       1.727  13.835  21.891  0.00  0.00    +0.000 OA
BRANCH  11  14
ATOM     14  N   UNL     1       2.145  15.058  19.673  0.00  0.00    +0.000 NA
ATOM     15  C   UNL     1       3.061  14.063  19.057  0.00  0.00    +0.000 C 
ATOM     16  C   UNL     1       4.130  14.722  18.194  0.00  0.00    +0.000 C 
ATOM     17  C   UNL     1       3.513  15.671  17.180  0.00  0.00    +0.000 C 
ATOM     18  C   UNL     1       2.717  16.736  17.917  0.00  0.00    +0.000 C 
ATOM     19  C   UNL     1       1.620  16.116  18.775  0.00  0.00    +0.000 C 
ENDBRANCH  11  14
ENDBRANCH   8  11
BRANCH   5  21
ATOM     20  C   UNL     1      -2.887  10.021  17.610  0.00  0.00    +0.000 C 
ATOM     21  O   UNL     1      -1.472  10.045  17.559  0.00  0.00    +0.000 OA
ENDBRANCH   5  21
ENDBRANCH   1  10
BRANCH   2  22
ATOM     22  C   UNL     1       2.319   7.562  19.051  0.00  0.00    +0.000 C 
BRANCH  22  23
ATOM     23  N   UNL     1       2.767   6.795  17.893  0.00  0.00    +0.000 N 
ATOM     24  H   UNL     1       2.642   7.218  16.977  0.00  0.00    +0.000 HD
BRANCH  23  25
ATOM     25  C   UNL     1       2.944   5.414  17.879  0.00  0.00    +0.000 A 
ATOM     26  C   UNL     1       1.833   4.550  17.919  0.00  0.00    +0.000 A 
ATOM     27  C   UNL     1       1.970   3.162  17.864  0.00  0.00    +0.000 A 
ATOM     28  C   UNL     1       3.231   2.598  17.788  0.00  0.00    +0.000 A 
ATOM     29  C   UNL     1       4.352   3.424  17.785  0.00  0.00    +0.000 A 
ATOM     30  C   UNL     1       4.243   4.828  17.848  0.00  0.00    +0.000 A 
BRANCH  30  31
ATOM     31  N   UNL     1       5.447   5.603  17.959  0.00  0.00    +0.000 N 
ATOM     32  C   UNL     1       6.500   5.225  18.876  0.00  0.00    +0.000 C 
ATOM     33  C   UNL     1       7.591   6.249  18.644  0.00  0.00    +0.000 C 
ATOM     34  C   UNL     1       7.435   6.625  17.186  0.00  0.00    +0.000 C 
ATOM     35  C   UNL     1       5.967   6.400  16.922  0.00  0.00    +0.000 C 
ATOM     36  O   UNL     1       5.401   6.836  15.930  0.00  0.00    +0.000 OA
ENDBRANCH  30  31
ENDBRANCH  23  25
ENDBRANCH  22  23
ENDBRANCH   2  22
TORSDOF 8
ENDMDL
MODEL 3
REMARK VINA RESULT:      -8.5      3.671     10.320
REMARK  Name = 
REMARK  9 active torsions:
REMARK  status: ('A' for Active; 'I' for Inactive)
REMARK    1  A    between atoms: C_1  and  O_2
REMARK    2  A    between atoms: O_2  and  C_3
REMARK    3  A    between atoms: C_6  and  S_7
REMARK    4  A    between atoms: S_7  and  N_10
REMARK    5  A    between atoms: C_17  and  N_18
REMARK    6  A    between atoms: C_19  and  C_21
REMARK    7  A    between atoms: C_21  and  N_22
REMARK    8  A    between atoms: N_22  and  C_23
REMARK    9  A    between atoms: C_28  and  N_29
REMARK                            x       y       z     vdW  Elec       q    Type
REMARK                         _______ _______ _______ _____ _____    ______ ____
ROOT
ATOM      1  N   UNL     1       2.474   7.199  18.268  0.00  0.00    +0.000 N 
ATOM      2  C   UNL     1       2.133   7.374  19.603  0.00  0.00    +0.000 C 
ATOM      3  O   UNL     1       2.281   6.525  20.479  0.00  0.00    +0.000 OA
ATOM      4  H   UNL     1       2.534   8.017  17.675  0.00  0.00    +0.000 HD
ENDROOT
BRANCH   1  10
ATOM      5  C   UNL     1       2.613   4.734  17.966  0.00  0.00    +0.000 A 
ATOM      6  C   UNL     1       3.397   3.653  17.538  0.00  0.00    +0.000 A 
ATOM      7  C   UNL     1       4.670   3.845  16.997  0.00  0.00    +0.000 A 
ATOM      8  C   UNL     1       5.159   5.141  16.825  0.00  0.00    +0.000 A 
ATOM      9  C   UNL     1       4.395   6.234  17.249  0.00  0.00    +0.000 A 
ATOM     10  C   UNL     1       3.122   6.041  17.809  0.00  0.00    +0.000 A 
BRANCH   8  11
ATOM     11  S   UNL     1       6.821   5.385  16.212  0.00  0.00    +0.000 S 
ATOM     12  O   UNL     1       7.137   6.789  16.389  0.00  0.00    +0.000 OA
ATOM     13  O   UNL     1       7.643   4.353  16.806  0.00  0.00    +0.000 OA
BRANCH  11  14
ATOM     14  N   UNL     1       6.704   5.069  14.527  0.00  0.00    +0.000 NA
ATOM     15  C   UNL     1       7.893   5.461  13.729  0.00  0.00    +0.000 C 
ATOM     16  C   UNL     1       7.670   5.276  12.232  0.00  0.00    +0.000 C 
ATOM     17  C   UNL     1       7.178   3.874  11.918  0.00  0.00    +0.000 C 
ATOM     18  C   UNL     1       5.880   3.623  12.668  0.00  0.00    +0.000 C 
ATOM     19  C   UNL     1       6.069   3.775  14.173  0.00  0.00    +0.000 C 
ENDBRANCH  11  14
ENDBRANCH   8  11
BRANCH   5  21
ATOM     20  C   UNL     1       1.343   3.288  19.386  0.00  0.00    +0.000 C 
ATOM     21  O   UNL     1       1.394   4.341  18.442  0.00  0.00    +0.000 OA
ENDBRANCH   5  21
ENDBRANCH   1  10
BRANCH   2  22
ATOM     22  C   UNL     1       1.473   8.738  19.878  0.00  0.00    +0.000 C 
BRANCH  22  23
ATOM     23  N   UNL     1       1.282   9.473  18.633  0.00  0.00    +0.000 N 
ATOM     24  H   UNL     1       2.113   9.697  18.091  0.00  0.00    +0.000 HD
BRANCH  23  25
ATOM     25  C   UNL     1       0.167  10.253  18.337  0.00  0.00    +0.000 A 
ATOM     26  C   UNL     1      -0.941   9.693  17.671  0.00  0.00    +0.000 A 
ATOM     27  C   UNL     1      -2.092  10.432  17.395  0.00  0.00    +0.000 A 
ATOM     28  C   UNL     1      -2.158  11.765  17.761  0.00  0.00    +0.000 A 
ATOM     29  C   UNL     1      -1.064  12.358  18.387  0.00  0.00    +0.000 A 
ATOM     30  C   UNL     1       0.114  11.638  18.670  0.00  0.00    +0.000 A 
BRANCH  30  31
ATOM     31  N   UNL     1       1.238  12.350  19.210  0.00  0.00    +0.000 N 
ATOM     32  C   UNL     1       1.917  13.370  18.442  0.00  0.00    +0.000 C 
ATOM     33  C   UNL     1       2.983  13.902  19.378  0.00  0.00    +0.000 C 
ATOM     34  C   UNL     1       2.379  13.730  20.754  0.00  0.00    +0.000 C 
ATOM     35  C   UNL     1       1.454  12.551  20.586  0.00  0.00    +0.000 C 
ATOM     36  O   UNL     1       0.980  11.944  21.535  0.00  0.00    +0.000 OA
ENDBRANCH  30  31
ENDBRANCH  23  25
ENDBRANCH  22  23
ENDBRANCH   2  22
TORSDOF 8
ENDMDL
MODEL 4
REMARK VINA RESULT:      -8.5      1.579      2.658
REMARK  Name = 
REMARK  9 active torsions:
REMARK  status: ('A' for Active; 'I' for Inactive)
REMARK    1  A    between atoms: C_1  and  O_2
REMARK    2  A    between atoms: O_2  and  C_3
REMARK    3  A    between atoms: C_6  and  S_7
REMARK    4  A    between atoms: S_7  and  N_10
REMARK    5  A    between atoms: C_17  and  N_18
REMARK    6  A    between atoms: C_19  and  C_21
REMARK    7  A    between atoms: C_21  and  N_22
REMARK    8  A    between atoms: N_22  and  C_23
REMARK    9  A    between atoms: C_28  and  N_29
REMARK                            x       y       z     vdW  Elec       q    Type
REMARK                         _______ _______ _______ _____ _____    ______ ____
ROOT
ATOM      1  N   UNL     1       1.090   9.817  18.005  0.00  0.00    +0.000 N 
ATOM      2  C   UNL     1       1.766   8.741  18.567  0.00  0.00    +0.000 C 
ATOM      3  O   UNL     1       1.499   8.241  19.656  0.00  0.00    +0.000 OA
ATOM      4  H   UNL     1       1.223  10.008  17.020  0.00  0.00    +0.000 HD
ENDROOT
BRANCH   1  10
ATOM      5  C   UNL     1      -1.295  10.520  17.960  0.00  0.00    +0.000 A 
ATOM      6  C   UNL     1      -2.332  11.175  18.641  0.00  0.00    +0.000 A 
ATOM      7  C   UNL     1      -2.142  11.712  19.916  0.00  0.00    +0.000 A 
ATOM      8  C   UNL     1      -0.913  11.550  20.557  0.00  0.00    +0.000 A 
ATOM      9  C   UNL     1       0.137  10.903  19.894  0.00  0.00    +0.000 A 
ATOM     10  C   UNL     1      -0.048  10.379  18.605  0.00  0.00    +0.000 A 
BRANCH   8  11
ATOM     11  S   UNL     1      -0.642  12.309  22.153  0.00  0.00    +0.000 S 
ATOM     12  O   UNL     1      -0.450  11.234  23.107  0.00  0.00    +0.000 OA
ATOM     13  O   UNL     1       0.366  13.331  21.966  0.00  0.00    +0.000 OA
BRANCH  11  14
ATOM     14  N   UNL     1      -2.130  13.088  22.512  0.00  0.00    +0.000 NA
ATOM     15  C   UNL     1      -3.001  12.367  23.476  0.00  0.00    +0.000 C 
ATOM     16  C   UNL     1      -4.356  13.044  23.647  0.00  0.00    +0.000 C 
ATOM     17  C   UNL     1      -4.198  14.519  23.975  0.00  0.00    +0.000 C 
ATOM     18  C   UNL     1      -3.420  15.195  22.857  0.00  0.00    +0.000 C 
ATOM     19  C   UNL     1      -2.047  14.561  22.672  0.00  0.00    +0.000 C 
ENDBRANCH  11  14
ENDBRANCH   8  11
BRANCH   5  21
ATOM     20  C   UNL     1      -3.071   9.958  16.459  0.00  0.00    +0.000 C 
ATOM     21  O   UNL     1      -1.686  10.047  16.739  0.00  0.00    +0.000 OA
ENDBRANCH   5  21
ENDBRANCH   1  10
BRANCH   2  22
ATOM     22  C   UNL     1       2.953   8.267  17.709  0.00  0.00    +0.000 C 
BRANCH  22  23
ATOM     23  N   UNL     1       3.392   6.941  18.131  0.00  0.00    +0.000 N 
ATOM     24  H   UNL     1       3.489   6.778  19.130  0.00  0.00    +0.000 HD
BRANCH  23  25
ATOM     25  C   UNL     1       4.085   6.042  17.324  0.00  0.00    +0.000 A 
ATOM     26  C   UNL     1       4.883   6.504  16.260  0.00  0.00    +0.000 A 
ATOM     27  C   UNL     1       5.624   5.636  15.457  0.00  0.00    +0.000 A 
ATOM     28  C   UNL     1       5.568   4.272  15.684  0.00  0.00    +0.000 A 
ATOM     29  C   UNL     1       4.758   3.780  16.705  0.00  0.00    +0.000 A 
ATOM     30  C   UNL     1       3.993   4.634  17.526  0.00  0.00    +0.000 A 
BRANCH  30  31
ATOM     31  N   UNL     1       3.094   4.043  18.477  0.00  0.00    +0.000 N 
ATOM     32  C   UNL     1       3.440   3.952  19.878  0.00  0.00    +0.000 C 
ATOM     33  C   UNL     1       2.221   3.332  20.530  0.00  0.00    +0.000 C 
ATOM     34  C   UNL     1       1.068   3.806  19.673  0.00  0.00    +0.000 C 
ATOM     35  C   UNL     1       1.696   4.001  18.316  0.00  0.00    +0.000 C 
ATOM     36  O   UNL     1       1.036   4.131  17.296  0.00  0.00    +0.000 OA
ENDBRANCH  30  31
ENDBRANCH  23  25
ENDBRANCH  22  23
ENDBRANCH   2  22
TORSDOF 8
ENDMDL
MODEL 5
REMARK VINA RESULT:      -8.3      1.704      2.985
REMARK  Name = 
REMARK  9 active torsions:
REMARK  status: ('A' for Active; 'I' for Inactive)
REMARK    1  A    between atoms: C_1  and  O_2
REMARK    2  A    between atoms: O_2  and  C_3
REMARK    3  A    between atoms: C_6  and  S_7
REMARK    4  A    between atoms: S_7  and  N_10
REMARK    5  A    between atoms: C_17  and  N_18
REMARK    6  A    between atoms: C_19  and  C_21
REMARK    7  A    between atoms: C_21  and  N_22
REMARK    8  A    between atoms: N_22  and  C_23
REMARK    9  A    between atoms: C_28  and  N_29
REMARK                            x       y       z     vdW  Elec       q    Type
REMARK                         _______ _______ _______ _____ _____    ______ ____
ROOT
ATOM      1  N   UNL     1       0.565   9.967  17.822  0.00  0.00    +0.000 N 
ATOM      2  C   UNL     1       1.368   9.130  18.588  0.00  0.00    +0.000 C 
ATOM      3  O   UNL     1       1.263   8.983  19.803  0.00  0.00    +0.000 OA
ATOM      4  H   UNL     1       0.569   9.849  16.816  0.00  0.00    +0.000 HD
ENDROOT
BRANCH   1  10
ATOM      5  C   UNL     1      -1.844  10.583  17.873  0.00  0.00    +0.000 A 
ATOM      6  C   UNL     1      -2.830  11.392  18.456  0.00  0.00    +0.000 A 
ATOM      7  C   UNL     1      -2.524  12.287  19.483  0.00  0.00    +0.000 A 
ATOM      8  C   UNL     1      -1.222  12.345  19.983  0.00  0.00    +0.000 A 
ATOM      9  C   UNL     1      -0.222  11.550  19.413  0.00  0.00    +0.000 A 
ATOM     10  C   UNL     1      -0.524  10.662  18.369  0.00  0.00    +0.000 A 
BRANCH   8  11
ATOM     11  S   UNL     1      -0.811  13.550  21.239  0.00  0.00    +0.000 S 
ATOM     12  O   UNL     1       0.309  13.016  21.990  0.00  0.00    +0.000 OA
ATOM     13  O   UNL     1      -0.722  14.833  20.577  0.00  0.00    +0.000 OA
BRANCH  11  14
ATOM     14  N   UNL     1      -2.185  13.576  22.270  0.00  0.00    +0.000 NA
ATOM     15  C   UNL     1      -2.353  12.374  23.127  0.00  0.00    +0.000 C 
ATOM     16  C   UNL     1      -3.658  12.405  23.914  0.00  0.00    +0.000 C 
ATOM     17  C   UNL     1      -3.808  13.708  24.681  0.00  0.00    +0.000 C 
ATOM     18  C   UNL     1      -3.770  14.868  23.700  0.00  0.00    +0.000 C 
ATOM     19  C   UNL     1      -2.467  14.886  22.909  0.00  0.00    +0.000 C 
ENDBRANCH  11  14
ENDBRANCH   8  11
BRANCH   5  21
ATOM     20  C   UNL     1      -2.652  10.315  15.637  0.00  0.00    +0.000 C 
ATOM     21  O   UNL     1      -2.346   9.761  16.903  0.00  0.00    +0.000 OA
ENDBRANCH   5  21
ENDBRANCH   1  10
BRANCH   2  22
ATOM     22  C   UNL     1       2.471   8.441  17.765  0.00  0.00    +0.000 C 
BRANCH  22  23
ATOM     23  N   UNL     1       2.585   7.036  18.139  0.00  0.00    +0.000 N 
ATOM     24  H   UNL     1       2.142   6.746  19.007  0.00  0.00    +0.000 HD
BRANCH  23  25
ATOM     25  C   UNL     1       3.571   6.169  17.671  0.00  0.00    +0.000 A 
ATOM     26  C   UNL     1       4.645   6.656  16.902  0.00  0.00    +0.000 A 
ATOM     27  C   UNL     1       5.671   5.826  16.451  0.00  0.00    +0.000 A 
ATOM     28  C   UNL     1       5.640   4.473  16.742  0.00  0.00    +0.000 A 
ATOM     29  C   UNL     1       4.571   3.954  17.470  0.00  0.00    +0.000 A 
ATOM     30  C   UNL     1       3.517   4.769  17.930  0.00  0.00    +0.000 A 
BRANCH  30  31
ATOM     31  N   UNL     1       2.396   4.140  18.569  0.00  0.00    +0.000 N 
ATOM     32  C   UNL     1       1.853   2.893  18.074  0.00  0.00    +0.000 C 
ATOM     33  C   UNL     1       0.743   2.551  19.047  0.00  0.00    +0.000 C 
ATOM     34  C   UNL     1       1.209   3.146  20.357  0.00  0.00    +0.000 C 
ATOM     35  C   UNL     1       2.070   4.307  19.928  0.00  0.00    +0.000 C 
ATOM     36  O   UNL     1       2.419   5.190  20.699  0.00  0.00    +0.000 OA
ENDBRANCH  30  31
ENDBRANCH  23  25
ENDBRANCH  22  23
ENDBRANCH   2  22
TORSDOF 8
ENDMDL
MODEL 6
REMARK VINA RESULT:      -8.3      2.966      3.937
REMARK  Name = 
REMARK  9 active torsions:
REMARK  status: ('A' for Active; 'I' for Inactive)
REMARK    1  A    between atoms: C_1  and  O_2
REMARK    2  A    between atoms: O_2  and  C_3
REMARK    3  A    between atoms: C_6  and  S_7
REMARK    4  A    between atoms: S_7  and  N_10
REMARK    5  A    between atoms: C_17  and  N_18
REMARK    6  A    between atoms: C_19  and  C_21
REMARK    7  A    between atoms: C_21  and  N_22
REMARK    8  A    between atoms: N_22  and  C_23
REMARK    9  A    between atoms: C_28  and  N_29
REMARK                            x       y       z     vdW  Elec       q    Type
REMARK                         _______ _______ _______ _____ _____    ______ ____
ROOT
ATOM      1  N   UNL     1       1.268  10.157  18.141  0.00  0.00    +0.000 N 
ATOM      2  C   UNL     1       1.573   8.984  18.822  0.00  0.00    +0.000 C 
ATOM      3  O   UNL     1       1.217   8.732  19.970  0.00  0.00    +0.000 OA
ATOM      4  H   UNL     1       1.400  10.178  17.138  0.00  0.00    +0.000 HD
ENDROOT
BRANCH   1  10
ATOM      5  C   UNL     1      -0.972  11.177  18.496  0.00  0.00    +0.000 A 
ATOM      6  C   UNL     1      -1.692  12.259  19.025  0.00  0.00    +0.000 A 
ATOM      7  C   UNL     1      -1.051  13.301  19.697  0.00  0.00    +0.000 A 
ATOM      8  C   UNL     1       0.329  13.247  19.900  0.00  0.00    +0.000 A 
ATOM      9  C   UNL     1       1.067  12.178  19.377  0.00  0.00    +0.000 A 
ATOM     10  C   UNL     1       0.426  11.138  18.686  0.00  0.00    +0.000 A 
BRANCH   8  11
ATOM     11  S   UNL     1       1.161  14.621  20.686  0.00  0.00    +0.000 S 
ATOM     12  O   UNL     1       0.314  15.785  20.514  0.00  0.00    +0.000 OA
ATOM     13  O   UNL     1       1.557  14.173  22.004  0.00  0.00    +0.000 OA
BRANCH  11  14
ATOM     14  N   UNL     1       2.584  14.849  19.750  0.00  0.00    +0.000 NA
ATOM     15  C   UNL     1       2.389  15.595  18.480  0.00  0.00    +0.000 C 
ATOM     16  C   UNL     1       3.660  15.645  17.640  0.00  0.00    +0.000 C 
ATOM     17  C   UNL     1       4.839  16.151  18.454  0.00  0.00    +0.000 C 
ATOM     18  C   UNL     1       5.047  15.236  19.650  0.00  0.00    +0.000 C 
ATOM     19  C   UNL     1       3.803  15.180  20.529  0.00  0.00    +0.000 C 
ENDBRANCH  11  14
ENDBRANCH   8  11
BRANCH   5  21
ATOM     20  C   UNL     1      -3.122  10.606  17.616  0.00  0.00    +0.000 C 
ATOM     21  O   UNL     1      -1.780  10.252  17.897  0.00  0.00    +0.000 OA
ENDBRANCH   5  21
ENDBRANCH   1  10
BRANCH   2  22
ATOM     22  C   UNL     1       2.475   8.038  18.010  0.00  0.00    +0.000 C 
BRANCH  22  23
ATOM     23  N   UNL     1       2.866   6.887  18.816  0.00  0.00    +0.000 N 
ATOM     24  H   UNL     1       3.398   7.069  19.663  0.00  0.00    +0.000 HD
BRANCH  23  25
ATOM     25  C   UNL     1       2.960   5.581  18.339  0.00  0.00    +0.000 A 
ATOM     26  C   UNL     1       1.828   4.745  18.316  0.00  0.00    +0.000 A 
ATOM     27  C   UNL     1       1.874   3.447  17.807  0.00  0.00    +0.000 A 
ATOM     28  C   UNL     1       3.068   2.939  17.325  0.00  0.00    +0.000 A 
ATOM     29  C   UNL     1       4.216   3.728  17.369  0.00  0.00    +0.000 A 
ATOM     30  C   UNL     1       4.198   5.040  17.886  0.00  0.00    +0.000 A 
BRANCH  30  31
ATOM     31  N   UNL     1       5.444   5.744  18.005  0.00  0.00    +0.000 N 
ATOM     32  C   UNL     1       6.459   5.317  18.943  0.00  0.00    +0.000 C 
ATOM     33  C   UNL     1       7.613   6.272  18.713  0.00  0.00    +0.000 C 
ATOM     34  C   UNL     1       7.499   6.637  17.249  0.00  0.00    +0.000 C 
ATOM     35  C   UNL     1       6.025   6.495  16.966  0.00  0.00    +0.000 C 
ATOM     36  O   UNL     1       5.500   6.950  15.960  0.00  0.00    +0.000 OA
ENDBRANCH  30  31
ENDBRANCH  23  25
ENDBRANCH  22  23
ENDBRANCH   2  22
TORSDOF 8
ENDMDL
MODEL 7
REMARK VINA RESULT:      -8.3      2.959      3.800
REMARK  Name = 
REMARK  9 active torsions:
REMARK  status: ('A' for Active; 'I' for Inactive)
REMARK    1  A    between atoms: C_1  and  O_2
REMARK    2  A    between atoms: O_2  and  C_3
REMARK    3  A    between atoms: C_6  and  S_7
REMARK    4  A    between atoms: S_7  and  N_10
REMARK    5  A    between atoms: C_17  and  N_18
REMARK    6  A    between atoms: C_19  and  C_21
REMARK    7  A    between atoms: C_21  and  N_22
REMARK    8  A    between atoms: N_22  and  C_23
REMARK    9  A    between atoms: C_28  and  N_29
REMARK                            x       y       z     vdW  Elec       q    Type
REMARK                         _______ _______ _______ _____ _____    ______ ____
ROOT
ATOM      1  N   UNL     1       1.050   9.036  19.416  0.00  0.00    +0.000 N 
ATOM      2  C   UNL     1       1.978   8.535  18.511  0.00  0.00    +0.000 C 
ATOM      3  O   UNL     1       2.257   9.059  17.436  0.00  0.00    +0.000 OA
ATOM      4  H   UNL     1       1.056   8.673  20.361  0.00  0.00    +0.000 HD
ENDROOT
BRANCH   1  10
ATOM      5  C   UNL     1      -0.679  10.458  18.335  0.00  0.00    +0.000 A 
ATOM      6  C   UNL     1      -1.184  11.756  18.164  0.00  0.00    +0.000 A 
ATOM      7  C   UNL     1      -0.617  12.850  18.820  0.00  0.00    +0.000 A 
ATOM      8  C   UNL     1       0.441  12.650  19.708  0.00  0.00    +0.000 A 
ATOM      9  C   UNL     1       0.963  11.364  19.890  0.00  0.00    +0.000 A 
ATOM     10  C   UNL     1       0.404  10.266  19.219  0.00  0.00    +0.000 A 
BRANCH   8  11
ATOM     11  S   UNL     1       1.222  14.060  20.483  0.00  0.00    +0.000 S 
ATOM     12  O   UNL     1       0.181  14.798  21.172  0.00  0.00    +0.000 OA
ATOM     13  O   UNL     1       2.379  13.560  21.195  0.00  0.00    +0.000 OA
BRANCH  11  14
ATOM     14  N   UNL     1       1.778  15.015  19.168  0.00  0.00    +0.000 NA
ATOM     15  C   UNL     1       1.432  16.458  19.247  0.00  0.00    +0.000 C 
ATOM     16  C   UNL     1       1.837  17.218  17.989  0.00  0.00    +0.000 C 
ATOM     17  C   UNL     1       3.297  16.973  17.645  0.00  0.00    +0.000 C 
ATOM     18  C   UNL     1       3.516  15.484  17.440  0.00  0.00    +0.000 C 
ATOM     19  C   UNL     1       3.144  14.690  18.687  0.00  0.00    +0.000 C 
ENDBRANCH  11  14
ENDBRANCH   8  11
BRANCH   5  21
ATOM     20  C   UNL     1      -2.752   9.768  17.361  0.00  0.00    +0.000 C 
ATOM     21  O   UNL     1      -1.384   9.524  17.628  0.00  0.00    +0.000 OA
ENDBRANCH   5  21
ENDBRANCH   1  10
BRANCH   2  22
ATOM     22  C   UNL     1       2.588   7.195  18.960  0.00  0.00    +0.000 C 
BRANCH  22  23
ATOM     23  N   UNL     1       2.632   6.254  17.845  0.00  0.00    +0.000 N 
ATOM     24  H   UNL     1       2.365   6.604  16.928  0.00  0.00    +0.000 HD
BRANCH  23  25
ATOM     25  C   UNL     1       2.586   4.868  17.976  0.00  0.00    +0.000 A 
ATOM     26  C   UNL     1       1.378   4.220  18.297  0.00  0.00    +0.000 A 
ATOM     27  C   UNL     1       1.284   2.832  18.396  0.00  0.00    +0.000 A 
ATOM     28  C   UNL     1       2.408   2.050  18.195  0.00  0.00    +0.000 A 
ATOM     29  C   UNL     1       3.627   2.663  17.913  0.00  0.00    +0.000 A 
ATOM     30  C   UNL     1       3.752   4.064  17.816  0.00  0.00    +0.000 A 
BRANCH  30  31
ATOM     31  N   UNL     1       5.062   4.623  17.639  0.00  0.00    +0.000 N 
ATOM     32  C   UNL     1       5.948   4.828  18.765  0.00  0.00    +0.000 C 
ATOM     33  C   UNL     1       7.223   5.369  18.151  0.00  0.00    +0.000 C 
ATOM     34  C   UNL     1       7.261   4.740  16.775  0.00  0.00    +0.000 C 
ATOM     35  C   UNL     1       5.804   4.526  16.447  0.00  0.00    +0.000 C 
ATOM     36  O   UNL     1       5.412   4.276  15.316  0.00  0.00    +0.000 OA
ENDBRANCH  30  31
ENDBRANCH  23  25
ENDBRANCH  22  23
ENDBRANCH   2  22
TORSDOF 8
ENDMDL
MODEL 8
REMARK VINA RESULT:      -8.3      2.982      3.947
REMARK  Name = 
REMARK  9 active torsions:
REMARK  status: ('A' for Active; 'I' for Inactive)
REMARK    1  A    between atoms: C_1  and  O_2
REMARK    2  A    between atoms: O_2  and  C_3
REMARK    3  A    between atoms: C_6  and  S_7
REMARK    4  A    between atoms: S_7  and  N_10
REMARK    5  A    between atoms: C_17  and  N_18
REMARK    6  A    between atoms: C_19  and  C_21
REMARK    7  A    between atoms: C_21  and  N_22
REMARK    8  A    between atoms: N_22  and  C_23
REMARK    9  A    between atoms: C_28  and  N_29
REMARK                            x       y       z     vdW  Elec       q    Type
REMARK                         _______ _______ _______ _____ _____    ______ ____
ROOT
ATOM      1  N   UNL     1       0.939   9.254  19.429  0.00  0.00    +0.000 N 
ATOM      2  C   UNL     1       1.875   8.736  18.542  0.00  0.00    +0.000 C 
ATOM      3  O   UNL     1       2.149   9.229  17.451  0.00  0.00    +0.000 OA
ATOM      4  H   UNL     1       0.948   8.923  20.385  0.00  0.00    +0.000 HD
ENDROOT
BRANCH   1  10
ATOM      5  C   UNL     1      -0.761  10.634  18.250  0.00  0.00    +0.000 A 
ATOM      6  C   UNL     1      -1.285  11.919  18.045  0.00  0.00    +0.000 A 
ATOM      7  C   UNL     1      -0.777  13.028  18.725  0.00  0.00    +0.000 A 
ATOM      8  C   UNL     1       0.236  12.856  19.669  0.00  0.00    +0.000 A 
ATOM      9  C   UNL     1       0.775  11.582  19.885  0.00  0.00    +0.000 A 
ATOM     10  C   UNL     1       0.278  10.469  19.191  0.00  0.00    +0.000 A 
BRANCH   8  11
ATOM     11  S   UNL     1       0.944  14.285  20.477  0.00  0.00    +0.000 S 
ATOM     12  O   UNL     1      -0.109  15.277  20.585  0.00  0.00    +0.000 OA
ATOM     13  O   UNL     1       1.639  13.803  21.651  0.00  0.00    +0.000 OA
BRANCH  11  14
ATOM     14  N   UNL     1       2.117  14.866  19.364  0.00  0.00    +0.000 NA
ATOM     15  C   UNL     1       1.875  16.240  18.854  0.00  0.00    +0.000 C 
ATOM     16  C   UNL     1       2.875  16.640  17.776  0.00  0.00    +0.000 C 
ATOM     17  C   UNL     1       4.305  16.420  18.242  0.00  0.00    +0.000 C 
ATOM     18  C   UNL     1       4.491  14.955  18.600  0.00  0.00    +0.000 C 
ATOM     19  C   UNL     1       3.522  14.523  19.696  0.00  0.00    +0.000 C 
ENDBRANCH  11  14
ENDBRANCH   8  11
BRANCH   5  21
ATOM     20  C   UNL     1      -2.353  10.100  16.545  0.00  0.00    +0.000 C 
ATOM     21  O   UNL     1      -1.407   9.681  17.511  0.00  0.00    +0.000 OA
ENDBRANCH   5  21
ENDBRANCH   1  10
BRANCH   2  22
ATOM     22  C   UNL     1       2.501   7.419  19.034  0.00  0.00    +0.000 C 
BRANCH  22  23
ATOM     23  N   UNL     1       2.939   6.607  17.904  0.00  0.00    +0.000 N 
ATOM     24  H   UNL     1       2.963   7.053  16.990  0.00  0.00    +0.000 HD
BRANCH  23  25
ATOM     25  C   UNL     1       2.913   5.215  17.872  0.00  0.00    +0.000 A 
ATOM     26  C   UNL     1       1.711   4.516  18.095  0.00  0.00    +0.000 A 
ATOM     27  C   UNL     1       1.638   3.125  18.030  0.00  0.00    +0.000 A 
ATOM     28  C   UNL     1       2.778   2.388  17.760  0.00  0.00    +0.000 A 
ATOM     29  C   UNL     1       3.991   3.047  17.571  0.00  0.00    +0.000 A 
ATOM     30  C   UNL     1       4.094   4.452  17.640  0.00  0.00    +0.000 A 
BRANCH  30  31
ATOM     31  N   UNL     1       5.398   5.046  17.552  0.00  0.00    +0.000 N 
ATOM     32  C   UNL     1       5.767   5.881  16.430  0.00  0.00    +0.000 C 
ATOM     33  C   UNL     1       7.173   6.345  16.748  0.00  0.00    +0.000 C 
ATOM     34  C   UNL     1       7.208   6.394  18.260  0.00  0.00    +0.000 C 
ATOM     35  C   UNL     1       6.202   5.347  18.668  0.00  0.00    +0.000 C 
ATOM     36  O   UNL     1       6.131   4.908  19.806  0.00  0.00    +0.000 OA
ENDBRANCH  30  31
ENDBRANCH  23  25
ENDBRANCH  22  23
ENDBRANCH   2  22
TORSDOF 8
ENDMDL
MODEL 9
REMARK VINA RESULT:      -8.2      3.114      4.709
REMARK  Name = 
REMARK  9 active torsions:
REMARK  status: ('A' for Active; 'I' for Inactive)
REMARK    1  A    between atoms: C_1  and  O_2
REMARK    2  A    between atoms: O_2  and  C_3
REMARK    3  A    between atoms: C_6  and  S_7
REMARK    4  A    between atoms: S_7  and  N_10
REMARK    5  A    between atoms: C_17  and  N_18
REMARK    6  A    between atoms: C_19  and  C_21
REMARK    7  A    between atoms: C_21  and  N_22
REMARK    8  A    between atoms: N_22  and  C_23
REMARK    9  A    between atoms: C_28  and  N_29
REMARK                            x       y       z     vdW  Elec       q    Type
REMARK                         _______ _______ _______ _____ _____    ______ ____
ROOT
ATOM      1  N   UNL     1       0.780   9.503  19.513  0.00  0.00    +0.000 N 
ATOM      2  C   UNL     1       1.713   8.984  18.624  0.00  0.00    +0.000 C 
ATOM      3  O   UNL     1       2.031   9.509  17.560  0.00  0.00    +0.000 OA
ATOM      4  H   UNL     1       0.755   9.132  20.455  0.00  0.00    +0.000 HD
ENDROOT
BRANCH   1  10
ATOM      5  C   UNL     1      -0.837  10.998  18.358  0.00  0.00    +0.000 A 
ATOM      6  C   UNL     1      -1.303  12.311  18.198  0.00  0.00    +0.000 A 
ATOM      7  C   UNL     1      -0.768  13.370  18.934  0.00  0.00    +0.000 A 
ATOM      8  C   UNL     1       0.216  13.117  19.891  0.00  0.00    +0.000 A 
ATOM      9  C   UNL     1       0.699  11.815  20.064  0.00  0.00    +0.000 A 
ATOM     10  C   UNL     1       0.173  10.752  19.313  0.00  0.00    +0.000 A 
BRANCH   8  11
ATOM     11  S   UNL     1       0.962  14.482  20.773  0.00  0.00    +0.000 S 
ATOM     12  O   UNL     1      -0.072  15.481  20.963  0.00  0.00    +0.000 OA
ATOM     13  O   UNL     1       1.670  13.916  21.902  0.00  0.00    +0.000 OA
BRANCH  11  14
ATOM     14  N   UNL     1       2.125  15.113  19.677  0.00  0.00    +0.000 NA
ATOM     15  C   UNL     1       3.036  14.106  19.077  0.00  0.00    +0.000 C 
ATOM     16  C   UNL     1       4.122  14.748  18.221  0.00  0.00    +0.000 C 
ATOM     17  C   UNL     1       3.526  15.697  17.196  0.00  0.00    +0.000 C 
ATOM     18  C   UNL     1       2.734  16.775  17.918  0.00  0.00    +0.000 C 
ATOM     19  C   UNL     1       1.621  16.172  18.767  0.00  0.00    +0.000 C 
ENDBRANCH  11  14
ENDBRANCH   8  11
BRANCH   5  21
ATOM     20  C   UNL     1      -2.907   9.997  17.701  0.00  0.00    +0.000 C 
ATOM     21  O   UNL     1      -1.503  10.105  17.566  0.00  0.00    +0.000 OA
ENDBRANCH   5  21
ENDBRANCH   1  10
BRANCH   2  22
ATOM     22  C   UNL     1       2.276   7.623  19.073  0.00  0.00    +0.000 C 
BRANCH  22  23
ATOM     23  N   UNL     1       2.729   6.851  17.921  0.00  0.00    +0.000 N 
ATOM     24  H   UNL     1       2.038   6.622  17.212  0.00  0.00    +0.000 HD
BRANCH  23  25
ATOM     25  C   UNL     1       3.870   6.053  17.902  0.00  0.00    +0.000 A 
ATOM     26  C   UNL     1       5.083   6.550  17.388  0.00  0.00    +0.000 A 
ATOM     27  C   UNL     1       6.256   5.794  17.391  0.00  0.00    +0.000 A 
ATOM     28  C   UNL     1       6.242   4.504  17.892  0.00  0.00    +0.000 A 
ATOM     29  C   UNL     1       5.048   3.970  18.374  0.00  0.00    +0.000 A 
ATOM     30  C   UNL     1       3.848   4.708  18.375  0.00  0.00    +0.000 A 
BRANCH  30  31
ATOM     31  N   UNL     1       2.639   4.047  18.777  0.00  0.00    +0.000 N 
ATOM     32  C   UNL     1       2.118   2.919  18.036  0.00  0.00    +0.000 C 
ATOM     33  C   UNL     1       0.890   2.489  18.811  0.00  0.00    +0.000 C 
ATOM     34  C   UNL     1       1.216   2.855  20.243  0.00  0.00    +0.000 C 
ATOM     35  C   UNL     1       2.160   4.023  20.101  0.00  0.00    +0.000 C 
ATOM     36  O   UNL     1       2.443   4.759  21.034  0.00  0.00    +0.000 OA
ENDBRANCH  30  31
ENDBRANCH  23  25
ENDBRANCH  22  23
ENDBRANCH   2  22
TORSDOF 8
ENDMDL
