MODEL 1
REMARK VINA RESULT:      -6.7      0.000      0.000
REMARK  Name = 
REMARK  9 active torsions:
REMARK  status: ('A' for Active; 'I' for Inactive)
REMARK    1  A    between atoms: C_1  and  N_2
REMARK    2  A    between atoms: N_2  and  C_3
REMARK    3  A    between atoms: N_2  and  C_13
REMARK    4  A    between atoms: C_3  and  C_4
REMARK    5  A    between atoms: C_8  and  C_9
REMARK    6  A    between atoms: C_9  and  C_10
REMARK    7  A    between atoms: C_9  and  C_11
REMARK    8  A    between atoms: C_9  and  C_12
REMARK    9  A    between atoms: C_17  and  O_18
REMARK                            x       y       z     vdW  Elec       q    Type
REMARK                         _______ _______ _______ _____ _____    ______ ____
ROOT
ATOM      1  C   UNL     1       3.483   5.462  17.788  0.00  0.00    +0.000 C 
ENDROOT
BRANCH   1   2
ATOM      2  C   UNL     1       2.761   5.689  19.105  0.00  0.00    +0.000 A 
ATOM      3  C   UNL     1       2.459   6.946  19.611  0.00  0.00    +0.000 A 
ATOM      4  N   UNL     1       1.735   6.766  20.740  0.00  0.00    +0.000 N 
ATOM      5  N   UNL     1       1.540   5.488  21.044  0.00  0.00    +0.000 NA
ATOM      6  C   UNL     1       2.162   4.785  20.072  0.00  0.00    +0.000 A 
ATOM      7  H   UNL     1       1.329   7.468  21.351  0.00  0.00    +0.000 HD
BRANCH   6   8
ATOM      8  C   UNL     1       2.071   3.256  20.226  0.00  0.00    +0.000 C 
ATOM      9  C   UNL     1       1.313   2.629  19.027  0.00  0.00    +0.000 C 
ATOM     10  C   UNL     1       3.428   2.554  20.351  0.00  0.00    +0.000 C 
ATOM     11  C   UNL     1       1.259   2.901  21.505  0.00  0.00    +0.000 C 
ENDBRANCH   6   8
ENDBRANCH   1   2
BRANCH   1  13
ATOM     12  C   UNL     1       4.254   3.404  16.790  0.00  0.00    +0.000 C 
ATOM     13  N   UNL     1       4.520   4.386  17.867  0.00  0.00    +0.000 NA
BRANCH  13  14
ATOM     14  C   UNL     1       5.919   4.909  17.678  0.00  0.00    +0.000 C 
ATOM     15  C   UNL     1       5.961   6.400  17.259  0.00  0.00    +0.000 C 
ATOM     16  O   UNL     1       6.420   6.532  15.911  0.00  0.00    +0.000 OA
ATOM     17  C   UNL     1       6.938   5.280  15.467  0.00  0.00    +0.000 C 
ATOM     18  C   UNL     1       6.858   4.293  16.624  0.00  0.00    +0.000 C 
BRANCH  18  19
ATOM     19  O   UNL     1       8.163   4.134  17.210  0.00  0.00    +0.000 OA
ATOM     20  H   UNL     1       8.161   4.577  18.082  0.00  0.00    +0.000 HD
ENDBRANCH  18  19
ENDBRANCH  13  14
ENDBRANCH   1  13
TORSDOF 5
ENDMDL
MODEL 2
REMARK VINA RESULT:      -6.7      0.526      1.136
REMARK  Name = 
REMARK  9 active torsions:
REMARK  status: ('A' for Active; 'I' for Inactive)
REMARK    1  A    between atoms: C_1  and  N_2
REMARK    2  A    between atoms: N_2  and  C_3
REMARK    3  A    between atoms: N_2  and  C_13
REMARK    4  A    between atoms: C_3  and  C_4
REMARK    5  A    between atoms: C_8  and  C_9
REMARK    6  A    between atoms: C_9  and  C_10
REMARK    7  A    between atoms: C_9  and  C_11
REMARK    8  A    between atoms: C_9  and  C_12
REMARK    9  A    between atoms: C_17  and  O_18
REMARK                            x       y       z     vdW  Elec       q    Type
REMARK                         _______ _______ _______ _____ _____    ______ ____
ROOT
ATOM      1  C   UNL     1       3.281   5.232  17.690  0.00  0.00    +0.000 C 
ENDROOT
BRANCH   1   2
ATOM      2  C   UNL     1       2.685   5.539  19.054  0.00  0.00    +0.000 A 
ATOM      3  C   UNL     1       2.461   6.825  19.524  0.00  0.00    +0.000 A 
ATOM      4  N   UNL     1       1.836   6.715  20.720  0.00  0.00    +0.000 N 
ATOM      5  N   UNL     1       1.638   5.458  21.099  0.00  0.00    +0.000 NA
ATOM      6  C   UNL     1       2.154   4.696  20.110  0.00  0.00    +0.000 A 
ATOM      7  H   UNL     1       1.503   7.456  21.331  0.00  0.00    +0.000 HD
BRANCH   6   8
ATOM      8  C   UNL     1       2.039   3.179  20.344  0.00  0.00    +0.000 C 
ATOM      9  C   UNL     1       3.445   2.525  20.393  0.00  0.00    +0.000 C 
ATOM     10  C   UNL     1       1.291   2.793  21.625  0.00  0.00    +0.000 C 
ATOM     11  C   UNL     1       1.278   2.516  19.159  0.00  0.00    +0.000 C 
ENDBRANCH   6   8
ENDBRANCH   1   2
BRANCH   1  13
ATOM     12  C   UNL     1       4.237   3.135  16.973  0.00  0.00    +0.000 C 
ATOM     13  N   UNL     1       4.495   4.361  17.764  0.00  0.00    +0.000 NA
BRANCH  13  14
ATOM     14  C   UNL     1       5.724   5.022  17.198  0.00  0.00    +0.000 C 
ATOM     15  C   UNL     1       5.425   6.381  16.516  0.00  0.00    +0.000 C 
ATOM     16  O   UNL     1       5.612   6.284  15.101  0.00  0.00    +0.000 OA
ATOM     17  C   UNL     1       6.261   5.052  14.796  0.00  0.00    +0.000 C 
ATOM     18  C   UNL     1       6.560   4.334  16.105  0.00  0.00    +0.000 C 
BRANCH  18  19
ATOM     19  O   UNL     1       7.955   4.488  16.429  0.00  0.00    +0.000 OA
ATOM     20  H   UNL     1       8.420   4.805  15.629  0.00  0.00    +0.000 HD
ENDBRANCH  18  19
ENDBRANCH  13  14
ENDBRANCH   1  13
TORSDOF 5
ENDMDL
MODEL 3
REMARK VINA RESULT:      -6.7      2.002      2.968
REMARK  Name = 
REMARK  9 active torsions:
REMARK  status: ('A' for Active; 'I' for Inactive)
REMARK    1  A    between atoms: C_1  and  N_2
REMARK    2  A    between atoms: N_2  and  C_3
REMARK    3  A    between atoms: N_2  and  C_13
REMARK    4  A    between atoms: C_3  and  C_4
REMARK    5  A    between atoms: C_8  and  C_9
REMARK    6  A    between atoms: C_9  and  C_10
REMARK    7  A    between atoms: C_9  and  C_11
REMARK    8  A    between atoms: C_9  and  C_12
REMARK    9  A    between atoms: C_17  and  O_18
REMARK                            x       y       z     vdW  Elec       q    Type
REMARK                         _______ _______ _______ _____ _____    ______ ____
ROOT
ATOM      1  C   UNL     1       4.465   5.282  18.494  0.00  0.00    +0.000 C 
ENDROOT
BRANCH   1   2
ATOM      2  C   UNL     1       3.905   3.870  18.465  0.00  0.00    +0.000 A 
ATOM      3  C   UNL     1       4.371   2.874  17.618  0.00  0.00    +0.000 A 
ATOM      4  N   UNL     1       3.715   1.733  17.935  0.00  0.00    +0.000 N 
ATOM      5  N   UNL     1       2.832   1.886  18.915  0.00  0.00    +0.000 NA
ATOM      6  C   UNL     1       2.905   3.188  19.268  0.00  0.00    +0.000 A 
ATOM      7  H   UNL     1       3.824   0.807  17.533  0.00  0.00    +0.000 HD
BRANCH   6   8
ATOM      8  C   UNL     1       1.948   3.600  20.402  0.00  0.00    +0.000 C 
ATOM      9  C   UNL     1       2.304   2.857  21.716  0.00  0.00    +0.000 C 
ATOM     10  C   UNL     1       1.931   5.105  20.697  0.00  0.00    +0.000 C 
ATOM     11  C   UNL     1       0.490   3.195  20.038  0.00  0.00    +0.000 C 
ENDBRANCH   6   8
ENDBRANCH   1   2
BRANCH   1  13
ATOM     12  C   UNL     1       3.671   7.367  17.573  0.00  0.00    +0.000 C 
ATOM     13  N   UNL     1       4.219   6.035  17.225  0.00  0.00    +0.000 NA
BRANCH  13  14
ATOM     14  C   UNL     1       5.473   6.249  16.420  0.00  0.00    +0.000 C 
ATOM     15  C   UNL     1       5.541   5.364  15.150  0.00  0.00    +0.000 C 
ATOM     16  O   UNL     1       6.565   4.374  15.282  0.00  0.00    +0.000 OA
ATOM     17  C   UNL     1       7.367   4.676  16.421  0.00  0.00    +0.000 C 
ATOM     18  C   UNL     1       6.860   5.976  17.030  0.00  0.00    +0.000 C 
BRANCH  18  19
ATOM     19  O   UNL     1       7.742   7.054  16.663  0.00  0.00    +0.000 OA
ATOM     20  H   UNL     1       8.624   6.676  16.477  0.00  0.00    +0.000 HD
ENDBRANCH  18  19
ENDBRANCH  13  14
ENDBRANCH   1  13
TORSDOF 5
ENDMDL
MODEL 4
REMARK VINA RESULT:      -6.7      2.069      2.895
REMARK  Name = 
REMARK  9 active torsions:
REMARK  status: ('A' for Active; 'I' for Inactive)
REMARK    1  A    between atoms: C_1  and  N_2
REMARK    2  A    between atoms: N_2  and  C_3
REMARK    3  A    between atoms: N_2  and  C_13
REMARK    4  A    between atoms: C_3  and  C_4
REMARK    5  A    between atoms: C_8  and  C_9
REMARK    6  A    between atoms: C_9  and  C_10
REMARK    7  A    between atoms: C_9  and  C_11
REMARK    8  A    between atoms: C_9  and  C_12
REMARK    9  A    between atoms: C_17  and  O_18
REMARK                            x       y       z     vdW  Elec       q    Type
REMARK                         _______ _______ _______ _____ _____    ______ ____
ROOT
ATOM      1  C   UNL     1       4.482   5.686  18.913  0.00  0.00    +0.000 C 
ENDROOT
BRANCH   1   2
ATOM      2  C   UNL     1       4.292   4.195  19.138  0.00  0.00    +0.000 A 
ATOM      3  C   UNL     1       5.331   3.323  19.430  0.00  0.00    +0.000 A 
ATOM      4  N   UNL     1       4.786   2.106  19.661  0.00  0.00    +0.000 N 
ATOM      5  N   UNL     1       3.464   2.086  19.531  0.00  0.00    +0.000 NA
ATOM      6  C   UNL     1       3.114   3.348  19.198  0.00  0.00    +0.000 A 
ATOM      7  H   UNL     1       5.251   1.242  19.925  0.00  0.00    +0.000 HD
BRANCH   6   8
ATOM      8  C   UNL     1       1.604   3.560  18.986  0.00  0.00    +0.000 C 
ATOM      9  C   UNL     1       1.342   4.386  17.699  0.00  0.00    +0.000 C 
ATOM     10  C   UNL     1       0.793   2.263  18.892  0.00  0.00    +0.000 C 
ATOM     11  C   UNL     1       1.013   4.378  20.171  0.00  0.00    +0.000 C 
ENDBRANCH   6   8
ENDBRANCH   1   2
BRANCH   1  13
ATOM     12  C   UNL     1       3.576   7.457  17.545  0.00  0.00    +0.000 C 
ATOM     13  N   UNL     1       4.188   6.108  17.508  0.00  0.00    +0.000 NA
BRANCH  13  14
ATOM     14  C   UNL     1       5.424   6.187  16.652  0.00  0.00    +0.000 C 
ATOM     15  C   UNL     1       5.483   5.086  15.564  0.00  0.00    +0.000 C 
ATOM     16  O   UNL     1       6.526   4.150  15.852  0.00  0.00    +0.000 OA
ATOM     17  C   UNL     1       7.343   4.665  16.900  0.00  0.00    +0.000 C 
ATOM     18  C   UNL     1       6.826   6.048  17.272  0.00  0.00    +0.000 C 
BRANCH  18  19
ATOM     19  O   UNL     1       7.684   7.052  16.696  0.00  0.00    +0.000 OA
ATOM     20  H   UNL     1       8.406   6.598  16.219  0.00  0.00    +0.000 HD
ENDBRANCH  18  19
ENDBRANCH  13  14
ENDBRANCH   1  13
TORSDOF 5
ENDMDL
MODEL 5
REMARK VINA RESULT:      -6.6      3.151      5.556
REMARK  Name = 
REMARK  9 active torsions:
REMARK  status: ('A' for Active; 'I' for Inactive)
REMARK    1  A    between atoms: C_1  and  N_2
REMARK    2  A    between atoms: N_2  and  C_3
REMARK    3  A    between atoms: N_2  and  C_13
REMARK    4  A    between atoms: C_3  and  C_4
REMARK    5  A    between atoms: C_8  and  C_9
REMARK    6  A    between atoms: C_9  and  C_10
REMARK    7  A    between atoms: C_9  and  C_11
REMARK    8  A    between atoms: C_9  and  C_12
REMARK    9  A    between atoms: C_17  and  O_18
REMARK                            x       y       z     vdW  Elec       q    Type
REMARK                         _______ _______ _______ _____ _____    ______ ____
ROOT
ATOM      1  C   UNL     1       4.519   3.451  18.867  0.00  0.00    +0.000 C 
ENDROOT
BRANCH   1   2
ATOM      2  C   UNL     1       4.466   4.838  18.250  0.00  0.00    +0.000 A 
ATOM      3  C   UNL     1       3.286   5.493  17.928  0.00  0.00    +0.000 A 
ATOM      4  N   UNL     1       3.615   6.732  17.495  0.00  0.00    +0.000 N 
ATOM      5  N   UNL     1       4.923   6.958  17.485  0.00  0.00    +0.000 NA
ATOM      6  C   UNL     1       5.491   5.817  17.932  0.00  0.00    +0.000 A 
ATOM      7  H   UNL     1       2.999   7.485  17.201  0.00  0.00    +0.000 HD
BRANCH   6   8
ATOM      8  C   UNL     1       7.029   5.848  17.997  0.00  0.00    +0.000 C 
ATOM      9  C   UNL     1       7.578   7.155  17.366  0.00  0.00    +0.000 C 
ATOM     10  C   UNL     1       7.602   5.729  19.414  0.00  0.00    +0.000 C 
ATOM     11  C   UNL     1       7.619   4.669  17.171  0.00  0.00    +0.000 C 
ENDBRANCH   6   8
ENDBRANCH   1   2
BRANCH   1  13
ATOM     12  C   UNL     1       3.709   1.273  18.216  0.00  0.00    +0.000 C 
ATOM     13  N   UNL     1       3.290   2.643  18.597  0.00  0.00    +0.000 NA
BRANCH  13  14
ATOM     14  C   UNL     1       2.389   2.531  19.798  0.00  0.00    +0.000 C 
ATOM     15  C   UNL     1       0.935   2.987  19.513  0.00  0.00    +0.000 C 
ATOM     16  O   UNL     1       0.644   4.201  20.211  0.00  0.00    +0.000 OA
ATOM     17  C   UNL     1       1.685   4.467  21.147  0.00  0.00    +0.000 C 
ATOM     18  C   UNL     1       2.685   3.320  21.086  0.00  0.00    +0.000 C 
BRANCH  18  19
ATOM     19  O   UNL     1       2.485   2.447  22.214  0.00  0.00    +0.000 OA
ATOM     20  H   UNL     1       2.146   1.593  21.881  0.00  0.00    +0.000 HD
ENDBRANCH  18  19
ENDBRANCH  13  14
ENDBRANCH   1  13
TORSDOF 5
ENDMDL
MODEL 6
REMARK VINA RESULT:      -6.6      3.133      5.505
REMARK  Name = 
REMARK  9 active torsions:
REMARK  status: ('A' for Active; 'I' for Inactive)
REMARK    1  A    between atoms: C_1  and  N_2
REMARK    2  A    between atoms: N_2  and  C_3
REMARK    3  A    between atoms: N_2  and  C_13
REMARK    4  A    between atoms: C_3  and  C_4
REMARK    5  A    between atoms: C_8  and  C_9
REMARK    6  A    between atoms: C_9  and  C_10
REMARK    7  A    between atoms: C_9  and  C_11
REMARK    8  A    between atoms: C_9  and  C_12
REMARK    9  A    between atoms: C_17  and  O_18
REMARK                            x       y       z     vdW  Elec       q    Type
REMARK                         _______ _______ _______ _____ _____    ______ ____
ROOT
ATOM      1  C   UNL     1       4.511   3.474  18.807  0.00  0.00    +0.000 C 
ENDROOT
BRANCH   1   2
ATOM      2  C   UNL     1       4.442   4.874  18.220  0.00  0.00    +0.000 A 
ATOM      3  C   UNL     1       3.254   5.534  17.941  0.00  0.00    +0.000 A 
ATOM      4  N   UNL     1       3.572   6.783  17.527  0.00  0.00    +0.000 N 
ATOM      5  N   UNL     1       4.880   7.010  17.490  0.00  0.00    +0.000 NA
ATOM      6  C   UNL     1       5.459   5.860  17.898  0.00  0.00    +0.000 A 
ATOM      7  H   UNL     1       2.949   7.541  17.264  0.00  0.00    +0.000 HD
BRANCH   6   8
ATOM      8  C   UNL     1       6.998   5.891  17.927  0.00  0.00    +0.000 C 
ATOM      9  C   UNL     1       7.585   4.708  17.113  0.00  0.00    +0.000 C 
ATOM     10  C   UNL     1       7.612   7.189  17.389  0.00  0.00    +0.000 C 
ATOM     11  C   UNL     1       7.504   5.724  19.389  0.00  0.00    +0.000 C 
ENDBRANCH   6   8
ENDBRANCH   1   2
BRANCH   1  13
ATOM     12  C   UNL     1       3.677   1.306  18.150  0.00  0.00    +0.000 C 
ATOM     13  N   UNL     1       3.273   2.673  18.556  0.00  0.00    +0.000 NA
BRANCH  13  14
ATOM     14  C   UNL     1       2.399   2.551  19.776  0.00  0.00    +0.000 C 
ATOM     15  C   UNL     1       0.938   3.001  19.527  0.00  0.00    +0.000 C 
ATOM     16  O   UNL     1       0.656   4.210  20.238  0.00  0.00    +0.000 OA
ATOM     17  C   UNL     1       1.717   4.476  21.151  0.00  0.00    +0.000 C 
ATOM     18  C   UNL     1       2.722   3.335  21.062  0.00  0.00    +0.000 C 
BRANCH  18  19
ATOM     19  O   UNL     1       2.551   2.456  22.190  0.00  0.00    +0.000 OA
ATOM     20  H   UNL     1       2.180   1.612  21.864  0.00  0.00    +0.000 HD
ENDBRANCH  18  19
ENDBRANCH  13  14
ENDBRANCH   1  13
TORSDOF 5
ENDMDL
MODEL 7
REMARK VINA RESULT:      -6.6      2.073      2.994
REMARK  Name = 
REMARK  9 active torsions:
REMARK  status: ('A' for Active; 'I' for Inactive)
REMARK    1  A    between atoms: C_1  and  N_2
REMARK    2  A    between atoms: N_2  and  C_3
REMARK    3  A    between atoms: N_2  and  C_13
REMARK    4  A    between atoms: C_3  and  C_4
REMARK    5  A    between atoms: C_8  and  C_9
REMARK    6  A    between atoms: C_9  and  C_10
REMARK    7  A    between atoms: C_9  and  C_11
REMARK    8  A    between atoms: C_9  and  C_12
REMARK    9  A    between atoms: C_17  and  O_18
REMARK                            x       y       z     vdW  Elec       q    Type
REMARK                         _______ _______ _______ _____ _____    ______ ____
ROOT
ATOM      1  C   UNL     1       4.407   5.797  18.971  0.00  0.00    +0.000 C 
ENDROOT
BRANCH   1   2
ATOM      2  C   UNL     1       4.272   4.295  19.157  0.00  0.00    +0.000 A 
ATOM      3  C   UNL     1       5.341   3.455  19.437  0.00  0.00    +0.000 A 
ATOM      4  N   UNL     1       4.840   2.213  19.631  0.00  0.00    +0.000 N 
ATOM      5  N   UNL     1       3.522   2.147  19.487  0.00  0.00    +0.000 NA
ATOM      6  C   UNL     1       3.127   3.403  19.184  0.00  0.00    +0.000 A 
ATOM      7  H   UNL     1       5.336   1.361  19.877  0.00  0.00    +0.000 HD
BRANCH   6   8
ATOM      8  C   UNL     1       1.612   3.563  18.963  0.00  0.00    +0.000 C 
ATOM      9  C   UNL     1       0.951   4.258  20.183  0.00  0.00    +0.000 C 
ATOM     10  C   UNL     1       1.239   4.356  17.705  0.00  0.00    +0.000 C 
ATOM     11  C   UNL     1       0.945   2.164  18.830  0.00  0.00    +0.000 C 
ENDBRANCH   6   8
ENDBRANCH   1   2
BRANCH   1  13
ATOM     12  C   UNL     1       3.398   7.543  17.645  0.00  0.00    +0.000 C 
ATOM     13  N   UNL     1       4.107   6.244  17.576  0.00  0.00    +0.000 NA
BRANCH  13  14
ATOM     14  C   UNL     1       5.349   6.442  16.747  0.00  0.00    +0.000 C 
ATOM     15  C   UNL     1       5.494   5.400  15.609  0.00  0.00    +0.000 C 
ATOM     16  O   UNL     1       6.589   4.518  15.873  0.00  0.00    +0.000 OA
ATOM     17  C   UNL     1       7.356   5.032  16.958  0.00  0.00    +0.000 C 
ATOM     18  C   UNL     1       6.747   6.361  17.385  0.00  0.00    +0.000 C 
BRANCH  18  19
ATOM     19  O   UNL     1       7.548   7.443  16.873  0.00  0.00    +0.000 OA
ATOM     20  H   UNL     1       7.047   8.274  16.989  0.00  0.00    +0.000 HD
ENDBRANCH  18  19
ENDBRANCH  13  14
ENDBRANCH   1  13
TORSDOF 5
ENDMDL
MODEL 8
REMARK VINA RESULT:      -6.6      2.068      2.991
REMARK  Name = 
REMARK  9 active torsions:
REMARK  status: ('A' for Active; 'I' for Inactive)
REMARK    1  A    between atoms: C_1  and  N_2
REMARK    2  A    between atoms: N_2  and  C_3
REMARK    3  A    between atoms: N_2  and  C_13
REMARK    4  A    between atoms: C_3  and  C_4
REMARK    5  A    between atoms: C_8  and  C_9
REMARK    6  A    between atoms: C_9  and  C_10
REMARK    7  A    between atoms: C_9  and  C_11
REMARK    8  A    between atoms: C_9  and  C_12
REMARK    9  A    between atoms: C_17  and  O_18
REMARK                            x       y       z     vdW  Elec       q    Type
REMARK                         _______ _______ _______ _____ _____    ______ ____
ROOT
ATOM      1  C   UNL     1       4.390   5.789  18.980  0.00  0.00    +0.000 C 
ENDROOT
BRANCH   1   2
ATOM      2  C   UNL     1       4.261   4.286  19.157  0.00  0.00    +0.000 A 
ATOM      3  C   UNL     1       5.339   3.444  19.394  0.00  0.00    +0.000 A 
ATOM      4  N   UNL     1       4.844   2.200  19.594  0.00  0.00    +0.000 N 
ATOM      5  N   UNL     1       3.522   2.134  19.493  0.00  0.00    +0.000 NA
ATOM      6  C   UNL     1       3.117   3.393  19.214  0.00  0.00    +0.000 A 
ATOM      7  H   UNL     1       5.348   1.346  19.816  0.00  0.00    +0.000 HD
BRANCH   6   8
ATOM      8  C   UNL     1       1.596   3.555  19.045  0.00  0.00    +0.000 C 
ATOM      9  C   UNL     1       0.908   2.171  18.915  0.00  0.00    +0.000 C 
ATOM     10  C   UNL     1       0.912   4.319  20.185  0.00  0.00    +0.000 C 
ATOM     11  C   UNL     1       1.289   4.332  17.732  0.00  0.00    +0.000 C 
ENDBRANCH   6   8
ENDBRANCH   1   2
BRANCH   1  13
ATOM     12  C   UNL     1       3.387   7.539  17.653  0.00  0.00    +0.000 C 
ATOM     13  N   UNL     1       4.101   6.242  17.584  0.00  0.00    +0.000 NA
BRANCH  13  14
ATOM     14  C   UNL     1       5.349   6.446  16.766  0.00  0.00    +0.000 C 
ATOM     15  C   UNL     1       5.517   5.397  15.639  0.00  0.00    +0.000 C 
ATOM     16  O   UNL     1       6.619   4.529  15.920  0.00  0.00    +0.000 OA
ATOM     17  C   UNL     1       7.369   5.060  17.009  0.00  0.00    +0.000 C 
ATOM     18  C   UNL     1       6.741   6.385  17.420  0.00  0.00    +0.000 C 
BRANCH  18  19
ATOM     19  O   UNL     1       7.536   7.472  16.907  0.00  0.00    +0.000 OA
ATOM     20  H   UNL     1       7.728   7.291  15.966  0.00  0.00    +0.000 HD
ENDBRANCH  18  19
ENDBRANCH  13  14
ENDBRANCH   1  13
TORSDOF 5
ENDMDL
MODEL 9
REMARK VINA RESULT:      -6.6      2.765      5.805
REMARK  Name = 
REMARK  9 active torsions:
REMARK  status: ('A' for Active; 'I' for Inactive)
REMARK    1  A    between atoms: C_1  and  N_2
REMARK    2  A    between atoms: N_2  and  C_3
REMARK    3  A    between atoms: N_2  and  C_13
REMARK    4  A    between atoms: C_3  and  C_4
REMARK    5  A    between atoms: C_8  and  C_9
REMARK    6  A    between atoms: C_9  and  C_10
REMARK    7  A    between atoms: C_9  and  C_11
REMARK    8  A    between atoms: C_9  and  C_12
REMARK    9  A    between atoms: C_17  and  O_18
REMARK                            x       y       z     vdW  Elec       q    Type
REMARK                         _______ _______ _______ _____ _____    ______ ____
ROOT
ATOM      1  C   UNL     1       4.150   3.985  16.225  0.00  0.00    +0.000 C 
ENDROOT
BRANCH   1   2
ATOM      2  C   UNL     1       5.545   4.452  15.847  0.00  0.00    +0.000 A 
ATOM      3  C   UNL     1       6.238   3.989  14.737  0.00  0.00    +0.000 A 
ATOM      4  N   UNL     1       7.394   4.689  14.660  0.00  0.00    +0.000 N 
ATOM      5  N   UNL     1       7.542   5.574  15.639  0.00  0.00    +0.000 NA
ATOM      6  C   UNL     1       6.433   5.458  16.402  0.00  0.00    +0.000 A 
ATOM      7  H   UNL     1       8.127   4.626  13.960  0.00  0.00    +0.000 HD
BRANCH   6   8
ATOM      8  C   UNL     1       6.391   6.400  17.620  0.00  0.00    +0.000 C 
ATOM      9  C   UNL     1       5.091   7.245  17.614  0.00  0.00    +0.000 C 
ATOM     10  C   UNL     1       6.487   5.685  18.973  0.00  0.00    +0.000 C 
ATOM     11  C   UNL     1       7.578   7.404  17.554  0.00  0.00    +0.000 C 
ENDBRANCH   6   8
ENDBRANCH   1   2
BRANCH   1  13
ATOM     12  C   UNL     1       2.516   4.737  17.835  0.00  0.00    +0.000 C 
ATOM     13  N   UNL     1       3.859   4.129  17.685  0.00  0.00    +0.000 NA
BRANCH  13  14
ATOM     14  C   UNL     1       3.851   2.811  18.412  0.00  0.00    +0.000 C 
ATOM     15  C   UNL     1       2.435   2.196  18.543  0.00  0.00    +0.000 C 
ATOM     16  O   UNL     1       2.001   2.218  19.906  0.00  0.00    +0.000 OA
ATOM     17  C   UNL     1       3.103   2.555  20.744  0.00  0.00    +0.000 C 
ATOM     18  C   UNL     1       4.340   2.707  19.868  0.00  0.00    +0.000 C 
BRANCH  18  19
ATOM     19  O   UNL     1       5.163   1.532  19.993  0.00  0.00    +0.000 OA
ATOM     20  H   UNL     1       4.602   0.748  19.829  0.00  0.00    +0.000 HD
ENDBRANCH  18  19
ENDBRANCH  13  14
ENDBRANCH   1  13
TORSDOF 5
ENDMDL
