MODEL 1
REMARK VINA RESULT:      -7.9      0.000      0.000
REMARK  Name = 
REMARK  2 active torsions:
REMARK  status: ('A' for Active; 'I' for Inactive)
REMARK    1  A    between atoms: C_1  and  N_2
REMARK    2  A    between atoms: C_10  and  C_11
REMARK                            x       y       z     vdW  Elec       q    Type
REMARK                         _______ _______ _______ _____ _____    ______ ____
ROOT
ATOM      1  C   UNL     1       6.217   3.509  12.142  0.00  0.00    +0.000 C 
ATOM      2  N   UNL     1       6.342   3.942  13.514  0.00  0.00    +0.000 N 
ATOM      3  C   UNL     1       7.267   4.822  14.015  0.00  0.00    +0.000 A 
ATOM      4  C   UNL     1       6.932   4.977  15.330  0.00  0.00    +0.000 A 
ATOM      5  N   UNL     1       7.541   5.802  16.296  0.00  0.00    +0.000 NA
ATOM      6  C   UNL     1       6.953   5.812  17.472  0.00  0.00    +0.000 A 
ATOM      7  N   UNL     1       7.455   6.592  18.486  0.00  0.00    +0.000 N 
ATOM      8  N   UNL     1       5.806   5.020  17.757  0.00  0.00    +0.000 N 
ATOM      9  N   UNL     1       5.180   4.985  18.954  0.00  0.00    +0.000 NA
ATOM     10  C   UNL     1       4.206   4.086  18.704  0.00  0.00    +0.000 A 
ATOM     11  N   UNL     1       4.213   3.548  17.429  0.00  0.00    +0.000 NA
ATOM     12  C   UNL     1       5.217   4.174  16.870  0.00  0.00    +0.000 A 
ATOM     13  C   UNL     1       5.808   4.153  15.532  0.00  0.00    +0.000 A 
ATOM     14  N   UNL     1       5.446   3.496  14.432  0.00  0.00    +0.000 NA
ATOM     15  H   UNL     1       8.428   6.851  18.379  0.00  0.00    +0.000 HD
ATOM     16  H   UNL     1       7.172   6.332  19.429  0.00  0.00    +0.000 HD
ENDROOT
BRANCH  10  17
ATOM     17  C   UNL     1       3.187   3.692  19.721  0.00  0.00    +0.000 A 
ATOM     18  C   UNL     1       1.887   4.162  19.776  0.00  0.00    +0.000 A 
ATOM     19  C   UNL     1       1.271   3.538  20.888  0.00  0.00    +0.000 A 
ATOM     20  C   UNL     1       2.234   2.738  21.455  0.00  0.00    +0.000 A 
ATOM     21  O   UNL     1       3.392   2.812  20.749  0.00  0.00    +0.000 OA
ENDBRANCH  10  17
TORSDOF 1
ENDMDL
MODEL 2
REMARK VINA RESULT:      -7.7      0.883      1.060
REMARK  Name = 
REMARK  2 active torsions:
REMARK  status: ('A' for Active; 'I' for Inactive)
REMARK    1  A    between atoms: C_1  and  N_2
REMARK    2  A    between atoms: C_10  and  C_11
REMARK                            x       y       z     vdW  Elec       q    Type
REMARK                         _______ _______ _______ _____ _____    ______ ____
ROOT
ATOM      1  C   UNL     1       6.039   3.934  12.280  0.00  0.00    +0.000 C 
ATOM      2  N   UNL     1       6.217   4.046  13.709  0.00  0.00    +0.000 N 
ATOM      3  C   UNL     1       7.308   4.561  14.362  0.00  0.00    +0.000 A 
ATOM      4  C   UNL     1       6.973   4.530  15.685  0.00  0.00    +0.000 A 
ATOM      5  N   UNL     1       7.728   4.978  16.788  0.00  0.00    +0.000 NA
ATOM      6  C   UNL     1       7.118   4.897  17.950  0.00  0.00    +0.000 A 
ATOM      7  N   UNL     1       7.757   5.318  19.092  0.00  0.00    +0.000 N 
ATOM      8  N   UNL     1       5.807   4.365  18.087  0.00  0.00    +0.000 N 
ATOM      9  N   UNL     1       5.149   4.247  19.262  0.00  0.00    +0.000 NA
ATOM     10  C   UNL     1       3.999   3.677  18.852  0.00  0.00    +0.000 A 
ATOM     11  N   UNL     1       3.921   3.414  17.495  0.00  0.00    +0.000 NA
ATOM     12  C   UNL     1       5.064   3.877  17.058  0.00  0.00    +0.000 A 
ATOM     13  C   UNL     1       5.679   3.978  15.735  0.00  0.00    +0.000 A 
ATOM     14  N   UNL     1       5.210   3.658  14.531  0.00  0.00    +0.000 NA
ATOM     15  H   UNL     1       8.767   5.352  19.026  0.00  0.00    +0.000 HD
ATOM     16  H   UNL     1       7.387   4.954  19.968  0.00  0.00    +0.000 HD
ENDROOT
BRANCH  10  17
ATOM     17  C   UNL     1       2.880   3.348  19.784  0.00  0.00    +0.000 A 
ATOM     18  C   UNL     1       3.026   2.824  21.057  0.00  0.00    +0.000 A 
ATOM     19  C   UNL     1       1.723   2.665  21.587  0.00  0.00    +0.000 A 
ATOM     20  C   UNL     1       0.859   3.085  20.603  0.00  0.00    +0.000 A 
ATOM     21  O   UNL     1       1.548   3.514  19.515  0.00  0.00    +0.000 OA
ENDBRANCH  10  17
TORSDOF 1
ENDMDL
MODEL 3
REMARK VINA RESULT:      -7.7      2.406      6.153
REMARK  Name = 
REMARK  2 active torsions:
REMARK  status: ('A' for Active; 'I' for Inactive)
REMARK    1  A    between atoms: C_1  and  N_2
REMARK    2  A    between atoms: C_10  and  C_11
REMARK                            x       y       z     vdW  Elec       q    Type
REMARK                         _______ _______ _______ _____ _____    ______ ____
ROOT
ATOM      1  C   UNL     1       1.318   2.144  19.387  0.00  0.00    +0.000 C 
ATOM      2  N   UNL     1       2.538   2.878  19.140  0.00  0.00    +0.000 N 
ATOM      3  C   UNL     1       3.386   3.400  20.083  0.00  0.00    +0.000 A 
ATOM      4  C   UNL     1       4.428   3.920  19.371  0.00  0.00    +0.000 A 
ATOM      5  N   UNL     1       5.593   4.546  19.858  0.00  0.00    +0.000 NA
ATOM      6  C   UNL     1       6.471   4.881  18.938  0.00  0.00    +0.000 A 
ATOM      7  N   UNL     1       7.651   5.487  19.302  0.00  0.00    +0.000 N 
ATOM      8  N   UNL     1       6.245   4.659  17.552  0.00  0.00    +0.000 N 
ATOM      9  N   UNL     1       7.111   5.001  16.572  0.00  0.00    +0.000 NA
ATOM     10  C   UNL     1       6.424   4.611  15.479  0.00  0.00    +0.000 A 
ATOM     11  N   UNL     1       5.175   4.070  15.729  0.00  0.00    +0.000 NA
ATOM     12  C   UNL     1       5.115   4.104  17.037  0.00  0.00    +0.000 A 
ATOM     13  C   UNL     1       4.120   3.676  18.018  0.00  0.00    +0.000 A 
ATOM     14  N   UNL     1       2.953   3.055  17.861  0.00  0.00    +0.000 NA
ATOM     15  H   UNL     1       7.633   5.941  20.206  0.00  0.00    +0.000 HD
ATOM     16  H   UNL     1       8.134   5.996  18.565  0.00  0.00    +0.000 HD
ENDROOT
BRANCH  10  17
ATOM     17  C   UNL     1       6.962   4.746  14.094  0.00  0.00    +0.000 A 
ATOM     18  C   UNL     1       6.577   3.981  13.007  0.00  0.00    +0.000 A 
ATOM     19  C   UNL     1       7.331   4.434  11.897  0.00  0.00    +0.000 A 
ATOM     20  C   UNL     1       8.141   5.437  12.374  0.00  0.00    +0.000 A 
ATOM     21  O   UNL     1       7.916   5.644  13.697  0.00  0.00    +0.000 OA
ENDBRANCH  10  17
TORSDOF 1
ENDMDL
MODEL 4
REMARK VINA RESULT:      -7.6      2.986      6.454
REMARK  Name = 
REMARK  2 active torsions:
REMARK  status: ('A' for Active; 'I' for Inactive)
REMARK    1  A    between atoms: C_1  and  N_2
REMARK    2  A    between atoms: C_10  and  C_11
REMARK                            x       y       z     vdW  Elec       q    Type
REMARK                         _______ _______ _______ _____ _____    ______ ____
ROOT
ATOM      1  C   UNL     1       1.402   9.014  19.219  0.00  0.00    +0.000 C 
ATOM      2  N   UNL     1       2.276   7.880  19.032  0.00  0.00    +0.000 N 
ATOM      3  C   UNL     1       2.431   6.815  19.883  0.00  0.00    +0.000 A 
ATOM      4  C   UNL     1       3.291   5.972  19.240  0.00  0.00    +0.000 A 
ATOM      5  N   UNL     1       3.758   4.711  19.662  0.00  0.00    +0.000 NA
ATOM      6  C   UNL     1       4.522   4.081  18.797  0.00  0.00    +0.000 A 
ATOM      7  N   UNL     1       5.024   2.838  19.100  0.00  0.00    +0.000 N 
ATOM      8  N   UNL     1       4.878   4.647  17.542  0.00  0.00    +0.000 N 
ATOM      9  N   UNL     1       5.673   4.044  16.629  0.00  0.00    +0.000 NA
ATOM     10  C   UNL     1       5.714   4.987  15.667  0.00  0.00    +0.000 A 
ATOM     11  N   UNL     1       5.009   6.146  15.944  0.00  0.00    +0.000 NA
ATOM     12  C   UNL     1       4.491   5.879  17.116  0.00  0.00    +0.000 A 
ATOM     13  C   UNL     1       3.607   6.609  18.024  0.00  0.00    +0.000 A 
ATOM     14  N   UNL     1       3.007   7.790  17.892  0.00  0.00    +0.000 NA
ATOM     15  H   UNL     1       5.056   2.623  20.088  0.00  0.00    +0.000 HD
ATOM     16  H   UNL     1       5.835   2.542  18.560  0.00  0.00    +0.000 HD
ENDROOT
BRANCH  10  17
ATOM     17  C   UNL     1       6.461   4.806  14.387  0.00  0.00    +0.000 A 
ATOM     18  C   UNL     1       6.178   3.856  13.422  0.00  0.00    +0.000 A 
ATOM     19  C   UNL     1       7.123   4.031  12.383  0.00  0.00    +0.000 A 
ATOM     20  C   UNL     1       7.936   5.066  12.781  0.00  0.00    +0.000 A 
ATOM     21  O   UNL     1       7.535   5.551  13.983  0.00  0.00    +0.000 OA
ENDBRANCH  10  17
TORSDOF 1
ENDMDL
MODEL 5
REMARK VINA RESULT:      -7.6      4.005      6.266
REMARK  Name = 
REMARK  2 active torsions:
REMARK  status: ('A' for Active; 'I' for Inactive)
REMARK    1  A    between atoms: C_1  and  N_2
REMARK    2  A    between atoms: C_10  and  C_11
REMARK                            x       y       z     vdW  Elec       q    Type
REMARK                         _______ _______ _______ _____ _____    ______ ____
ROOT
ATOM      1  C   UNL     1       5.257   4.223  13.982  0.00  0.00    +0.000 C 
ATOM      2  N   UNL     1       5.848   4.671  15.221  0.00  0.00    +0.000 N 
ATOM      3  C   UNL     1       6.172   3.892  16.303  0.00  0.00    +0.000 A 
ATOM      4  C   UNL     1       6.774   4.744  17.184  0.00  0.00    +0.000 A 
ATOM      5  N   UNL     1       7.329   4.449  18.445  0.00  0.00    +0.000 NA
ATOM      6  C   UNL     1       7.920   5.459  19.044  0.00  0.00    +0.000 A 
ATOM      7  N   UNL     1       8.507   5.281  20.275  0.00  0.00    +0.000 N 
ATOM      8  N   UNL     1       7.963   6.762  18.476  0.00  0.00    +0.000 N 
ATOM      9  N   UNL     1       8.543   7.833  19.063  0.00  0.00    +0.000 NA
ATOM     10  C   UNL     1       8.286   8.792  18.151  0.00  0.00    +0.000 A 
ATOM     11  N   UNL     1       7.561   8.378  17.047  0.00  0.00    +0.000 NA
ATOM     12  C   UNL     1       7.398   7.101  17.287  0.00  0.00    +0.000 A 
ATOM     13  C   UNL     1       6.761   6.005  16.558  0.00  0.00    +0.000 A 
ATOM     14  N   UNL     1       6.178   5.979  15.361  0.00  0.00    +0.000 NA
ATOM     15  H   UNL     1       8.166   4.483  20.796  0.00  0.00    +0.000 HD
ATOM     16  H   UNL     1       8.661   6.127  20.819  0.00  0.00    +0.000 HD
ENDROOT
BRANCH  10  17
ATOM     17  C   UNL     1       8.748  10.203  18.307  0.00  0.00    +0.000 A 
ATOM     18  C   UNL     1       9.664  10.647  19.244  0.00  0.00    +0.000 A 
ATOM     19  C   UNL     1       9.811  12.041  19.046  0.00  0.00    +0.000 A 
ATOM     20  C   UNL     1       8.966  12.368  18.013  0.00  0.00    +0.000 A 
ATOM     21  O   UNL     1       8.330  11.263  17.549  0.00  0.00    +0.000 OA
ENDBRANCH  10  17
TORSDOF 1
ENDMDL
MODEL 6
REMARK VINA RESULT:      -7.2      2.585      6.627
REMARK  Name = 
REMARK  2 active torsions:
REMARK  status: ('A' for Active; 'I' for Inactive)
REMARK    1  A    between atoms: C_1  and  N_2
REMARK    2  A    between atoms: C_10  and  C_11
REMARK                            x       y       z     vdW  Elec       q    Type
REMARK                         _______ _______ _______ _____ _____    ______ ____
ROOT
ATOM      1  C   UNL     1       1.370   7.885  20.885  0.00  0.00    +0.000 C 
ATOM      2  N   UNL     1       1.952   6.706  20.289  0.00  0.00    +0.000 N 
ATOM      3  C   UNL     1       1.688   5.402  20.624  0.00  0.00    +0.000 A 
ATOM      4  C   UNL     1       2.408   4.656  19.734  0.00  0.00    +0.000 A 
ATOM      5  N   UNL     1       2.466   3.253  19.615  0.00  0.00    +0.000 NA
ATOM      6  C   UNL     1       3.185   2.809  18.608  0.00  0.00    +0.000 A 
ATOM      7  N   UNL     1       3.300   1.456  18.390  0.00  0.00    +0.000 N 
ATOM      8  N   UNL     1       3.880   3.680  17.726  0.00  0.00    +0.000 N 
ATOM      9  N   UNL     1       4.643   3.267  16.689  0.00  0.00    +0.000 NA
ATOM     10  C   UNL     1       5.082   4.449  16.212  0.00  0.00    +0.000 A 
ATOM     11  N   UNL     1       4.652   5.565  16.910  0.00  0.00    +0.000 NA
ATOM     12  C   UNL     1       3.891   5.035  17.834  0.00  0.00    +0.000 A 
ATOM     13  C   UNL     1       3.075   5.587  18.915  0.00  0.00    +0.000 A 
ATOM     14  N   UNL     1       2.821   6.848  19.256  0.00  0.00    +0.000 NA
ATOM     15  H   UNL     1       3.108   0.878  19.199  0.00  0.00    +0.000 HD
ATOM     16  H   UNL     1       4.092   1.164  17.821  0.00  0.00    +0.000 HD
ENDROOT
BRANCH  10  17
ATOM     17  C   UNL     1       5.968   4.561  15.016  0.00  0.00    +0.000 A 
ATOM     18  C   UNL     1       5.772   3.911  13.810  0.00  0.00    +0.000 A 
ATOM     19  C   UNL     1       6.837   4.293  12.959  0.00  0.00    +0.000 A 
ATOM     20  C   UNL     1       7.628   5.139  13.699  0.00  0.00    +0.000 A 
ATOM     21  O   UNL     1       7.104   5.320  14.938  0.00  0.00    +0.000 OA
ENDBRANCH  10  17
TORSDOF 1
ENDMDL
MODEL 7
REMARK VINA RESULT:      -7.2      1.008      1.094
REMARK  Name = 
REMARK  2 active torsions:
REMARK  status: ('A' for Active; 'I' for Inactive)
REMARK    1  A    between atoms: C_1  and  N_2
REMARK    2  A    between atoms: C_10  and  C_11
REMARK                            x       y       z     vdW  Elec       q    Type
REMARK                         _______ _______ _______ _____ _____    ______ ____
ROOT
ATOM      1  C   UNL     1       6.237   3.157  11.988  0.00  0.00    +0.000 C 
ATOM      2  N   UNL     1       6.310   3.783  13.288  0.00  0.00    +0.000 N 
ATOM      3  C   UNL     1       7.281   4.647  13.728  0.00  0.00    +0.000 A 
ATOM      4  C   UNL     1       6.874   5.029  14.974  0.00  0.00    +0.000 A 
ATOM      5  N   UNL     1       7.494   5.938  15.856  0.00  0.00    +0.000 NA
ATOM      6  C   UNL     1       6.831   6.178  16.965  0.00  0.00    +0.000 A 
ATOM      7  N   UNL     1       7.338   7.058  17.892  0.00  0.00    +0.000 N 
ATOM      8  N   UNL     1       5.597   5.541  17.268  0.00  0.00    +0.000 N 
ATOM      9  N   UNL     1       4.890   5.744  18.403  0.00  0.00    +0.000 NA
ATOM     10  C   UNL     1       3.853   4.905  18.208  0.00  0.00    +0.000 A 
ATOM     11  N   UNL     1       3.893   4.179  17.030  0.00  0.00    +0.000 NA
ATOM     12  C   UNL     1       4.989   4.623  16.470  0.00  0.00    +0.000 A 
ATOM     13  C   UNL     1       5.664   4.346  15.203  0.00  0.00    +0.000 A 
ATOM     14  N   UNL     1       5.316   3.562  14.184  0.00  0.00    +0.000 NA
ATOM     15  H   UNL     1       8.336   7.213  17.829  0.00  0.00    +0.000 HD
ATOM     16  H   UNL     1       6.967   6.970  18.836  0.00  0.00    +0.000 HD
ENDROOT
BRANCH  10  17
ATOM     17  C   UNL     1       2.734   4.761  19.185  0.00  0.00    +0.000 A 
ATOM     18  C   UNL     1       2.463   5.630  20.227  0.00  0.00    +0.000 A 
ATOM     19  C   UNL     1       1.326   5.123  20.902  0.00  0.00    +0.000 A 
ATOM     20  C   UNL     1       0.979   3.967  20.243  0.00  0.00    +0.000 A 
ATOM     21  O   UNL     1       1.814   3.747  19.195  0.00  0.00    +0.000 OA
ENDBRANCH  10  17
TORSDOF 1
ENDMDL
MODEL 8
REMARK VINA RESULT:      -7.2      2.291      6.144
REMARK  Name = 
REMARK  2 active torsions:
REMARK  status: ('A' for Active; 'I' for Inactive)
REMARK    1  A    between atoms: C_1  and  N_2
REMARK    2  A    between atoms: C_10  and  C_11
REMARK                            x       y       z     vdW  Elec       q    Type
REMARK                         _______ _______ _______ _____ _____    ______ ____
ROOT
ATOM      1  C   UNL     1       0.907   3.934  19.917  0.00  0.00    +0.000 C 
ATOM      2  N   UNL     1       2.253   4.234  19.490  0.00  0.00    +0.000 N 
ATOM      3  C   UNL     1       3.317   4.555  20.296  0.00  0.00    +0.000 A 
ATOM      4  C   UNL     1       4.381   4.666  19.447  0.00  0.00    +0.000 A 
ATOM      5  N   UNL     1       5.725   4.948  19.764  0.00  0.00    +0.000 NA
ATOM      6  C   UNL     1       6.556   4.914  18.745  0.00  0.00    +0.000 A 
ATOM      7  N   UNL     1       7.894   5.161  18.941  0.00  0.00    +0.000 N 
ATOM      8  N   UNL     1       6.123   4.648  17.417  0.00  0.00    +0.000 N 
ATOM      9  N   UNL     1       6.938   4.620  16.339  0.00  0.00    +0.000 NA
ATOM     10  C   UNL     1       6.050   4.362  15.358  0.00  0.00    +0.000 A 
ATOM     11  N   UNL     1       4.732   4.253  15.767  0.00  0.00    +0.000 NA
ATOM     12  C   UNL     1       4.830   4.421  17.061  0.00  0.00    +0.000 A 
ATOM     13  C   UNL     1       3.868   4.408  18.162  0.00  0.00    +0.000 A 
ATOM     14  N   UNL     1       2.559   4.161  18.170  0.00  0.00    +0.000 NA
ATOM     15  H   UNL     1       8.111   5.679  19.784  0.00  0.00    +0.000 HD
ATOM     16  H   UNL     1       8.422   5.431  18.114  0.00  0.00    +0.000 HD
ENDROOT
BRANCH  10  17
ATOM     17  C   UNL     1       6.448   4.201  13.928  0.00  0.00    +0.000 A 
ATOM     18  C   UNL     1       7.383   4.975  13.264  0.00  0.00    +0.000 A 
ATOM     19  C   UNL     1       7.452   4.489  11.937  0.00  0.00    +0.000 A 
ATOM     20  C   UNL     1       6.544   3.459  11.863  0.00  0.00    +0.000 A 
ATOM     21  O   UNL     1       5.943   3.266  13.065  0.00  0.00    +0.000 OA
ENDBRANCH  10  17
TORSDOF 1
ENDMDL
MODEL 9
REMARK VINA RESULT:      -7.1      2.715      6.388
REMARK  Name = 
REMARK  2 active torsions:
REMARK  status: ('A' for Active; 'I' for Inactive)
REMARK    1  A    between atoms: C_1  and  N_2
REMARK    2  A    between atoms: C_10  and  C_11
REMARK                            x       y       z     vdW  Elec       q    Type
REMARK                         _______ _______ _______ _____ _____    ______ ____
ROOT
ATOM      1  C   UNL     1       2.172   2.512  21.792  0.00  0.00    +0.000 C 
ATOM      2  N   UNL     1       2.404   3.538  20.802  0.00  0.00    +0.000 N 
ATOM      3  C   UNL     1       1.972   4.840  20.854  0.00  0.00    +0.000 A 
ATOM      4  C   UNL     1       2.505   5.433  19.746  0.00  0.00    +0.000 A 
ATOM      5  N   UNL     1       2.399   6.777  19.337  0.00  0.00    +0.000 NA
ATOM      6  C   UNL     1       3.087   7.089  18.261  0.00  0.00    +0.000 A 
ATOM      7  N   UNL     1       3.066   8.377  17.780  0.00  0.00    +0.000 N 
ATOM      8  N   UNL     1       3.854   6.131  17.543  0.00  0.00    +0.000 N 
ATOM      9  N   UNL     1       4.563   6.402  16.425  0.00  0.00    +0.000 NA
ATOM     10  C   UNL     1       5.062   5.183  16.139  0.00  0.00    +0.000 A 
ATOM     11  N   UNL     1       4.682   4.171  17.005  0.00  0.00    +0.000 NA
ATOM     12  C   UNL     1       3.944   4.815  17.874  0.00  0.00    +0.000 A 
ATOM     13  C   UNL     1       3.229   4.420  19.087  0.00  0.00    +0.000 A 
ATOM     14  N   UNL     1       3.159   3.247  19.713  0.00  0.00    +0.000 NA
ATOM     15  H   UNL     1       2.269   8.927  18.077  0.00  0.00    +0.000 HD
ATOM     16  H   UNL     1       3.341   8.492  16.807  0.00  0.00    +0.000 HD
ENDROOT
BRANCH  10  17
ATOM     17  C   UNL     1       5.963   4.928  14.977  0.00  0.00    +0.000 A 
ATOM     18  C   UNL     1       5.701   4.056  13.935  0.00  0.00    +0.000 A 
ATOM     19  C   UNL     1       6.810   4.119  13.057  0.00  0.00    +0.000 A 
ATOM     20  C   UNL     1       7.689   5.012  13.621  0.00  0.00    +0.000 A 
ATOM     21  O   UNL     1       7.182   5.518  14.774  0.00  0.00    +0.000 OA
ENDBRANCH  10  17
TORSDOF 1
ENDMDL
