MODEL 1
REMARK VINA RESULT:      -6.9      0.000      0.000
REMARK  Name = 
REMARK  7 active torsions:
REMARK  status: ('A' for Active; 'I' for Inactive)
REMARK    1  A    between atoms: C_1  and  S_2
REMARK    2  A    between atoms: S_2  and  C_3
REMARK    3  A    between atoms: C_3  and  C_4
REMARK    4  A    between atoms: C_4  and  N_5
REMARK    5  A    between atoms: N_8  and  C_9
REMARK    6  A    between atoms: C_9  and  C_10
REMARK    7  A    between atoms: C_9  and  C_11
REMARK                            x       y       z     vdW  Elec       q    Type
REMARK                         _______ _______ _______ _____ _____    ______ ____
ROOT
ATOM      1  N   UNL     1       1.537   9.395  19.536  0.00  0.00    +0.000 N 
ATOM      2  C   UNL     1       1.993   8.683  18.452  0.00  0.00    +0.000 C 
ATOM      3  O   UNL     1       1.977   9.099  17.302  0.00  0.00    +0.000 OA
ATOM      4  N   UNL     1       2.459   7.453  18.830  0.00  0.00    +0.000 N 
ATOM      5  H   UNL     1       1.986   9.177  20.415  0.00  0.00    +0.000 HD
ATOM      6  H   UNL     1       2.103   7.111  19.708  0.00  0.00    +0.000 HD
ENDROOT
BRANCH   4   7
ATOM      7  C   UNL     1       2.877   6.466  17.847  0.00  0.00    +0.000 C 
ATOM      8  C   UNL     1       4.386   6.564  17.612  0.00  0.00    +0.000 C 
BRANCH   7   9
ATOM      9  C   UNL     1       2.474   5.061  18.274  0.00  0.00    +0.000 A 
ATOM     10  C   UNL     1       2.743   3.968  17.430  0.00  0.00    +0.000 A 
ATOM     11  C   UNL     1       2.373   2.670  17.796  0.00  0.00    +0.000 A 
ATOM     12  C   UNL     1       1.730   2.457  19.009  0.00  0.00    +0.000 A 
ATOM     13  F   UNL     1       1.369   1.213  19.355  0.00  0.00    +0.000 F 
ATOM     14  C   UNL     1       1.460   3.525  19.855  0.00  0.00    +0.000 A 
ATOM     15  F   UNL     1       0.841   3.320  21.025  0.00  0.00    +0.000 F 
ATOM     16  C   UNL     1       1.830   4.820  19.499  0.00  0.00    +0.000 A 
ENDBRANCH   7   9
ENDBRANCH   4   7
BRANCH   1  17
ATOM     17  C   UNL     1       1.117  10.784  19.396  0.00  0.00    +0.000 C 
BRANCH  17  18
ATOM     18  C   UNL     1      -0.333  11.053  19.912  0.00  0.00    +0.000 C 
ATOM     19  C   UNL     1      -0.678  12.544  19.720  0.00  0.00    +0.000 C 
ATOM     20  C   UNL     1      -0.891  12.889  18.248  0.00  0.00    +0.000 C 
ATOM     21  O   UNL     1      -1.876  12.036  17.668  0.00  0.00    +0.000 OA
ATOM     22  C   UNL     1      -1.508  10.657  17.704  0.00  0.00    +0.000 C 
ATOM     23  C   UNL     1      -1.354  10.188  19.146  0.00  0.00    +0.000 C 
BRANCH  18  25
ATOM     24  C   UNL     1      -1.323  11.930  22.475  0.00  0.00    +0.000 C 
ATOM     25  S   UNL     1      -0.323  10.608  21.735  0.00  0.00    +0.000 S 
ENDBRANCH  18  25
ENDBRANCH  17  18
ENDBRANCH   1  17
TORSDOF 5
ENDMDL
MODEL 2
REMARK VINA RESULT:      -6.8      4.089      8.121
REMARK  Name = 
REMARK  7 active torsions:
REMARK  status: ('A' for Active; 'I' for Inactive)
REMARK    1  A    between atoms: C_1  and  S_2
REMARK    2  A    between atoms: S_2  and  C_3
REMARK    3  A    between atoms: C_3  and  C_4
REMARK    4  A    between atoms: C_4  and  N_5
REMARK    5  A    between atoms: N_8  and  C_9
REMARK    6  A    between atoms: C_9  and  C_10
REMARK    7  A    between atoms: C_9  and  C_11
REMARK                            x       y       z     vdW  Elec       q    Type
REMARK                         _______ _______ _______ _____ _____    ______ ____
ROOT
ATOM      1  N   UNL     1       3.084   6.393  19.888  0.00  0.00    +0.000 N 
ATOM      2  C   UNL     1       1.904   6.784  20.474  0.00  0.00    +0.000 C 
ATOM      3  O   UNL     1       1.017   6.013  20.812  0.00  0.00    +0.000 OA
ATOM      4  N   UNL     1       1.854   8.144  20.621  0.00  0.00    +0.000 N 
ATOM      5  H   UNL     1       3.874   6.999  20.062  0.00  0.00    +0.000 HD
ATOM      6  H   UNL     1       2.459   8.665  20.007  0.00  0.00    +0.000 HD
ENDROOT
BRANCH   4   7
ATOM      7  C   UNL     1       0.653   8.811  21.100  0.00  0.00    +0.000 C 
ATOM      8  C   UNL     1       0.822   9.207  22.569  0.00  0.00    +0.000 C 
BRANCH   7   9
ATOM      9  C   UNL     1       0.314  10.018  20.238  0.00  0.00    +0.000 A 
ATOM     10  C   UNL     1       0.933  11.256  20.492  0.00  0.00    +0.000 A 
ATOM     11  C   UNL     1       0.630  12.382  19.720  0.00  0.00    +0.000 A 
ATOM     12  C   UNL     1      -0.296  12.278  18.689  0.00  0.00    +0.000 A 
ATOM     13  F   UNL     1      -0.591  13.361  17.956  0.00  0.00    +0.000 F 
ATOM     14  C   UNL     1      -0.913  11.064  18.424  0.00  0.00    +0.000 A 
ATOM     15  F   UNL     1      -1.806  10.962  17.430  0.00  0.00    +0.000 F 
ATOM     16  C   UNL     1      -0.614   9.936  19.186  0.00  0.00    +0.000 A 
ENDBRANCH   7   9
ENDBRANCH   4   7
BRANCH   1  17
ATOM     17  C   UNL     1       3.420   4.981  19.752  0.00  0.00    +0.000 C 
BRANCH  17  18
ATOM     18  C   UNL     1       3.388   4.471  18.276  0.00  0.00    +0.000 C 
ATOM     19  C   UNL     1       4.073   3.092  18.193  0.00  0.00    +0.000 C 
ATOM     20  C   UNL     1       3.220   1.999  18.833  0.00  0.00    +0.000 C 
ATOM     21  O   UNL     1       1.914   1.979  18.260  0.00  0.00    +0.000 OA
ATOM     22  C   UNL     1       1.204   3.201  18.453  0.00  0.00    +0.000 C 
ATOM     23  C   UNL     1       1.935   4.352  17.771  0.00  0.00    +0.000 C 
BRANCH  18  25
ATOM     24  C   UNL     1       5.206   4.714  16.050  0.00  0.00    +0.000 C 
ATOM     25  S   UNL     1       4.336   5.739  17.270  0.00  0.00    +0.000 S 
ENDBRANCH  18  25
ENDBRANCH  17  18
ENDBRANCH   1  17
TORSDOF 5
ENDMDL
MODEL 3
REMARK VINA RESULT:      -6.8      3.863      7.890
REMARK  Name = 
REMARK  7 active torsions:
REMARK  status: ('A' for Active; 'I' for Inactive)
REMARK    1  A    between atoms: C_1  and  S_2
REMARK    2  A    between atoms: S_2  and  C_3
REMARK    3  A    between atoms: C_3  and  C_4
REMARK    4  A    between atoms: C_4  and  N_5
REMARK    5  A    between atoms: N_8  and  C_9
REMARK    6  A    between atoms: C_9  and  C_10
REMARK    7  A    between atoms: C_9  and  C_11
REMARK                            x       y       z     vdW  Elec       q    Type
REMARK                         _______ _______ _______ _____ _____    ______ ____
ROOT
ATOM      1  N   UNL     1       2.275   7.252  18.780  0.00  0.00    +0.000 N 
ATOM      2  C   UNL     1       1.718   8.269  19.518  0.00  0.00    +0.000 C 
ATOM      3  O   UNL     1       1.612   8.254  20.737  0.00  0.00    +0.000 OA
ATOM      4  N   UNL     1       1.297   9.291  18.712  0.00  0.00    +0.000 N 
ATOM      5  H   UNL     1       2.706   7.537  17.911  0.00  0.00    +0.000 HD
ATOM      6  H   UNL     1       1.124   9.037  17.752  0.00  0.00    +0.000 HD
ENDROOT
BRANCH   4   7
ATOM      7  C   UNL     1       0.559  10.425  19.247  0.00  0.00    +0.000 C 
ATOM      8  C   UNL     1       1.387  11.705  19.106  0.00  0.00    +0.000 C 
BRANCH   7   9
ATOM      9  C   UNL     1      -0.797  10.567  18.570  0.00  0.00    +0.000 A 
ATOM     10  C   UNL     1      -1.768  11.424  19.119  0.00  0.00    +0.000 A 
ATOM     11  C   UNL     1      -3.025  11.562  18.521  0.00  0.00    +0.000 A 
ATOM     12  C   UNL     1      -3.318  10.843  17.369  0.00  0.00    +0.000 A 
ATOM     13  F   UNL     1      -4.526  10.971  16.802  0.00  0.00    +0.000 F 
ATOM     14  C   UNL     1      -2.370   9.996  16.813  0.00  0.00    +0.000 A 
ATOM     15  F   UNL     1      -2.653   9.301  15.702  0.00  0.00    +0.000 F 
ATOM     16  C   UNL     1      -1.114   9.855  17.400  0.00  0.00    +0.000 A 
ENDBRANCH   7   9
ENDBRANCH   4   7
BRANCH   1  17
ATOM     17  C   UNL     1       2.914   6.117  19.433  0.00  0.00    +0.000 C 
BRANCH  17  18
ATOM     18  C   UNL     1       3.333   4.983  18.445  0.00  0.00    +0.000 C 
ATOM     19  C   UNL     1       4.072   3.873  19.220  0.00  0.00    +0.000 C 
ATOM     20  C   UNL     1       3.120   3.069  20.102  0.00  0.00    +0.000 C 
ATOM     21  O   UNL     1       2.038   2.550  19.332  0.00  0.00    +0.000 OA
ATOM     22  C   UNL     1       1.249   3.571  18.722  0.00  0.00    +0.000 C 
ATOM     23  C   UNL     1       2.095   4.383  17.748  0.00  0.00    +0.000 C 
BRANCH  18  25
ATOM     24  C   UNL     1       6.021   4.857  17.407  0.00  0.00    +0.000 C 
ATOM     25  S   UNL     1       4.475   5.784  17.192  0.00  0.00    +0.000 S 
ENDBRANCH  18  25
ENDBRANCH  17  18
ENDBRANCH   1  17
TORSDOF 5
ENDMDL
MODEL 4
REMARK VINA RESULT:      -6.7      3.759      7.871
REMARK  Name = 
REMARK  7 active torsions:
REMARK  status: ('A' for Active; 'I' for Inactive)
REMARK    1  A    between atoms: C_1  and  S_2
REMARK    2  A    between atoms: S_2  and  C_3
REMARK    3  A    between atoms: C_3  and  C_4
REMARK    4  A    between atoms: C_4  and  N_5
REMARK    5  A    between atoms: N_8  and  C_9
REMARK    6  A    between atoms: C_9  and  C_10
REMARK    7  A    between atoms: C_9  and  C_11
REMARK                            x       y       z     vdW  Elec       q    Type
REMARK                         _______ _______ _______ _____ _____    ______ ____
ROOT
ATOM      1  N   UNL     1       2.312   7.459  18.734  0.00  0.00    +0.000 N 
ATOM      2  C   UNL     1       1.680   8.412  19.498  0.00  0.00    +0.000 C 
ATOM      3  O   UNL     1       1.583   8.360  20.716  0.00  0.00    +0.000 OA
ATOM      4  N   UNL     1       1.174   9.415  18.716  0.00  0.00    +0.000 N 
ATOM      5  H   UNL     1       2.714   7.797  17.870  0.00  0.00    +0.000 HD
ATOM      6  H   UNL     1       1.017   9.170  17.752  0.00  0.00    +0.000 HD
ENDROOT
BRANCH   4   7
ATOM      7  C   UNL     1       0.352  10.474  19.280  0.00  0.00    +0.000 C 
ATOM      8  C   UNL     1       1.120  11.798  19.270  0.00  0.00    +0.000 C 
BRANCH   7   9
ATOM      9  C   UNL     1      -0.971  10.597  18.537  0.00  0.00    +0.000 A 
ATOM     10  C   UNL     1      -1.974  11.451  19.029  0.00  0.00    +0.000 A 
ATOM     11  C   UNL     1      -3.202  11.572  18.370  0.00  0.00    +0.000 A 
ATOM     12  C   UNL     1      -3.434  10.837  17.214  0.00  0.00    +0.000 A 
ATOM     13  F   UNL     1      -4.614  10.948  16.588  0.00  0.00    +0.000 F 
ATOM     14  C   UNL     1      -2.453   9.992  16.714  0.00  0.00    +0.000 A 
ATOM     15  F   UNL     1      -2.676   9.283  15.599  0.00  0.00    +0.000 F 
ATOM     16  C   UNL     1      -1.226   9.869  17.363  0.00  0.00    +0.000 A 
ENDBRANCH   7   9
ENDBRANCH   4   7
BRANCH   1  17
ATOM     17  C   UNL     1       3.044   6.364  19.358  0.00  0.00    +0.000 C 
BRANCH  17  18
ATOM     18  C   UNL     1       3.522   5.276  18.346  0.00  0.00    +0.000 C 
ATOM     19  C   UNL     1       4.134   5.960  17.106  0.00  0.00    +0.000 C 
ATOM     20  C   UNL     1       5.487   6.592  17.420  0.00  0.00    +0.000 C 
ATOM     21  O   UNL     1       6.374   5.631  17.988  0.00  0.00    +0.000 OA
ATOM     22  C   UNL     1       5.893   5.089  19.218  0.00  0.00    +0.000 C 
ATOM     23  C   UNL     1       4.576   4.354  18.994  0.00  0.00    +0.000 C 
BRANCH  18  25
ATOM     24  C   UNL     1       2.610   2.595  17.796  0.00  0.00    +0.000 C 
ATOM     25  S   UNL     1       1.991   4.300  17.873  0.00  0.00    +0.000 S 
ENDBRANCH  18  25
ENDBRANCH  17  18
ENDBRANCH   1  17
TORSDOF 5
ENDMDL
MODEL 5
REMARK VINA RESULT:      -6.7      4.300      7.957
REMARK  Name = 
REMARK  7 active torsions:
REMARK  status: ('A' for Active; 'I' for Inactive)
REMARK    1  A    between atoms: C_1  and  S_2
REMARK    2  A    between atoms: S_2  and  C_3
REMARK    3  A    between atoms: C_3  and  C_4
REMARK    4  A    between atoms: C_4  and  N_5
REMARK    5  A    between atoms: N_8  and  C_9
REMARK    6  A    between atoms: C_9  and  C_10
REMARK    7  A    between atoms: C_9  and  C_11
REMARK                            x       y       z     vdW  Elec       q    Type
REMARK                         _______ _______ _______ _____ _____    ______ ____
ROOT
ATOM      1  N   UNL     1       3.190   6.270  19.864  0.00  0.00    +0.000 N 
ATOM      2  C   UNL     1       2.034   6.603  20.529  0.00  0.00    +0.000 C 
ATOM      3  O   UNL     1       1.189   5.793  20.885  0.00  0.00    +0.000 OA
ATOM      4  N   UNL     1       1.954   7.954  20.733  0.00  0.00    +0.000 N 
ATOM      5  H   UNL     1       3.971   6.892  20.019  0.00  0.00    +0.000 HD
ATOM      6  H   UNL     1       2.510   8.516  20.108  0.00  0.00    +0.000 HD
ENDROOT
BRANCH   4   7
ATOM      7  C   UNL     1       0.764   8.565  21.304  0.00  0.00    +0.000 C 
ATOM      8  C   UNL     1       1.078   9.135  22.689  0.00  0.00    +0.000 C 
BRANCH   7   9
ATOM      9  C   UNL     1       0.201   9.636  20.381  0.00  0.00    +0.000 A 
ATOM     10  C   UNL     1       0.602   9.682  19.033  0.00  0.00    +0.000 A 
ATOM     11  C   UNL     1       0.107  10.663  18.169  0.00  0.00    +0.000 A 
ATOM     12  C   UNL     1      -0.792  11.607  18.647  0.00  0.00    +0.000 A 
ATOM     13  F   UNL     1      -1.259  12.552  17.819  0.00  0.00    +0.000 F 
ATOM     14  C   UNL     1      -1.201  11.575  19.974  0.00  0.00    +0.000 A 
ATOM     15  F   UNL     1      -2.069  12.485  20.436  0.00  0.00    +0.000 F 
ATOM     16  C   UNL     1      -0.716  10.598  20.840  0.00  0.00    +0.000 A 
ENDBRANCH   7   9
ENDBRANCH   4   7
BRANCH   1  17
ATOM     17  C   UNL     1       3.556   4.875  19.654  0.00  0.00    +0.000 C 
BRANCH  17  18
ATOM     18  C   UNL     1       3.467   4.424  18.161  0.00  0.00    +0.000 C 
ATOM     19  C   UNL     1       4.117   3.034  18.003  0.00  0.00    +0.000 C 
ATOM     20  C   UNL     1       3.259   1.936  18.627  0.00  0.00    +0.000 C 
ATOM     21  O   UNL     1       1.936   1.967  18.095  0.00  0.00    +0.000 OA
ATOM     22  C   UNL     1       1.261   3.197  18.357  0.00  0.00    +0.000 C 
ATOM     23  C   UNL     1       1.997   4.358  17.698  0.00  0.00    +0.000 C 
BRANCH  18  25
ATOM     24  C   UNL     1       6.108   5.529  17.803  0.00  0.00    +0.000 C 
ATOM     25  S   UNL     1       4.414   5.710  17.176  0.00  0.00    +0.000 S 
ENDBRANCH  18  25
ENDBRANCH  17  18
ENDBRANCH   1  17
TORSDOF 5
ENDMDL
MODEL 6
REMARK VINA RESULT:      -6.7      4.381      8.128
REMARK  Name = 
REMARK  7 active torsions:
REMARK  status: ('A' for Active; 'I' for Inactive)
REMARK    1  A    between atoms: C_1  and  S_2
REMARK    2  A    between atoms: S_2  and  C_3
REMARK    3  A    between atoms: C_3  and  C_4
REMARK    4  A    between atoms: C_4  and  N_5
REMARK    5  A    between atoms: N_8  and  C_9
REMARK    6  A    between atoms: C_9  and  C_10
REMARK    7  A    between atoms: C_9  and  C_11
REMARK                            x       y       z     vdW  Elec       q    Type
REMARK                         _______ _______ _______ _____ _____    ______ ____
ROOT
ATOM      1  N   UNL     1       3.053   6.468  19.967  0.00  0.00    +0.000 N 
ATOM      2  C   UNL     1       1.848   6.839  20.513  0.00  0.00    +0.000 C 
ATOM      3  O   UNL     1       0.942   6.058  20.772  0.00  0.00    +0.000 OA
ATOM      4  N   UNL     1       1.795   8.190  20.722  0.00  0.00    +0.000 N 
ATOM      5  H   UNL     1       3.836   7.060  20.208  0.00  0.00    +0.000 HD
ATOM      6  H   UNL     1       2.432   8.736  20.163  0.00  0.00    +0.000 HD
ENDROOT
BRANCH   4   7
ATOM      7  C   UNL     1       0.575   8.842  21.174  0.00  0.00    +0.000 C 
ATOM      8  C   UNL     1       0.710   9.249  22.643  0.00  0.00    +0.000 C 
BRANCH   7   9
ATOM      9  C   UNL     1       0.235  10.039  20.297  0.00  0.00    +0.000 A 
ATOM     10  C   UNL     1      -0.785   9.935  19.335  0.00  0.00    +0.000 A 
ATOM     11  C   UNL     1      -1.108  11.018  18.510  0.00  0.00    +0.000 A 
ATOM     12  C   UNL     1      -0.410  12.212  18.643  0.00  0.00    +0.000 A 
ATOM     13  F   UNL     1      -0.716  13.246  17.847  0.00  0.00    +0.000 F 
ATOM     14  C   UNL     1       0.597  12.332  19.590  0.00  0.00    +0.000 A 
ATOM     15  F   UNL     1       1.270  13.483  19.719  0.00  0.00    +0.000 F 
ATOM     16  C   UNL     1       0.922  11.259  20.418  0.00  0.00    +0.000 A 
ENDBRANCH   7   9
ENDBRANCH   4   7
BRANCH   1  17
ATOM     17  C   UNL     1       3.389   5.062  19.781  0.00  0.00    +0.000 C 
BRANCH  17  18
ATOM     18  C   UNL     1       3.386   4.612  18.285  0.00  0.00    +0.000 C 
ATOM     19  C   UNL     1       4.153   3.281  18.147  0.00  0.00    +0.000 C 
ATOM     20  C   UNL     1       3.367   2.114  18.739  0.00  0.00    +0.000 C 
ATOM     21  O   UNL     1       2.065   2.039  18.164  0.00  0.00    +0.000 OA
ATOM     22  C   UNL     1       1.282   3.208  18.406  0.00  0.00    +0.000 C 
ATOM     23  C   UNL     1       1.943   4.428  17.773  0.00  0.00    +0.000 C 
BRANCH  18  25
ATOM     24  C   UNL     1       5.243   5.052  16.121  0.00  0.00    +0.000 C 
ATOM     25  S   UNL     1       4.256   5.976  17.334  0.00  0.00    +0.000 S 
ENDBRANCH  18  25
ENDBRANCH  17  18
ENDBRANCH   1  17
TORSDOF 5
ENDMDL
MODEL 7
REMARK VINA RESULT:      -6.7      3.484      7.851
REMARK  Name = 
REMARK  7 active torsions:
REMARK  status: ('A' for Active; 'I' for Inactive)
REMARK    1  A    between atoms: C_1  and  S_2
REMARK    2  A    between atoms: S_2  and  C_3
REMARK    3  A    between atoms: C_3  and  C_4
REMARK    4  A    between atoms: C_4  and  N_5
REMARK    5  A    between atoms: N_8  and  C_9
REMARK    6  A    between atoms: C_9  and  C_10
REMARK    7  A    between atoms: C_9  and  C_11
REMARK                            x       y       z     vdW  Elec       q    Type
REMARK                         _______ _______ _______ _____ _____    ______ ____
ROOT
ATOM      1  N   UNL     1       2.664   7.090  18.568  0.00  0.00    +0.000 N 
ATOM      2  C   UNL     1       2.157   8.311  18.191  0.00  0.00    +0.000 C 
ATOM      3  O   UNL     1       2.542   8.943  17.217  0.00  0.00    +0.000 OA
ATOM      4  N   UNL     1       1.176   8.724  19.051  0.00  0.00    +0.000 N 
ATOM      5  H   UNL     1       2.019   6.489  19.062  0.00  0.00    +0.000 HD
ATOM      6  H   UNL     1       1.203   8.305  19.967  0.00  0.00    +0.000 HD
ENDROOT
BRANCH   4   7
ATOM      7  C   UNL     1       0.574  10.044  18.937  0.00  0.00    +0.000 C 
ATOM      8  C   UNL     1      -0.451  10.058  17.801  0.00  0.00    +0.000 C 
BRANCH   7   9
ATOM      9  C   UNL     1      -0.055  10.476  20.254  0.00  0.00    +0.000 A 
ATOM     10  C   UNL     1      -0.917  11.587  20.287  0.00  0.00    +0.000 A 
ATOM     11  C   UNL     1      -1.499  12.010  21.487  0.00  0.00    +0.000 A 
ATOM     12  C   UNL     1      -1.219  11.324  22.662  0.00  0.00    +0.000 A 
ATOM     13  F   UNL     1      -1.771  11.736  23.812  0.00  0.00    +0.000 F 
ATOM     14  C   UNL     1      -0.372  10.224  22.646  0.00  0.00    +0.000 A 
ATOM     15  F   UNL     1      -0.102   9.563  23.780  0.00  0.00    +0.000 F 
ATOM     16  C   UNL     1       0.208   9.794  21.454  0.00  0.00    +0.000 A 
ENDBRANCH   7   9
ENDBRANCH   4   7
BRANCH   1  17
ATOM     17  C   UNL     1       3.627   6.389  17.728  0.00  0.00    +0.000 C 
BRANCH  17  18
ATOM     18  C   UNL     1       3.845   4.898  18.139  0.00  0.00    +0.000 C 
ATOM     19  C   UNL     1       4.614   4.163  17.022  0.00  0.00    +0.000 C 
ATOM     20  C   UNL     1       6.075   4.601  16.960  0.00  0.00    +0.000 C 
ATOM     21  O   UNL     1       6.703   4.441  18.230  0.00  0.00    +0.000 OA
ATOM     22  C   UNL     1       6.095   5.229  19.253  0.00  0.00    +0.000 C 
ATOM     23  C   UNL     1       4.644   4.807  19.455  0.00  0.00    +0.000 C 
BRANCH  18  25
ATOM     24  C   UNL     1       2.087   3.757  20.121  0.00  0.00    +0.000 C 
ATOM     25  S   UNL     1       2.132   4.165  18.353  0.00  0.00    +0.000 S 
ENDBRANCH  18  25
ENDBRANCH  17  18
ENDBRANCH   1  17
TORSDOF 5
ENDMDL
MODEL 8
REMARK VINA RESULT:      -6.6      4.081      7.873
REMARK  Name = 
REMARK  7 active torsions:
REMARK  status: ('A' for Active; 'I' for Inactive)
REMARK    1  A    between atoms: C_1  and  S_2
REMARK    2  A    between atoms: S_2  and  C_3
REMARK    3  A    between atoms: C_3  and  C_4
REMARK    4  A    between atoms: C_4  and  N_5
REMARK    5  A    between atoms: N_8  and  C_9
REMARK    6  A    between atoms: C_9  and  C_10
REMARK    7  A    between atoms: C_9  and  C_11
REMARK                            x       y       z     vdW  Elec       q    Type
REMARK                         _______ _______ _______ _____ _____    ______ ____
ROOT
ATOM      1  N   UNL     1       2.210   7.478  18.852  0.00  0.00    +0.000 N 
ATOM      2  C   UNL     1       1.606   8.483  19.570  0.00  0.00    +0.000 C 
ATOM      3  O   UNL     1       1.381   8.429  20.771  0.00  0.00    +0.000 OA
ATOM      4  N   UNL     1       1.289   9.543  18.764  0.00  0.00    +0.000 N 
ATOM      5  H   UNL     1       2.731   7.780  18.040  0.00  0.00    +0.000 HD
ATOM      6  H   UNL     1       1.206   9.326  17.783  0.00  0.00    +0.000 HD
ENDROOT
BRANCH   4   7
ATOM      7  C   UNL     1       0.528  10.676  19.265  0.00  0.00    +0.000 C 
ATOM      8  C   UNL     1       1.285  11.978  18.995  0.00  0.00    +0.000 C 
BRANCH   7   9
ATOM      9  C   UNL     1      -0.867  10.713  18.658  0.00  0.00    +0.000 A 
ATOM     10  C   UNL     1      -1.171   9.898  17.552  0.00  0.00    +0.000 A 
ATOM     11  C   UNL     1      -2.443   9.922  16.971  0.00  0.00    +0.000 A 
ATOM     12  C   UNL     1      -3.419  10.763  17.491  0.00  0.00    +0.000 A 
ATOM     13  F   UNL     1      -4.634  10.791  16.927  0.00  0.00    +0.000 F 
ATOM     14  C   UNL     1      -3.135  11.571  18.583  0.00  0.00    +0.000 A 
ATOM     15  F   UNL     1      -4.076  12.383  19.086  0.00  0.00    +0.000 F 
ATOM     16  C   UNL     1      -1.872  11.550  19.171  0.00  0.00    +0.000 A 
ENDBRANCH   7   9
ENDBRANCH   4   7
BRANCH   1  17
ATOM     17  C   UNL     1       2.757   6.305  19.523  0.00  0.00    +0.000 C 
BRANCH  17  18
ATOM     18  C   UNL     1       3.291   5.215  18.540  0.00  0.00    +0.000 C 
ATOM     19  C   UNL     1       4.081   4.152  19.330  0.00  0.00    +0.000 C 
ATOM     20  C   UNL     1       3.158   3.272  20.169  0.00  0.00    +0.000 C 
ATOM     21  O   UNL     1       2.144   2.685  19.356  0.00  0.00    +0.000 OA
ATOM     22  C   UNL     1       1.306   3.654  18.728  0.00  0.00    +0.000 C 
ATOM     23  C   UNL     1       2.125   4.537  17.792  0.00  0.00    +0.000 C 
BRANCH  18  25
ATOM     24  C   UNL     1       5.874   5.033  17.269  0.00  0.00    +0.000 C 
ATOM     25  S   UNL     1       4.415   6.112  17.336  0.00  0.00    +0.000 S 
ENDBRANCH  18  25
ENDBRANCH  17  18
ENDBRANCH   1  17
TORSDOF 5
ENDMDL
MODEL 9
REMARK VINA RESULT:      -6.6      3.709      7.762
REMARK  Name = 
REMARK  7 active torsions:
REMARK  status: ('A' for Active; 'I' for Inactive)
REMARK    1  A    between atoms: C_1  and  S_2
REMARK    2  A    between atoms: S_2  and  C_3
REMARK    3  A    between atoms: C_3  and  C_4
REMARK    4  A    between atoms: C_4  and  N_5
REMARK    5  A    between atoms: N_8  and  C_9
REMARK    6  A    between atoms: C_9  and  C_10
REMARK    7  A    between atoms: C_9  and  C_11
REMARK                            x       y       z     vdW  Elec       q    Type
REMARK                         _______ _______ _______ _____ _____    ______ ____
ROOT
ATOM      1  N   UNL     1       2.278   7.323  19.037  0.00  0.00    +0.000 N 
ATOM      2  C   UNL     1       1.655   8.302  19.775  0.00  0.00    +0.000 C 
ATOM      3  O   UNL     1       1.645   8.337  20.998  0.00  0.00    +0.000 OA
ATOM      4  N   UNL     1       1.049   9.221  18.963  0.00  0.00    +0.000 N 
ATOM      5  H   UNL     1       2.603   7.613  18.125  0.00  0.00    +0.000 HD
ATOM      6  H   UNL     1       0.836   8.898  18.032  0.00  0.00    +0.000 HD
ENDROOT
BRANCH   4   7
ATOM      7  C   UNL     1       0.217  10.283  19.509  0.00  0.00    +0.000 C 
ATOM      8  C   UNL     1       1.030  11.572  19.640  0.00  0.00    +0.000 C 
BRANCH   7   9
ATOM      9  C   UNL     1      -1.026  10.498  18.657  0.00  0.00    +0.000 A 
ATOM     10  C   UNL     1      -2.002  11.426  19.065  0.00  0.00    +0.000 A 
ATOM     11  C   UNL     1      -3.158  11.633  18.305  0.00  0.00    +0.000 A 
ATOM     12  C   UNL     1      -3.345  10.912  17.132  0.00  0.00    +0.000 A 
ATOM     13  F   UNL     1      -4.458  11.107  16.410  0.00  0.00    +0.000 F 
ATOM     14  C   UNL     1      -2.391   9.995  16.715  0.00  0.00    +0.000 A 
ATOM     15  F   UNL     1      -2.571   9.300  15.584  0.00  0.00    +0.000 F 
ATOM     16  C   UNL     1      -1.235   9.786  17.464  0.00  0.00    +0.000 A 
ENDBRANCH   7   9
ENDBRANCH   4   7
BRANCH   1  17
ATOM     17  C   UNL     1       3.103   6.310  19.684  0.00  0.00    +0.000 C 
BRANCH  17  18
ATOM     18  C   UNL     1       2.690   4.847  19.326  0.00  0.00    +0.000 C 
ATOM     19  C   UNL     1       2.500   4.724  17.800  0.00  0.00    +0.000 C 
ATOM     20  C   UNL     1       3.835   4.774  17.060  0.00  0.00    +0.000 C 
ATOM     21  O   UNL     1       4.728   3.784  17.566  0.00  0.00    +0.000 OA
ATOM     22  C   UNL     1       5.034   3.966  18.948  0.00  0.00    +0.000 C 
ATOM     23  C   UNL     1       3.768   3.847  19.791  0.00  0.00    +0.000 C 
BRANCH  18  25
ATOM     24  C   UNL     1       1.274   2.841  20.840  0.00  0.00    +0.000 C 
ATOM     25  S   UNL     1       1.070   4.535  20.219  0.00  0.00    +0.000 S 
ENDBRANCH  18  25
ENDBRANCH  17  18
ENDBRANCH   1  17
TORSDOF 5
ENDMDL
