MODEL 1
REMARK VINA RESULT:      -7.1      0.000      0.000
REMARK  Name = 
REMARK  11 active torsions:
REMARK  status: ('A' for Active; 'I' for Inactive)
REMARK    1  A    between atoms: C_1  and  O_2
REMARK    2  A    between atoms: O_2  and  C_3
REMARK    3  A    between atoms: C_6  and  C_7
REMARK    4  A    between atoms: C_7  and  N_8
REMARK    5  A    between atoms: N_11  and  C_12
REMARK    6  A    between atoms: C_12  and  C_13
REMARK    7  A    between atoms: C_12  and  C_20
REMARK    8  A    between atoms: C_16  and  C_17
REMARK    9  A    between atoms: C_20  and  O_21
REMARK   10  A    between atoms: C_20  and  C_22
REMARK   11  A    between atoms: C_25  and  C_26
REMARK                            x       y       z     vdW  Elec       q    Type
REMARK                         _______ _______ _______ _____ _____    ______ ____
ROOT
ATOM      1  C   UNL     1      -0.381  11.752  19.220  0.00  0.00    +0.000 C 
ENDROOT
BRANCH   1   2
ATOM      2  C   UNL     1       0.389  10.463  19.640  0.00  0.00    +0.000 A 
ATOM      3  C   UNL     1       1.254   9.770  18.760  0.00  0.00    +0.000 A 
ATOM      4  C   UNL     1       1.797   8.526  19.113  0.00  0.00    +0.000 A 
ATOM      5  C   UNL     1       1.447   7.919  20.326  0.00  0.00    +0.000 A 
ATOM      6  C   UNL     1       1.926   6.538  20.676  0.00  0.00    +0.000 C 
ATOM      7  C   UNL     1       0.611   8.601  21.212  0.00  0.00    +0.000 A 
ATOM      8  C   UNL     1       0.121   9.869  20.894  0.00  0.00    +0.000 A 
ENDBRANCH   1   2
BRANCH   1  12
ATOM      9  N   UNL     1       2.351  14.708  18.844  0.00  0.00    +0.000 NA
ATOM     10  C   UNL     1       2.293  13.242  18.860  0.00  0.00    +0.000 C 
ATOM     11  C   UNL     1       1.605  12.810  20.187  0.00  0.00    +0.000 C 
ATOM     12  N   UNL     1       0.156  12.916  20.037  0.00  0.00    +0.000 NA
ATOM     13  C   UNL     1      -0.108  14.375  19.806  0.00  0.00    +0.000 C 
ATOM     14  C   UNL     1       0.927  15.195  18.899  0.00  0.00    +0.000 C 
BRANCH   9  15
ATOM     15  C   UNL     1       3.521  15.022  19.739  0.00  0.00    +0.000 C 
BRANCH  15  19
ATOM     16  C   UNL     1       7.631  14.549  18.593  0.00  0.00    +0.000 A 
ATOM     17  C   UNL     1       7.318  14.765  19.955  0.00  0.00    +0.000 A 
ATOM     18  C   UNL     1       5.996  15.026  20.354  0.00  0.00    +0.000 A 
ATOM     19  C   UNL     1       4.979  15.089  19.395  0.00  0.00    +0.000 A 
ATOM     20  C   UNL     1       5.317  14.910  18.028  0.00  0.00    +0.000 A 
ATOM     21  C   UNL     1       6.621  14.645  17.641  0.00  0.00    +0.000 A 
BRANCH  16  23
ATOM     22  C   UNL     1       9.884  15.075  17.840  0.00  0.00    +0.000 C 
ATOM     23  O   UNL     1       8.872  14.199  18.167  0.00  0.00    +0.000 OA
ENDBRANCH  16  23
ENDBRANCH  15  19
ENDBRANCH   9  15
ENDBRANCH   1  12
BRANCH   1  24
ATOM     24  C   UNL     1      -1.924  11.508  19.292  0.00  0.00    +0.000 C 
BRANCH  24  25
ATOM     25  C   UNL     1      -2.463  11.067  17.926  0.00  0.00    +0.000 A 
ATOM     26  C   UNL     1      -1.776  10.114  17.147  0.00  0.00    +0.000 A 
ATOM     27  C   UNL     1      -2.262   9.736  15.889  0.00  0.00    +0.000 A 
ATOM     28  C   UNL     1      -3.449  10.291  15.387  0.00  0.00    +0.000 A 
ATOM     29  C   UNL     1      -3.993   9.890  14.047  0.00  0.00    +0.000 C 
ATOM     30  C   UNL     1      -4.135  11.241  16.156  0.00  0.00    +0.000 A 
ATOM     31  C   UNL     1      -3.648  11.627  17.408  0.00  0.00    +0.000 A 
ENDBRANCH  24  25
BRANCH  24  32
ATOM     32  O   UNL     1      -2.624  12.643  19.732  0.00  0.00    +0.000 OA
ATOM     33  H   UNL     1      -3.579  12.532  19.486  0.00  0.00    +0.000 HD
ENDBRANCH  24  32
ENDBRANCH   1  24
TORSDOF 8
ENDMDL
MODEL 2
REMARK VINA RESULT:      -6.9      2.898      7.646
REMARK  Name = 
REMARK  11 active torsions:
REMARK  status: ('A' for Active; 'I' for Inactive)
REMARK    1  A    between atoms: C_1  and  O_2
REMARK    2  A    between atoms: O_2  and  C_3
REMARK    3  A    between atoms: C_6  and  C_7
REMARK    4  A    between atoms: C_7  and  N_8
REMARK    5  A    between atoms: N_11  and  C_12
REMARK    6  A    between atoms: C_12  and  C_13
REMARK    7  A    between atoms: C_12  and  C_20
REMARK    8  A    between atoms: C_16  and  C_17
REMARK    9  A    between atoms: C_20  and  O_21
REMARK   10  A    between atoms: C_20  and  C_22
REMARK   11  A    between atoms: C_25  and  C_26
REMARK                            x       y       z     vdW  Elec       q    Type
REMARK                         _______ _______ _______ _____ _____    ______ ____
ROOT
ATOM      1  C   UNL     1      -1.400  12.192  19.383  0.00  0.00    +0.000 C 
ENDROOT
BRANCH   1   2
ATOM      2  C   UNL     1      -2.890  12.024  18.954  0.00  0.00    +0.000 A 
ATOM      3  C   UNL     1      -3.268  11.547  17.676  0.00  0.00    +0.000 A 
ATOM      4  C   UNL     1      -4.608  11.568  17.265  0.00  0.00    +0.000 A 
ATOM      5  C   UNL     1      -5.595  12.118  18.094  0.00  0.00    +0.000 A 
ATOM      6  C   UNL     1      -7.018  12.255  17.631  0.00  0.00    +0.000 C 
ATOM      7  C   UNL     1      -5.239  12.574  19.364  0.00  0.00    +0.000 A 
ATOM      8  C   UNL     1      -3.916  12.494  19.805  0.00  0.00    +0.000 A 
ENDBRANCH   1   2
BRANCH   1  12
ATOM      9  N   UNL     1       1.407   9.476  20.426  0.00  0.00    +0.000 NA
ATOM     10  C   UNL     1       0.434   9.715  19.354  0.00  0.00    +0.000 C 
ATOM     11  C   UNL     1      -0.969   9.864  20.011  0.00  0.00    +0.000 C 
ATOM     12  N   UNL     1      -1.120  11.225  20.521  0.00  0.00    +0.000 NA
ATOM     13  C   UNL     1      -0.070  11.365  21.583  0.00  0.00    +0.000 C 
ATOM     14  C   UNL     1       1.357  10.681  21.327  0.00  0.00    +0.000 C 
BRANCH   9  15
ATOM     15  C   UNL     1       1.224   8.015  20.745  0.00  0.00    +0.000 C 
BRANCH  15  19
ATOM     16  C   UNL     1       2.764   4.632  18.596  0.00  0.00    +0.000 A 
ATOM     17  C   UNL     1       2.195   4.433  19.876  0.00  0.00    +0.000 A 
ATOM     18  C   UNL     1       1.775   5.527  20.652  0.00  0.00    +0.000 A 
ATOM     19  C   UNL     1       1.932   6.828  20.163  0.00  0.00    +0.000 A 
ATOM     20  C   UNL     1       2.542   7.013  18.895  0.00  0.00    +0.000 A 
ATOM     21  C   UNL     1       2.947   5.930  18.130  0.00  0.00    +0.000 A 
BRANCH  16  23
ATOM     22  C   UNL     1       2.482   2.375  17.733  0.00  0.00    +0.000 C 
ATOM     23  O   UNL     1       3.097   3.609  17.769  0.00  0.00    +0.000 OA
ENDBRANCH  16  23
ENDBRANCH  15  19
ENDBRANCH   9  15
ENDBRANCH   1  12
BRANCH   1  24
ATOM     24  C   UNL     1      -1.082  13.698  19.658  0.00  0.00    +0.000 C 
BRANCH  24  25
ATOM     25  C   UNL     1       0.351  14.032  19.229  0.00  0.00    +0.000 A 
ATOM     26  C   UNL     1       1.089  13.151  18.412  0.00  0.00    +0.000 A 
ATOM     27  C   UNL     1       2.407  13.452  18.046  0.00  0.00    +0.000 A 
ATOM     28  C   UNL     1       3.012  14.643  18.475  0.00  0.00    +0.000 A 
ATOM     29  C   UNL     1       4.419  14.990  18.083  0.00  0.00    +0.000 C 
ATOM     30  C   UNL     1       2.284  15.521  19.289  0.00  0.00    +0.000 A 
ATOM     31  C   UNL     1       0.972  15.220  19.664  0.00  0.00    +0.000 A 
ENDBRANCH  24  25
BRANCH  24  32
ATOM     32  O   UNL     1      -1.264  14.043  21.007  0.00  0.00    +0.000 OA
ATOM     33  H   UNL     1      -2.098  13.611  21.327  0.00  0.00    +0.000 HD
ENDBRANCH  24  32
ENDBRANCH   1  24
TORSDOF 8
ENDMDL
MODEL 3
REMARK VINA RESULT:      -6.9      3.196      7.294
REMARK  Name = 
REMARK  11 active torsions:
REMARK  status: ('A' for Active; 'I' for Inactive)
REMARK    1  A    between atoms: C_1  and  O_2
REMARK    2  A    between atoms: O_2  and  C_3
REMARK    3  A    between atoms: C_6  and  C_7
REMARK    4  A    between atoms: C_7  and  N_8
REMARK    5  A    between atoms: N_11  and  C_12
REMARK    6  A    between atoms: C_12  and  C_13
REMARK    7  A    between atoms: C_12  and  C_20
REMARK    8  A    between atoms: C_16  and  C_17
REMARK    9  A    between atoms: C_20  and  O_21
REMARK   10  A    between atoms: C_20  and  C_22
REMARK   11  A    between atoms: C_25  and  C_26
REMARK                            x       y       z     vdW  Elec       q    Type
REMARK                         _______ _______ _______ _____ _____    ______ ____
ROOT
ATOM      1  C   UNL     1      -1.414  11.589  18.924  0.00  0.00    +0.000 C 
ENDROOT
BRANCH   1   2
ATOM      2  C   UNL     1      -2.923  11.699  18.545  0.00  0.00    +0.000 A 
ATOM      3  C   UNL     1      -3.402  11.443  17.237  0.00  0.00    +0.000 A 
ATOM      4  C   UNL     1      -4.734  11.714  16.892  0.00  0.00    +0.000 A 
ATOM      5  C   UNL     1      -5.603  12.298  17.823  0.00  0.00    +0.000 A 
ATOM      6  C   UNL     1      -7.000  12.700  17.442  0.00  0.00    +0.000 C 
ATOM      7  C   UNL     1      -5.148  12.537  19.120  0.00  0.00    +0.000 A 
ATOM      8  C   UNL     1      -3.842  12.207  19.489  0.00  0.00    +0.000 A 
ENDBRANCH   1   2
BRANCH   1  12
ATOM      9  N   UNL     1       1.787   9.121  18.865  0.00  0.00    +0.000 NA
ATOM     10  C   UNL     1       1.009   9.957  17.944  0.00  0.00    +0.000 C 
ATOM     11  C   UNL     1      -0.478   9.507  18.037  0.00  0.00    +0.000 C 
ATOM     12  N   UNL     1      -1.098  10.130  19.204  0.00  0.00    +0.000 NA
ATOM     13  C   UNL     1      -0.350   9.582  20.384  0.00  0.00    +0.000 C 
ATOM     14  C   UNL     1       1.232   9.370  20.242  0.00  0.00    +0.000 C 
BRANCH   9  15
ATOM     15  C   UNL     1       1.962   7.832  18.106  0.00  0.00    +0.000 C 
BRANCH  15  19
ATOM     16  C   UNL     1       5.216   5.156  17.279  0.00  0.00    +0.000 A 
ATOM     17  C   UNL     1       4.170   4.724  18.127  0.00  0.00    +0.000 A 
ATOM     18  C   UNL     1       3.141   5.606  18.503  0.00  0.00    +0.000 A 
ATOM     19  C   UNL     1       3.158   6.929  18.047  0.00  0.00    +0.000 A 
ATOM     20  C   UNL     1       4.237   7.357  17.231  0.00  0.00    +0.000 A 
ATOM     21  C   UNL     1       5.244   6.481  16.856  0.00  0.00    +0.000 A 
BRANCH  16  23
ATOM     22  C   UNL     1       6.921   4.518  15.666  0.00  0.00    +0.000 C 
ATOM     23  O   UNL     1       6.178   4.321  16.809  0.00  0.00    +0.000 OA
ENDBRANCH  16  23
ENDBRANCH  15  19
ENDBRANCH   9  15
ENDBRANCH   1  12
BRANCH   1  24
ATOM     24  C   UNL     1      -1.067  12.605  20.061  0.00  0.00    +0.000 C 
BRANCH  24  25
ATOM     25  C   UNL     1       0.342  13.175  19.862  0.00  0.00    +0.000 A 
ATOM     26  C   UNL     1       1.219  13.340  20.953  0.00  0.00    +0.000 A 
ATOM     27  C   UNL     1       2.496  13.886  20.766  0.00  0.00    +0.000 A 
ATOM     28  C   UNL     1       2.929  14.265  19.486  0.00  0.00    +0.000 A 
ATOM     29  C   UNL     1       4.298  14.839  19.263  0.00  0.00    +0.000 C 
ATOM     30  C   UNL     1       2.060  14.105  18.399  0.00  0.00    +0.000 A 
ATOM     31  C   UNL     1       0.783  13.570  18.583  0.00  0.00    +0.000 A 
ENDBRANCH  24  25
BRANCH  24  32
ATOM     32  O   UNL     1      -1.168  12.030  21.339  0.00  0.00    +0.000 OA
ATOM     33  H   UNL     1      -0.262  11.733  21.616  0.00  0.00    +0.000 HD
ENDBRANCH  24  32
ENDBRANCH   1  24
TORSDOF 8
ENDMDL
MODEL 4
REMARK VINA RESULT:      -6.9      3.069      7.135
REMARK  Name = 
REMARK  11 active torsions:
REMARK  status: ('A' for Active; 'I' for Inactive)
REMARK    1  A    between atoms: C_1  and  O_2
REMARK    2  A    between atoms: O_2  and  C_3
REMARK    3  A    between atoms: C_6  and  C_7
REMARK    4  A    between atoms: C_7  and  N_8
REMARK    5  A    between atoms: N_11  and  C_12
REMARK    6  A    between atoms: C_12  and  C_13
REMARK    7  A    between atoms: C_12  and  C_20
REMARK    8  A    between atoms: C_16  and  C_17
REMARK    9  A    between atoms: C_20  and  O_21
REMARK   10  A    between atoms: C_20  and  C_22
REMARK   11  A    between atoms: C_25  and  C_26
REMARK                            x       y       z     vdW  Elec       q    Type
REMARK                         _______ _______ _______ _____ _____    ______ ____
ROOT
ATOM      1  C   UNL     1       0.599  14.238  19.985  0.00  0.00    +0.000 C 
ENDROOT
BRANCH   1   2
ATOM      2  C   UNL     1       1.885  15.090  19.758  0.00  0.00    +0.000 A 
ATOM      3  C   UNL     1       2.078  15.891  18.606  0.00  0.00    +0.000 A 
ATOM      4  C   UNL     1       3.311  16.508  18.356  0.00  0.00    +0.000 A 
ATOM      5  C   UNL     1       4.397  16.297  19.215  0.00  0.00    +0.000 A 
ATOM      6  C   UNL     1       5.758  16.856  18.907  0.00  0.00    +0.000 C 
ATOM      7  C   UNL     1       4.215  15.526  20.364  0.00  0.00    +0.000 A 
ATOM      8  C   UNL     1       2.970  14.963  20.654  0.00  0.00    +0.000 A 
ENDBRANCH   1   2
BRANCH   1  12
ATOM      9  N   UNL     1       0.184  10.300  19.172  0.00  0.00    +0.000 NA
ATOM     10  C   UNL     1       1.168  11.218  19.756  0.00  0.00    +0.000 C 
ATOM     11  C   UNL     1       1.456  12.332  18.708  0.00  0.00    +0.000 C 
ATOM     12  N   UNL     1       0.402  13.341  18.774  0.00  0.00    +0.000 NA
ATOM     13  C   UNL     1      -0.855  12.620  18.383  0.00  0.00    +0.000 C 
ATOM     14  C   UNL     1      -1.051  11.115  18.896  0.00  0.00    +0.000 C 
BRANCH   9  15
ATOM     15  C   UNL     1       1.009   9.442  18.250  0.00  0.00    +0.000 C 
BRANCH  15  19
ATOM     16  C   UNL     1       3.618   6.071  18.764  0.00  0.00    +0.000 A 
ATOM     17  C   UNL     1       2.717   6.406  19.800  0.00  0.00    +0.000 A 
ATOM     18  C   UNL     1       1.921   7.562  19.712  0.00  0.00    +0.000 A 
ATOM     19  C   UNL     1       2.029   8.398  18.596  0.00  0.00    +0.000 A 
ATOM     20  C   UNL     1       2.968   8.068  17.584  0.00  0.00    +0.000 A 
ATOM     21  C   UNL     1       3.744   6.923  17.672  0.00  0.00    +0.000 A 
BRANCH  16  23
ATOM     22  C   UNL     1       5.691   4.817  18.995  0.00  0.00    +0.000 C 
ATOM     23  O   UNL     1       4.337   4.919  18.755  0.00  0.00    +0.000 OA
ENDBRANCH  16  23
ENDBRANCH  15  19
ENDBRANCH   9  15
ENDBRANCH   1  12
BRANCH   1  24
ATOM     24  C   UNL     1      -0.603  15.163  20.365  0.00  0.00    +0.000 C 
BRANCH  24  25
ATOM     25  C   UNL     1      -1.511  14.472  21.389  0.00  0.00    +0.000 A 
ATOM     26  C   UNL     1      -2.798  14.973  21.672  0.00  0.00    +0.000 A 
ATOM     27  C   UNL     1      -3.612  14.350  22.628  0.00  0.00    +0.000 A 
ATOM     28  C   UNL     1      -3.164  13.209  23.310  0.00  0.00    +0.000 A 
ATOM     29  C   UNL     1      -4.026  12.520  24.328  0.00  0.00    +0.000 C 
ATOM     30  C   UNL     1      -1.885  12.709  23.034  0.00  0.00    +0.000 A 
ATOM     31  C   UNL     1      -1.067  13.332  22.088  0.00  0.00    +0.000 A 
ENDBRANCH  24  25
BRANCH  24  32
ATOM     32  O   UNL     1      -1.359  15.544  19.244  0.00  0.00    +0.000 OA
ATOM     33  H   UNL     1      -0.901  15.203  18.432  0.00  0.00    +0.000 HD
ENDBRANCH  24  32
ENDBRANCH   1  24
TORSDOF 8
ENDMDL
MODEL 5
REMARK VINA RESULT:      -6.9      3.296      7.443
REMARK  Name = 
REMARK  11 active torsions:
REMARK  status: ('A' for Active; 'I' for Inactive)
REMARK    1  A    between atoms: C_1  and  O_2
REMARK    2  A    between atoms: O_2  and  C_3
REMARK    3  A    between atoms: C_6  and  C_7
REMARK    4  A    between atoms: C_7  and  N_8
REMARK    5  A    between atoms: N_11  and  C_12
REMARK    6  A    between atoms: C_12  and  C_13
REMARK    7  A    between atoms: C_12  and  C_20
REMARK    8  A    between atoms: C_16  and  C_17
REMARK    9  A    between atoms: C_20  and  O_21
REMARK   10  A    between atoms: C_20  and  C_22
REMARK   11  A    between atoms: C_25  and  C_26
REMARK                            x       y       z     vdW  Elec       q    Type
REMARK                         _______ _______ _______ _____ _____    ______ ____
ROOT
ATOM      1  C   UNL     1      -1.284  11.892  19.377  0.00  0.00    +0.000 C 
ENDROOT
BRANCH   1   2
ATOM      2  C   UNL     1      -2.819  12.159  19.320  0.00  0.00    +0.000 A 
ATOM      3  C   UNL     1      -3.520  12.810  20.364  0.00  0.00    +0.000 A 
ATOM      4  C   UNL     1      -4.920  12.883  20.356  0.00  0.00    +0.000 A 
ATOM      5  C   UNL     1      -5.657  12.262  19.339  0.00  0.00    +0.000 A 
ATOM      6  C   UNL     1      -7.159  12.230  19.370  0.00  0.00    +0.000 C 
ATOM      7  C   UNL     1      -4.977  11.635  18.294  0.00  0.00    +0.000 A 
ATOM      8  C   UNL     1      -3.581  11.616  18.262  0.00  0.00    +0.000 A 
ENDBRANCH   1   2
BRANCH   1  12
ATOM      9  N   UNL     1       1.742   9.258  18.881  0.00  0.00    +0.000 NA
ATOM     10  C   UNL     1       1.011  10.270  18.111  0.00  0.00    +0.000 C 
ATOM     11  C   UNL     1      -0.502   9.909  18.170  0.00  0.00    +0.000 C 
ATOM     12  N   UNL     1      -1.063  10.389  19.431  0.00  0.00    +0.000 NA
ATOM     13  C   UNL     1      -0.340   9.624  20.499  0.00  0.00    +0.000 C 
ATOM     14  C   UNL     1       1.223   9.333  20.292  0.00  0.00    +0.000 C 
BRANCH   9  15
ATOM     15  C   UNL     1       1.820   8.088  17.935  0.00  0.00    +0.000 C 
BRANCH  15  19
ATOM     16  C   UNL     1       4.595   4.896  17.194  0.00  0.00    +0.000 A 
ATOM     17  C   UNL     1       3.336   4.594  17.763  0.00  0.00    +0.000 A 
ATOM     18  C   UNL     1       2.443   5.621  18.115  0.00  0.00    +0.000 A 
ATOM     19  C   UNL     1       2.806   6.958  17.915  0.00  0.00    +0.000 A 
ATOM     20  C   UNL     1       4.089   7.244  17.381  0.00  0.00    +0.000 A 
ATOM     21  C   UNL     1       4.962   6.228  17.027  0.00  0.00    +0.000 A 
BRANCH  16  23
ATOM     22  C   UNL     1       6.453   4.134  15.821  0.00  0.00    +0.000 C 
ATOM     23  O   UNL     1       5.452   3.942  16.748  0.00  0.00    +0.000 OA
ENDBRANCH  16  23
ENDBRANCH  15  19
ENDBRANCH   9  15
ENDBRANCH   1  12
BRANCH   1  24
ATOM     24  C   UNL     1      -0.631  12.730  20.524  0.00  0.00    +0.000 C 
BRANCH  24  25
ATOM     25  C   UNL     1       0.712  13.313  20.067  0.00  0.00    +0.000 A 
ATOM     26  C   UNL     1       0.872  13.835  18.767  0.00  0.00    +0.000 A 
ATOM     27  C   UNL     1       2.109  14.342  18.348  0.00  0.00    +0.000 A 
ATOM     28  C   UNL     1       3.208  14.351  19.222  0.00  0.00    +0.000 A 
ATOM     29  C   UNL     1       4.538  14.902  18.797  0.00  0.00    +0.000 C 
ATOM     30  C   UNL     1       3.055  13.832  20.514  0.00  0.00    +0.000 A 
ATOM     31  C   UNL     1       1.825  13.317  20.931  0.00  0.00    +0.000 A 
ENDBRANCH  24  25
BRANCH  24  32
ATOM     32  O   UNL     1      -0.444  11.978  21.695  0.00  0.00    +0.000 OA
ATOM     33  H   UNL     1       0.272  11.313  21.524  0.00  0.00    +0.000 HD
ENDBRANCH  24  32
ENDBRANCH   1  24
TORSDOF 8
ENDMDL
MODEL 6
REMARK VINA RESULT:      -6.9      3.048      8.116
REMARK  Name = 
REMARK  11 active torsions:
REMARK  status: ('A' for Active; 'I' for Inactive)
REMARK    1  A    between atoms: C_1  and  O_2
REMARK    2  A    between atoms: O_2  and  C_3
REMARK    3  A    between atoms: C_6  and  C_7
REMARK    4  A    between atoms: C_7  and  N_8
REMARK    5  A    between atoms: N_11  and  C_12
REMARK    6  A    between atoms: C_12  and  C_13
REMARK    7  A    between atoms: C_12  and  C_20
REMARK    8  A    between atoms: C_16  and  C_17
REMARK    9  A    between atoms: C_20  and  O_21
REMARK   10  A    between atoms: C_20  and  C_22
REMARK   11  A    between atoms: C_25  and  C_26
REMARK                            x       y       z     vdW  Elec       q    Type
REMARK                         _______ _______ _______ _____ _____    ______ ____
ROOT
ATOM      1  C   UNL     1      -0.485  11.712  20.128  0.00  0.00    +0.000 C 
ENDROOT
BRANCH   1   2
ATOM      2  C   UNL     1      -1.851  11.895  19.399  0.00  0.00    +0.000 A 
ATOM      3  C   UNL     1      -3.014  12.358  20.061  0.00  0.00    +0.000 A 
ATOM      4  C   UNL     1      -4.260  12.351  19.419  0.00  0.00    +0.000 A 
ATOM      5  C   UNL     1      -4.388  11.831  18.124  0.00  0.00    +0.000 A 
ATOM      6  C   UNL     1      -5.730  11.709  17.459  0.00  0.00    +0.000 C 
ATOM      7  C   UNL     1      -3.246  11.390  17.453  0.00  0.00    +0.000 A 
ATOM      8  C   UNL     1      -1.992  11.456  18.063  0.00  0.00    +0.000 A 
ENDBRANCH   1   2
BRANCH   1  12
ATOM      9  N   UNL     1       1.590   8.401  21.164  0.00  0.00    +0.000 NA
ATOM     10  C   UNL     1       0.931   8.977  19.987  0.00  0.00    +0.000 C 
ATOM     11  C   UNL     1      -0.548   9.275  20.372  0.00  0.00    +0.000 C 
ATOM     12  N   UNL     1      -0.613  10.544  21.092  0.00  0.00    +0.000 NA
ATOM     13  C   UNL     1       0.180  10.323  22.347  0.00  0.00    +0.000 C 
ATOM     14  C   UNL     1       1.512   9.439  22.251  0.00  0.00    +0.000 C 
BRANCH   9  15
ATOM     15  C   UNL     1       1.131   6.966  21.155  0.00  0.00    +0.000 C 
BRANCH  15  19
ATOM     16  C   UNL     1       2.941   3.387  19.622  0.00  0.00    +0.000 A 
ATOM     17  C   UNL     1       3.562   4.633  19.372  0.00  0.00    +0.000 A 
ATOM     18  C   UNL     1       2.947   5.833  19.769  0.00  0.00    +0.000 A 
ATOM     19  C   UNL     1       1.701   5.800  20.404  0.00  0.00    +0.000 A 
ATOM     20  C   UNL     1       1.073   4.544  20.610  0.00  0.00    +0.000 A 
ATOM     21  C   UNL     1       1.687   3.363  20.225  0.00  0.00    +0.000 A 
BRANCH  16  23
ATOM     22  C   UNL     1       3.667   1.638  18.095  0.00  0.00    +0.000 C 
ATOM     23  O   UNL     1       3.535   2.198  19.348  0.00  0.00    +0.000 OA
ENDBRANCH  16  23
ENDBRANCH  15  19
ENDBRANCH   9  15
ENDBRANCH   1  12
BRANCH   1  24
ATOM     24  C   UNL     1      -0.013  13.070  20.741  0.00  0.00    +0.000 C 
BRANCH  24  25
ATOM     25  C   UNL     1       1.215  13.601  19.991  0.00  0.00    +0.000 A 
ATOM     26  C   UNL     1       1.771  14.857  20.308  0.00  0.00    +0.000 A 
ATOM     27  C   UNL     1       2.878  15.346  19.600  0.00  0.00    +0.000 A 
ATOM     28  C   UNL     1       3.459  14.587  18.573  0.00  0.00    +0.000 A 
ATOM     29  C   UNL     1       4.652  15.088  17.811  0.00  0.00    +0.000 C 
ATOM     30  C   UNL     1       2.908  13.339  18.253  0.00  0.00    +0.000 A 
ATOM     31  C   UNL     1       1.799  12.852  18.950  0.00  0.00    +0.000 A 
ENDBRANCH  24  25
BRANCH  24  32
ATOM     32  O   UNL     1       0.281  12.963  22.111  0.00  0.00    +0.000 OA
ATOM     33  H   UNL     1      -0.475  13.355  22.620  0.00  0.00    +0.000 HD
ENDBRANCH  24  32
ENDBRANCH   1  24
TORSDOF 8
ENDMDL
MODEL 7
REMARK VINA RESULT:      -6.9      3.056      7.742
REMARK  Name = 
REMARK  11 active torsions:
REMARK  status: ('A' for Active; 'I' for Inactive)
REMARK    1  A    between atoms: C_1  and  O_2
REMARK    2  A    between atoms: O_2  and  C_3
REMARK    3  A    between atoms: C_6  and  C_7
REMARK    4  A    between atoms: C_7  and  N_8
REMARK    5  A    between atoms: N_11  and  C_12
REMARK    6  A    between atoms: C_12  and  C_13
REMARK    7  A    between atoms: C_12  and  C_20
REMARK    8  A    between atoms: C_16  and  C_17
REMARK    9  A    between atoms: C_20  and  O_21
REMARK   10  A    between atoms: C_20  and  C_22
REMARK   11  A    between atoms: C_25  and  C_26
REMARK                            x       y       z     vdW  Elec       q    Type
REMARK                         _______ _______ _______ _____ _____    ______ ____
ROOT
ATOM      1  C   UNL     1      -1.477  11.616  18.944  0.00  0.00    +0.000 C 
ENDROOT
BRANCH   1   2
ATOM      2  C   UNL     1      -2.991  11.707  18.582  0.00  0.00    +0.000 A 
ATOM      3  C   UNL     1      -3.484  11.426  17.285  0.00  0.00    +0.000 A 
ATOM      4  C   UNL     1      -4.823  11.679  16.952  0.00  0.00    +0.000 A 
ATOM      5  C   UNL     1      -5.685  12.270  17.885  0.00  0.00    +0.000 A 
ATOM      6  C   UNL     1      -7.091  12.654  17.517  0.00  0.00    +0.000 C 
ATOM      7  C   UNL     1      -5.216  12.533  19.173  0.00  0.00    +0.000 A 
ATOM      8  C   UNL     1      -3.903  12.221  19.530  0.00  0.00    +0.000 A 
ENDBRANCH   1   2
BRANCH   1  12
ATOM      9  N   UNL     1       1.825   9.285  18.868  0.00  0.00    +0.000 NA
ATOM     10  C   UNL     1       1.066  10.168  17.976  0.00  0.00    +0.000 C 
ATOM     11  C   UNL     1      -0.403   9.656  17.941  0.00  0.00    +0.000 C 
ATOM     12  N   UNL     1      -1.114  10.151  19.117  0.00  0.00    +0.000 NA
ATOM     13  C   UNL     1      -0.412   9.530  20.289  0.00  0.00    +0.000 C 
ATOM     14  C   UNL     1       1.183   9.392  20.225  0.00  0.00    +0.000 C 
BRANCH   9  15
ATOM     15  C   UNL     1       2.098   8.075  18.014  0.00  0.00    +0.000 C 
BRANCH  15  19
ATOM     16  C   UNL     1       3.697   4.168  18.799  0.00  0.00    +0.000 A 
ATOM     17  C   UNL     1       2.465   4.281  18.115  0.00  0.00    +0.000 A 
ATOM     18  C   UNL     1       1.860   5.537  17.930  0.00  0.00    +0.000 A 
ATOM     19  C   UNL     1       2.473   6.687  18.440  0.00  0.00    +0.000 A 
ATOM     20  C   UNL     1       3.689   6.550  19.160  0.00  0.00    +0.000 A 
ATOM     21  C   UNL     1       4.286   5.311  19.331  0.00  0.00    +0.000 A 
BRANCH  16  23
ATOM     22  C   UNL     1       4.406   2.204  20.047  0.00  0.00    +0.000 C 
ATOM     23  O   UNL     1       4.369   2.995  18.919  0.00  0.00    +0.000 OA
ENDBRANCH  16  23
ENDBRANCH  15  19
ENDBRANCH   9  15
ENDBRANCH   1  12
BRANCH   1  24
ATOM     24  C   UNL     1      -1.151  12.559  20.148  0.00  0.00    +0.000 C 
BRANCH  24  25
ATOM     25  C   UNL     1       0.197  13.258  19.934  0.00  0.00    +0.000 A 
ATOM     26  C   UNL     1       1.338  12.875  20.668  0.00  0.00    +0.000 A 
ATOM     27  C   UNL     1       2.560  13.536  20.485  0.00  0.00    +0.000 A 
ATOM     28  C   UNL     1       2.671  14.584  19.559  0.00  0.00    +0.000 A 
ATOM     29  C   UNL     1       3.974  15.297  19.340  0.00  0.00    +0.000 C 
ATOM     30  C   UNL     1       1.539  14.971  18.829  0.00  0.00    +0.000 A 
ATOM     31  C   UNL     1       0.317  14.319  19.015  0.00  0.00    +0.000 A 
ENDBRANCH  24  25
BRANCH  24  32
ATOM     32  O   UNL     1      -1.138  11.873  21.374  0.00  0.00    +0.000 OA
ATOM     33  H   UNL     1      -1.527  12.468  22.065  0.00  0.00    +0.000 HD
ENDBRANCH  24  32
ENDBRANCH   1  24
TORSDOF 8
ENDMDL
MODEL 8
REMARK VINA RESULT:      -6.8      2.878      8.011
REMARK  Name = 
REMARK  11 active torsions:
REMARK  status: ('A' for Active; 'I' for Inactive)
REMARK    1  A    between atoms: C_1  and  O_2
REMARK    2  A    between atoms: O_2  and  C_3
REMARK    3  A    between atoms: C_6  and  C_7
REMARK    4  A    between atoms: C_7  and  N_8
REMARK    5  A    between atoms: N_11  and  C_12
REMARK    6  A    between atoms: C_12  and  C_13
REMARK    7  A    between atoms: C_12  and  C_20
REMARK    8  A    between atoms: C_16  and  C_17
REMARK    9  A    between atoms: C_20  and  O_21
REMARK   10  A    between atoms: C_20  and  C_22
REMARK   11  A    between atoms: C_25  and  C_26
REMARK                            x       y       z     vdW  Elec       q    Type
REMARK                         _______ _______ _______ _____ _____    ______ ____
ROOT
ATOM      1  C   UNL     1      -1.294  11.829  19.072  0.00  0.00    +0.000 C 
ENDROOT
BRANCH   1   2
ATOM      2  C   UNL     1      -2.820  11.973  18.787  0.00  0.00    +0.000 A 
ATOM      3  C   UNL     1      -3.734  12.465  19.750  0.00  0.00    +0.000 A 
ATOM      4  C   UNL     1      -5.116  12.424  19.520  0.00  0.00    +0.000 A 
ATOM      5  C   UNL     1      -5.623  11.839  18.352  0.00  0.00    +0.000 A 
ATOM      6  C   UNL     1      -7.102  11.681  18.135  0.00  0.00    +0.000 C 
ATOM      7  C   UNL     1      -4.733  11.368  17.386  0.00  0.00    +0.000 A 
ATOM      8  C   UNL     1      -3.353  11.468  17.580  0.00  0.00    +0.000 A 
ENDBRANCH   1   2
BRANCH   1  12
ATOM      9  N   UNL     1       1.943   9.420  19.313  0.00  0.00    +0.000 NA
ATOM     10  C   UNL     1       1.293  10.316  18.351  0.00  0.00    +0.000 C 
ATOM     11  C   UNL     1      -0.179   9.839  18.180  0.00  0.00    +0.000 C 
ATOM     12  N   UNL     1      -0.985  10.356  19.283  0.00  0.00    +0.000 NA
ATOM     13  C   UNL     1      -0.411   9.725  20.517  0.00  0.00    +0.000 C 
ATOM     14  C   UNL     1       1.179   9.548  20.604  0.00  0.00    +0.000 C 
BRANCH   9  15
ATOM     15  C   UNL     1       2.266   8.199  18.492  0.00  0.00    +0.000 C 
BRANCH  15  19
ATOM     16  C   UNL     1       1.684   4.048  19.423  0.00  0.00    +0.000 A 
ATOM     17  C   UNL     1       1.734   4.989  20.478  0.00  0.00    +0.000 A 
ATOM     18  C   UNL     1       2.025   6.340  20.221  0.00  0.00    +0.000 A 
ATOM     19  C   UNL     1       2.283   6.759  18.911  0.00  0.00    +0.000 A 
ATOM     20  C   UNL     1       2.269   5.795  17.870  0.00  0.00    +0.000 A 
ATOM     21  C   UNL     1       1.973   4.465  18.128  0.00  0.00    +0.000 A 
BRANCH  16  23
ATOM     22  C   UNL     1       1.958   1.656  19.079  0.00  0.00    +0.000 C 
ATOM     23  O   UNL     1       1.313   2.755  19.605  0.00  0.00    +0.000 OA
ENDBRANCH  16  23
ENDBRANCH  15  19
ENDBRANCH   9  15
ENDBRANCH   1  12
BRANCH   1  24
ATOM     24  C   UNL     1      -0.864  12.799  20.221  0.00  0.00    +0.000 C 
BRANCH  24  25
ATOM     25  C   UNL     1       0.535  13.365  19.952  0.00  0.00    +0.000 A 
ATOM     26  C   UNL     1       0.833  14.019  18.739  0.00  0.00    +0.000 A 
ATOM     27  C   UNL     1       2.122  14.510  18.491  0.00  0.00    +0.000 A 
ATOM     28  C   UNL     1       3.135  14.371  19.452  0.00  0.00    +0.000 A 
ATOM     29  C   UNL     1       4.518  14.901  19.210  0.00  0.00    +0.000 C 
ATOM     30  C   UNL     1       2.845  13.719  20.657  0.00  0.00    +0.000 A 
ATOM     31  C   UNL     1       1.563  13.220  20.905  0.00  0.00    +0.000 A 
ENDBRANCH  24  25
BRANCH  24  32
ATOM     32  O   UNL     1      -0.888  12.178  21.481  0.00  0.00    +0.000 OA
ATOM     33  H   UNL     1      -1.720  11.641  21.545  0.00  0.00    +0.000 HD
ENDBRANCH  24  32
ENDBRANCH   1  24
TORSDOF 8
ENDMDL
MODEL 9
REMARK VINA RESULT:      -6.8      4.004      6.617
REMARK  Name = 
REMARK  11 active torsions:
REMARK  status: ('A' for Active; 'I' for Inactive)
REMARK    1  A    between atoms: C_1  and  O_2
REMARK    2  A    between atoms: O_2  and  C_3
REMARK    3  A    between atoms: C_6  and  C_7
REMARK    4  A    between atoms: C_7  and  N_8
REMARK    5  A    between atoms: N_11  and  C_12
REMARK    6  A    between atoms: C_12  and  C_13
REMARK    7  A    between atoms: C_12  and  C_20
REMARK    8  A    between atoms: C_16  and  C_17
REMARK    9  A    between atoms: C_20  and  O_21
REMARK   10  A    between atoms: C_20  and  C_22
REMARK   11  A    between atoms: C_25  and  C_26
REMARK                            x       y       z     vdW  Elec       q    Type
REMARK                         _______ _______ _______ _____ _____    ______ ____
ROOT
ATOM      1  C   UNL     1      -0.619  11.593  20.221  0.00  0.00    +0.000 C 
ENDROOT
BRANCH   1   2
ATOM      2  C   UNL     1      -0.751  12.433  21.528  0.00  0.00    +0.000 A 
ATOM      3  C   UNL     1      -1.647  12.090  22.569  0.00  0.00    +0.000 A 
ATOM      4  C   UNL     1      -1.861  12.956  23.651  0.00  0.00    +0.000 A 
ATOM      5  C   UNL     1      -1.232  14.208  23.692  0.00  0.00    +0.000 A 
ATOM      6  C   UNL     1      -1.533  15.198  24.782  0.00  0.00    +0.000 C 
ATOM      7  C   UNL     1      -0.332  14.549  22.682  0.00  0.00    +0.000 A 
ATOM      8  C   UNL     1      -0.064  13.663  21.637  0.00  0.00    +0.000 A 
ENDBRANCH   1   2
BRANCH   1  12
ATOM      9  N   UNL     1       1.511   8.672  18.413  0.00  0.00    +0.000 NA
ATOM     10  C   UNL     1       0.474   8.819  19.439  0.00  0.00    +0.000 C 
ATOM     11  C   UNL     1       1.016   9.795  20.524  0.00  0.00    +0.000 C 
ATOM     12  N   UNL     1       0.833  11.171  20.070  0.00  0.00    +0.000 NA
ATOM     13  C   UNL     1       1.682  11.294  18.840  0.00  0.00    +0.000 C 
ATOM     14  C   UNL     1       1.745  10.044  17.839  0.00  0.00    +0.000 C 
BRANCH   9  15
ATOM     15  C   UNL     1       2.481   7.699  19.032  0.00  0.00    +0.000 C 
BRANCH  15  19
ATOM     16  C   UNL     1       4.531   4.862  16.545  0.00  0.00    +0.000 A 
ATOM     17  C   UNL     1       3.556   4.397  17.458  0.00  0.00    +0.000 A 
ATOM     18  C   UNL     1       2.938   5.282  18.359  0.00  0.00    +0.000 A 
ATOM     19  C   UNL     1       3.300   6.634  18.366  0.00  0.00    +0.000 A 
ATOM     20  C   UNL     1       4.310   7.075  17.472  0.00  0.00    +0.000 A 
ATOM     21  C   UNL     1       4.909   6.200  16.580  0.00  0.00    +0.000 A 
BRANCH  16  23
ATOM     22  C   UNL     1       6.385   4.153  15.140  0.00  0.00    +0.000 C 
ATOM     23  O   UNL     1       5.086   4.071  15.592  0.00  0.00    +0.000 OA
ENDBRANCH  16  23
ENDBRANCH  15  19
ENDBRANCH   9  15
ENDBRANCH   1  12
BRANCH   1  24
ATOM     24  C   UNL     1      -1.246  12.366  19.016  0.00  0.00    +0.000 C 
BRANCH  24  25
ATOM     25  C   UNL     1      -2.730  12.014  18.864  0.00  0.00    +0.000 A 
ATOM     26  C   UNL     1      -3.704  12.596  19.701  0.00  0.00    +0.000 A 
ATOM     27  C   UNL     1      -5.055  12.250  19.573  0.00  0.00    +0.000 A 
ATOM     28  C   UNL     1      -5.465  11.326  18.599  0.00  0.00    +0.000 A 
ATOM     29  C   UNL     1      -6.909  10.951  18.437  0.00  0.00    +0.000 C 
ATOM     30  C   UNL     1      -4.501  10.743  17.766  0.00  0.00    +0.000 A 
ATOM     31  C   UNL     1      -3.151  11.079  17.897  0.00  0.00    +0.000 A 
ENDBRANCH  24  25
BRANCH  24  32
ATOM     32  O   UNL     1      -0.574  12.108  17.809  0.00  0.00    +0.000 OA
ATOM     33  H   UNL     1       0.392  12.293  17.948  0.00  0.00    +0.000 HD
ENDBRANCH  24  32
ENDBRANCH   1  24
TORSDOF 8
ENDMDL
