MODEL 1
REMARK VINA RESULT:      -8.2      0.000      0.000
REMARK  Name = 
REMARK  4 active torsions:
REMARK  status: ('A' for Active; 'I' for Inactive)
REMARK    1  A    between atoms: O_1  and  C_2
REMARK    2  A    between atoms: C_2  and  C_3
REMARK    3  A    between atoms: C_2  and  C_12
REMARK    4  A    between atoms: C_4  and  C_5
REMARK                            x       y       z     vdW  Elec       q    Type
REMARK                         _______ _______ _______ _____ _____    ______ ____
ROOT
ATOM      1  C   UNL     1       6.812   5.538  18.339  0.00  0.00    +0.000 C 
ENDROOT
BRANCH   1   2
ATOM      2  C   UNL     1       5.492   4.996  18.798  0.00  0.00    +0.000 A 
ATOM      3  N   UNL     1       4.363   5.660  18.964  0.00  0.00    +0.000 NA
ATOM      4  C   UNL     1       3.433   4.723  19.343  0.00  0.00    +0.000 A 
ATOM      5  C   UNL     1       2.069   4.876  19.629  0.00  0.00    +0.000 A 
ATOM      6  C   UNL     1       1.327   3.745  19.996  0.00  0.00    +0.000 A 
ATOM      7  C   UNL     1       1.933   2.489  20.076  0.00  0.00    +0.000 A 
ATOM      8  C   UNL     1       3.293   2.315  19.793  0.00  0.00    +0.000 A 
ATOM      9  C   UNL     1       4.007   3.459  19.428  0.00  0.00    +0.000 A 
ATOM     10  N   UNL     1       5.316   3.663  19.086  0.00  0.00    +0.000 N 
ATOM     11  H   UNL     1       6.049   2.971  19.019  0.00  0.00    +0.000 HD
ENDBRANCH   1   2
BRANCH   1  12
ATOM     12  O   UNL     1       7.831   4.782  19.005  0.00  0.00    +0.000 OA
ATOM     13  H   UNL     1       7.612   3.845  18.862  0.00  0.00    +0.000 HD
ENDBRANCH   1  12
BRANCH   1  14
ATOM     14  C   UNL     1       7.045   5.395  16.862  0.00  0.00    +0.000 C 
ATOM     15  C   UNL     1       6.217   4.783  15.999  0.00  0.00    +0.000 C 
BRANCH  15  16
ATOM     16  C   UNL     1       6.525   4.612  14.568  0.00  0.00    +0.000 A 
ATOM     17  C   UNL     1       7.539   5.352  13.943  0.00  0.00    +0.000 A 
ATOM     18  C   UNL     1       7.828   5.171  12.588  0.00  0.00    +0.000 A 
ATOM     19  C   UNL     1       7.117   4.233  11.845  0.00  0.00    +0.000 A 
ATOM     20  C   UNL     1       6.127   3.474  12.466  0.00  0.00    +0.000 A 
ATOM     21 CL   UNL     1       5.262   2.299  11.550  0.00  0.00    +0.000 Cl
ATOM     22  C   UNL     1       5.832   3.654  13.819  0.00  0.00    +0.000 A 
ENDBRANCH  15  16
ENDBRANCH   1  14
TORSDOF 4
ENDMDL
MODEL 2
REMARK VINA RESULT:      -8.2      0.218      1.316
REMARK  Name = 
REMARK  4 active torsions:
REMARK  status: ('A' for Active; 'I' for Inactive)
REMARK    1  A    between atoms: O_1  and  C_2
REMARK    2  A    between atoms: C_2  and  C_3
REMARK    3  A    between atoms: C_2  and  C_12
REMARK    4  A    between atoms: C_4  and  C_5
REMARK                            x       y       z     vdW  Elec       q    Type
REMARK                         _______ _______ _______ _____ _____    ______ ____
ROOT
ATOM      1  C   UNL     1       6.787   5.525  18.426  0.00  0.00    +0.000 C 
ENDROOT
BRANCH   1   2
ATOM      2  C   UNL     1       5.491   4.922  18.878  0.00  0.00    +0.000 A 
ATOM      3  N   UNL     1       5.242   3.652  19.139  0.00  0.00    +0.000 NA
ATOM      4  C   UNL     1       3.936   3.610  19.565  0.00  0.00    +0.000 A 
ATOM      5  C   UNL     1       3.165   2.519  19.990  0.00  0.00    +0.000 A 
ATOM      6  C   UNL     1       1.838   2.745  20.383  0.00  0.00    +0.000 A 
ATOM      7  C   UNL     1       1.293   4.031  20.352  0.00  0.00    +0.000 A 
ATOM      8  C   UNL     1       2.048   5.133  19.933  0.00  0.00    +0.000 A 
ATOM      9  C   UNL     1       3.366   4.879  19.549  0.00  0.00    +0.000 A 
ATOM     10  N   UNL     1       4.373   5.690  19.100  0.00  0.00    +0.000 N 
ATOM     11  H   UNL     1       4.343   6.692  18.969  0.00  0.00    +0.000 HD
ENDBRANCH   1   2
BRANCH   1  12
ATOM     12  O   UNL     1       7.833   4.854  19.139  0.00  0.00    +0.000 OA
ATOM     13  H   UNL     1       8.132   5.472  19.828  0.00  0.00    +0.000 HD
ENDBRANCH   1  12
BRANCH   1  14
ATOM     14  C   UNL     1       7.060   5.344  16.960  0.00  0.00    +0.000 C 
ATOM     15  C   UNL     1       6.160   4.949  16.044  0.00  0.00    +0.000 C 
BRANCH  15  16
ATOM     16  C   UNL     1       6.497   4.722  14.627  0.00  0.00    +0.000 A 
ATOM     17  C   UNL     1       7.543   5.415  14.002  0.00  0.00    +0.000 A 
ATOM     18  C   UNL     1       7.859   5.182  12.661  0.00  0.00    +0.000 A 
ATOM     19  C   UNL     1       7.141   4.239  11.932  0.00  0.00    +0.000 A 
ATOM     20  C   UNL     1       6.118   3.526  12.554  0.00  0.00    +0.000 A 
ATOM     21 CL   UNL     1       5.243   2.345  11.656  0.00  0.00    +0.000 Cl
ATOM     22  C   UNL     1       5.796   3.758  13.893  0.00  0.00    +0.000 A 
ENDBRANCH  15  16
ENDBRANCH   1  14
TORSDOF 4
ENDMDL
MODEL 3
REMARK VINA RESULT:      -8.0      1.197      1.371
REMARK  Name = 
REMARK  4 active torsions:
REMARK  status: ('A' for Active; 'I' for Inactive)
REMARK    1  A    between atoms: O_1  and  C_2
REMARK    2  A    between atoms: C_2  and  C_3
REMARK    3  A    between atoms: C_2  and  C_12
REMARK    4  A    between atoms: C_4  and  C_5
REMARK                            x       y       z     vdW  Elec       q    Type
REMARK                         _______ _______ _______ _____ _____    ______ ____
ROOT
ATOM      1  C   UNL     1       5.374   6.282  17.765  0.00  0.00    +0.000 C 
ENDROOT
BRANCH   1   2
ATOM      2  C   UNL     1       4.234   5.517  18.367  0.00  0.00    +0.000 A 
ATOM      3  N   UNL     1       3.329   4.791  17.737  0.00  0.00    +0.000 NA
ATOM      4  C   UNL     1       2.534   4.253  18.720  0.00  0.00    +0.000 A 
ATOM      5  C   UNL     1       1.435   3.389  18.613  0.00  0.00    +0.000 A 
ATOM      6  C   UNL     1       0.787   2.977  19.786  0.00  0.00    +0.000 A 
ATOM      7  C   UNL     1       1.226   3.417  21.037  0.00  0.00    +0.000 A 
ATOM      8  C   UNL     1       2.322   4.278  21.164  0.00  0.00    +0.000 A 
ATOM      9  C   UNL     1       2.949   4.671  19.980  0.00  0.00    +0.000 A 
ATOM     10  N   UNL     1       4.023   5.480  19.725  0.00  0.00    +0.000 N 
ATOM     11  H   UNL     1       4.604   5.961  20.399  0.00  0.00    +0.000 HD
ENDBRANCH   1   2
BRANCH   1  12
ATOM     12  O   UNL     1       6.553   5.923  18.496  0.00  0.00    +0.000 OA
ATOM     13  H   UNL     1       7.204   5.630  17.835  0.00  0.00    +0.000 HD
ENDBRANCH   1  12
BRANCH   1  14
ATOM     14  C   UNL     1       5.627   5.954  16.321  0.00  0.00    +0.000 C 
ATOM     15  C   UNL     1       6.394   4.945  15.875  0.00  0.00    +0.000 C 
BRANCH  15  16
ATOM     16  C   UNL     1       6.664   4.708  14.446  0.00  0.00    +0.000 A 
ATOM     17  C   UNL     1       7.652   5.427  13.757  0.00  0.00    +0.000 A 
ATOM     18  C   UNL     1       7.905   5.185  12.404  0.00  0.00    +0.000 A 
ATOM     19  C   UNL     1       7.184   4.206  11.728  0.00  0.00    +0.000 A 
ATOM     20  C   UNL     1       6.221   3.467  12.412  0.00  0.00    +0.000 A 
ATOM     21 CL   UNL     1       5.343   2.242  11.578  0.00  0.00    +0.000 Cl
ATOM     22  C   UNL     1       5.961   3.709  13.763  0.00  0.00    +0.000 A 
ENDBRANCH  15  16
ENDBRANCH   1  14
TORSDOF 4
ENDMDL
MODEL 4
REMARK VINA RESULT:      -7.8      2.523      6.894
REMARK  Name = 
REMARK  4 active torsions:
REMARK  status: ('A' for Active; 'I' for Inactive)
REMARK    1  A    between atoms: O_1  and  C_2
REMARK    2  A    between atoms: C_2  and  C_3
REMARK    3  A    between atoms: C_2  and  C_12
REMARK    4  A    between atoms: C_4  and  C_5
REMARK                            x       y       z     vdW  Elec       q    Type
REMARK                         _______ _______ _______ _____ _____    ______ ____
ROOT
ATOM      1  C   UNL     1       6.959   4.912  17.604  0.00  0.00    +0.000 C 
ENDROOT
BRANCH   1   2
ATOM      2  C   UNL     1       6.931   4.769  16.112  0.00  0.00    +0.000 A 
ATOM      3  N   UNL     1       7.639   5.443  15.225  0.00  0.00    +0.000 NA
ATOM      4  C   UNL     1       7.299   4.919  14.001  0.00  0.00    +0.000 A 
ATOM      5  C   UNL     1       7.766   5.249  12.721  0.00  0.00    +0.000 A 
ATOM      6  C   UNL     1       7.255   4.552  11.618  0.00  0.00    +0.000 A 
ATOM      7  C   UNL     1       6.299   3.548  11.787  0.00  0.00    +0.000 A 
ATOM      8  C   UNL     1       5.821   3.203  13.057  0.00  0.00    +0.000 A 
ATOM      9  C   UNL     1       6.349   3.913  14.138  0.00  0.00    +0.000 A 
ATOM     10  N   UNL     1       6.127   3.845  15.487  0.00  0.00    +0.000 N 
ATOM     11  H   UNL     1       5.506   3.216  15.977  0.00  0.00    +0.000 HD
ENDBRANCH   1   2
BRANCH   1  12
ATOM     12  O   UNL     1       7.222   6.291  17.889  0.00  0.00    +0.000 OA
ATOM     13  H   UNL     1       6.383   6.667  18.208  0.00  0.00    +0.000 HD
ENDBRANCH   1  12
BRANCH   1  14
ATOM     14  C   UNL     1       5.661   4.557  18.271  0.00  0.00    +0.000 C 
ATOM     15  C   UNL     1       4.548   5.309  18.256  0.00  0.00    +0.000 C 
BRANCH  15  16
ATOM     16  C   UNL     1       3.320   4.947  18.985  0.00  0.00    +0.000 A 
ATOM     17  C   UNL     1       2.833   5.733  20.039  0.00  0.00    +0.000 A 
ATOM     18  C   UNL     1       1.661   5.383  20.714  0.00  0.00    +0.000 A 
ATOM     19  C   UNL     1       0.950   4.250  20.331  0.00  0.00    +0.000 A 
ATOM     20  C   UNL     1       1.412   3.478  19.266  0.00  0.00    +0.000 A 
ATOM     21 CL   UNL     1       0.521   2.087  18.780  0.00  0.00    +0.000 Cl
ATOM     22  C   UNL     1       2.585   3.822  18.591  0.00  0.00    +0.000 A 
ENDBRANCH  15  16
ENDBRANCH   1  14
TORSDOF 4
ENDMDL
MODEL 5
REMARK VINA RESULT:      -7.8      1.322      1.494
REMARK  Name = 
REMARK  4 active torsions:
REMARK  status: ('A' for Active; 'I' for Inactive)
REMARK    1  A    between atoms: O_1  and  C_2
REMARK    2  A    between atoms: C_2  and  C_3
REMARK    3  A    between atoms: C_2  and  C_12
REMARK    4  A    between atoms: C_4  and  C_5
REMARK                            x       y       z     vdW  Elec       q    Type
REMARK                         _______ _______ _______ _____ _____    ______ ____
ROOT
ATOM      1  C   UNL     1       4.966   6.555  17.516  0.00  0.00    +0.000 C 
ENDROOT
BRANCH   1   2
ATOM      2  C   UNL     1       4.005   5.644  18.220  0.00  0.00    +0.000 A 
ATOM      3  N   UNL     1       3.832   5.507  19.522  0.00  0.00    +0.000 NA
ATOM      4  C   UNL     1       2.811   4.599  19.667  0.00  0.00    +0.000 A 
ATOM      5  C   UNL     1       2.209   4.104  20.832  0.00  0.00    +0.000 A 
ATOM      6  C   UNL     1       1.168   3.173  20.708  0.00  0.00    +0.000 A 
ATOM      7  C   UNL     1       0.738   2.746  19.450  0.00  0.00    +0.000 A 
ATOM      8  C   UNL     1       1.326   3.229  18.275  0.00  0.00    +0.000 A 
ATOM      9  C   UNL     1       2.359   4.157  18.428  0.00  0.00    +0.000 A 
ATOM     10  N   UNL     1       3.140   4.829  17.528  0.00  0.00    +0.000 N 
ATOM     11  H   UNL     1       3.097   4.780  16.520  0.00  0.00    +0.000 HD
ENDBRANCH   1   2
BRANCH   1  12
ATOM     12  O   UNL     1       6.186   6.538  18.267  0.00  0.00    +0.000 OA
ATOM     13  H   UNL     1       6.397   7.466  18.466  0.00  0.00    +0.000 HD
ENDBRANCH   1  12
BRANCH   1  14
ATOM     14  C   UNL     1       5.297   6.122  16.117  0.00  0.00    +0.000 C 
ATOM     15  C   UNL     1       6.151   5.139  15.788  0.00  0.00    +0.000 C 
BRANCH  15  16
ATOM     16  C   UNL     1       6.492   4.798  14.395  0.00  0.00    +0.000 A 
ATOM     17  C   UNL     1       7.543   5.436  13.720  0.00  0.00    +0.000 A 
ATOM     18  C   UNL     1       7.862   5.095  12.403  0.00  0.00    +0.000 A 
ATOM     19  C   UNL     1       7.144   4.098  11.750  0.00  0.00    +0.000 A 
ATOM     20  C   UNL     1       6.117   3.440  12.423  0.00  0.00    +0.000 A 
ATOM     21 CL   UNL     1       5.242   2.192  11.621  0.00  0.00    +0.000 Cl
ATOM     22  C   UNL     1       5.792   3.779  13.739  0.00  0.00    +0.000 A 
ENDBRANCH  15  16
ENDBRANCH   1  14
TORSDOF 4
ENDMDL
MODEL 6
REMARK VINA RESULT:      -7.7      2.552      7.013
REMARK  Name = 
REMARK  4 active torsions:
REMARK  status: ('A' for Active; 'I' for Inactive)
REMARK    1  A    between atoms: O_1  and  C_2
REMARK    2  A    between atoms: C_2  and  C_3
REMARK    3  A    between atoms: C_2  and  C_12
REMARK    4  A    between atoms: C_4  and  C_5
REMARK                            x       y       z     vdW  Elec       q    Type
REMARK                         _______ _______ _______ _____ _____    ______ ____
ROOT
ATOM      1  C   UNL     1       6.862   4.976  17.574  0.00  0.00    +0.000 C 
ENDROOT
BRANCH   1   2
ATOM      2  C   UNL     1       6.858   4.699  16.100  0.00  0.00    +0.000 A 
ATOM      3  N   UNL     1       6.152   3.790  15.453  0.00  0.00    +0.000 NA
ATOM      4  C   UNL     1       6.455   3.961  14.124  0.00  0.00    +0.000 A 
ATOM      5  C   UNL     1       5.973   3.279  12.998  0.00  0.00    +0.000 A 
ATOM      6  C   UNL     1       6.444   3.652  11.732  0.00  0.00    +0.000 A 
ATOM      7  C   UNL     1       7.376   4.683  11.592  0.00  0.00    +0.000 A 
ATOM      8  C   UNL     1       7.868   5.377  12.704  0.00  0.00    +0.000 A 
ATOM      9  C   UNL     1       7.380   4.986  13.953  0.00  0.00    +0.000 A 
ATOM     10  N   UNL     1       7.625   5.429  15.224  0.00  0.00    +0.000 N 
ATOM     11  H   UNL     1       8.238   6.182  15.504  0.00  0.00    +0.000 HD
ENDBRANCH   1   2
BRANCH   1  12
ATOM     12  O   UNL     1       7.039   6.388  17.735  0.00  0.00    +0.000 OA
ATOM     13  H   UNL     1       7.999   6.541  17.765  0.00  0.00    +0.000 HD
ENDBRANCH   1  12
BRANCH   1  14
ATOM     14  C   UNL     1       5.580   4.605  18.262  0.00  0.00    +0.000 C 
ATOM     15  C   UNL     1       4.458   5.344  18.268  0.00  0.00    +0.000 C 
BRANCH  15  16
ATOM     16  C   UNL     1       3.246   4.966  19.017  0.00  0.00    +0.000 A 
ATOM     17  C   UNL     1       2.771   5.743  20.084  0.00  0.00    +0.000 A 
ATOM     18  C   UNL     1       1.614   5.379  20.778  0.00  0.00    +0.000 A 
ATOM     19  C   UNL     1       0.908   4.240  20.403  0.00  0.00    +0.000 A 
ATOM     20  C   UNL     1       1.358   3.478  19.326  0.00  0.00    +0.000 A 
ATOM     21 CL   UNL     1       0.473   2.079  18.850  0.00  0.00    +0.000 Cl
ATOM     22  C   UNL     1       2.516   3.836  18.632  0.00  0.00    +0.000 A 
ENDBRANCH  15  16
ENDBRANCH   1  14
TORSDOF 4
ENDMDL
MODEL 7
REMARK VINA RESULT:      -7.7      2.950      7.266
REMARK  Name = 
REMARK  4 active torsions:
REMARK  status: ('A' for Active; 'I' for Inactive)
REMARK    1  A    between atoms: O_1  and  C_2
REMARK    2  A    between atoms: C_2  and  C_3
REMARK    3  A    between atoms: C_2  and  C_12
REMARK    4  A    between atoms: C_4  and  C_5
REMARK                            x       y       z     vdW  Elec       q    Type
REMARK                         _______ _______ _______ _____ _____    ______ ____
ROOT
ATOM      1  C   UNL     1       6.903   4.851  17.629  0.00  0.00    +0.000 C 
ENDROOT
BRANCH   1   2
ATOM      2  C   UNL     1       6.841   4.598  16.153  0.00  0.00    +0.000 A 
ATOM      3  N   UNL     1       6.037   3.770  15.511  0.00  0.00    +0.000 NA
ATOM      4  C   UNL     1       6.325   3.933  14.177  0.00  0.00    +0.000 A 
ATOM      5  C   UNL     1       5.754   3.317  13.054  0.00  0.00    +0.000 A 
ATOM      6  C   UNL     1       6.231   3.663  11.782  0.00  0.00    +0.000 A 
ATOM      7  C   UNL     1       7.252   4.604  11.634  0.00  0.00    +0.000 A 
ATOM      8  C   UNL     1       7.833   5.231  12.742  0.00  0.00    +0.000 A 
ATOM      9  C   UNL     1       7.338   4.868  13.997  0.00  0.00    +0.000 A 
ATOM     10  N   UNL     1       7.653   5.266  15.268  0.00  0.00    +0.000 N 
ATOM     11  H   UNL     1       8.341   5.954  15.543  0.00  0.00    +0.000 HD
ENDBRANCH   1   2
BRANCH   1  12
ATOM     12  O   UNL     1       7.524   6.129  17.810  0.00  0.00    +0.000 OA
ATOM     13  H   UNL     1       8.441   5.950  18.083  0.00  0.00    +0.000 HD
ENDBRANCH   1  12
BRANCH   1  14
ATOM     14  C   UNL     1       5.557   4.911  18.291  0.00  0.00    +0.000 C 
ATOM     15  C   UNL     1       4.980   3.908  18.974  0.00  0.00    +0.000 C 
BRANCH  15  16
ATOM     16  C   UNL     1       3.625   3.997  19.547  0.00  0.00    +0.000 A 
ATOM     17  C   UNL     1       2.840   2.853  19.756  0.00  0.00    +0.000 A 
ATOM     18  C   UNL     1       1.562   2.951  20.311  0.00  0.00    +0.000 A 
ATOM     19  C   UNL     1       1.058   4.194  20.680  0.00  0.00    +0.000 A 
ATOM     20  C   UNL     1       1.842   5.333  20.501  0.00  0.00    +0.000 A 
ATOM     21 CL   UNL     1       1.225   6.869  20.977  0.00  0.00    +0.000 Cl
ATOM     22  C   UNL     1       3.119   5.240  19.944  0.00  0.00    +0.000 A 
ENDBRANCH  15  16
ENDBRANCH   1  14
TORSDOF 4
ENDMDL
MODEL 8
REMARK VINA RESULT:      -7.6      2.957      7.163
REMARK  Name = 
REMARK  4 active torsions:
REMARK  status: ('A' for Active; 'I' for Inactive)
REMARK    1  A    between atoms: O_1  and  C_2
REMARK    2  A    between atoms: C_2  and  C_3
REMARK    3  A    between atoms: C_2  and  C_12
REMARK    4  A    between atoms: C_4  and  C_5
REMARK                            x       y       z     vdW  Elec       q    Type
REMARK                         _______ _______ _______ _____ _____    ______ ____
ROOT
ATOM      1  C   UNL     1       6.969   5.133  17.613  0.00  0.00    +0.000 C 
ENDROOT
BRANCH   1   2
ATOM      2  C   UNL     1       6.913   4.890  16.135  0.00  0.00    +0.000 A 
ATOM      3  N   UNL     1       7.671   5.434  15.200  0.00  0.00    +0.000 NA
ATOM      4  C   UNL     1       7.273   4.859  14.018  0.00  0.00    +0.000 A 
ATOM      5  C   UNL     1       7.756   5.056  12.716  0.00  0.00    +0.000 A 
ATOM      6  C   UNL     1       7.174   4.333  11.666  0.00  0.00    +0.000 A 
ATOM      7  C   UNL     1       6.133   3.434  11.909  0.00  0.00    +0.000 A 
ATOM      8  C   UNL     1       5.638   3.222  13.201  0.00  0.00    +0.000 A 
ATOM      9  C   UNL     1       6.238   3.955  14.228  0.00  0.00    +0.000 A 
ATOM     10  N   UNL     1       6.024   4.002  15.579  0.00  0.00    +0.000 N 
ATOM     11  H   UNL     1       5.353   3.467  16.114  0.00  0.00    +0.000 HD
ENDBRANCH   1   2
BRANCH   1  12
ATOM     12  O   UNL     1       7.552   6.428  17.804  0.00  0.00    +0.000 OA
ATOM     13  H   UNL     1       8.430   6.395  17.386  0.00  0.00    +0.000 HD
ENDBRANCH   1  12
BRANCH   1  14
ATOM     14  C   UNL     1       5.621   5.149  18.275  0.00  0.00    +0.000 C 
ATOM     15  C   UNL     1       5.060   4.115  18.924  0.00  0.00    +0.000 C 
BRANCH  15  16
ATOM     16  C   UNL     1       3.704   4.162  19.499  0.00  0.00    +0.000 A 
ATOM     17  C   UNL     1       2.958   2.995  19.715  0.00  0.00    +0.000 A 
ATOM     18  C   UNL     1       1.678   3.053  20.271  0.00  0.00    +0.000 A 
ATOM     19  C   UNL     1       1.133   4.281  20.634  0.00  0.00    +0.000 A 
ATOM     20  C   UNL     1       1.879   5.444  20.447  0.00  0.00    +0.000 A 
ATOM     21 CL   UNL     1       1.212   6.961  20.915  0.00  0.00    +0.000 Cl
ATOM     22  C   UNL     1       3.158   5.391  19.889  0.00  0.00    +0.000 A 
ENDBRANCH  15  16
ENDBRANCH   1  14
TORSDOF 4
ENDMDL
MODEL 9
REMARK VINA RESULT:      -7.6      3.005      7.068
REMARK  Name = 
REMARK  4 active torsions:
REMARK  status: ('A' for Active; 'I' for Inactive)
REMARK    1  A    between atoms: O_1  and  C_2
REMARK    2  A    between atoms: C_2  and  C_3
REMARK    3  A    between atoms: C_2  and  C_12
REMARK    4  A    between atoms: C_4  and  C_5
REMARK                            x       y       z     vdW  Elec       q    Type
REMARK                         _______ _______ _______ _____ _____    ______ ____
ROOT
ATOM      1  C   UNL     1       6.997   5.886  17.231  0.00  0.00    +0.000 C 
ENDROOT
BRANCH   1   2
ATOM      2  C   UNL     1       6.863   5.359  15.834  0.00  0.00    +0.000 A 
ATOM      3  N   UNL     1       7.702   5.524  14.827  0.00  0.00    +0.000 NA
ATOM      4  C   UNL     1       7.167   4.814  13.779  0.00  0.00    +0.000 A 
ATOM      5  C   UNL     1       7.657   4.629  12.478  0.00  0.00    +0.000 A 
ATOM      6  C   UNL     1       6.913   3.845  11.585  0.00  0.00    +0.000 A 
ATOM      7  C   UNL     1       5.709   3.259  11.981  0.00  0.00    +0.000 A 
ATOM      8  C   UNL     1       5.205   3.430  13.275  0.00  0.00    +0.000 A 
ATOM      9  C   UNL     1       5.967   4.214  14.144  0.00  0.00    +0.000 A 
ATOM     10  N   UNL     1       5.793   4.585  15.450  0.00  0.00    +0.000 N 
ATOM     11  H   UNL     1       5.035   4.328  16.066  0.00  0.00    +0.000 HD
ENDBRANCH   1   2
BRANCH   1  12
ATOM     12  O   UNL     1       7.497   7.224  17.129  0.00  0.00    +0.000 OA
ATOM     13  H   UNL     1       8.090   7.236  16.358  0.00  0.00    +0.000 HD
ENDBRANCH   1  12
BRANCH   1  14
ATOM     14  C   UNL     1       5.698   5.950  17.981  0.00  0.00    +0.000 C 
ATOM     15  C   UNL     1       5.259   5.032  18.858  0.00  0.00    +0.000 C 
BRANCH  15  16
ATOM     16  C   UNL     1       3.943   5.109  19.517  0.00  0.00    +0.000 A 
ATOM     17  C   UNL     1       3.171   6.279  19.477  0.00  0.00    +0.000 A 
ATOM     18  C   UNL     1       1.920   6.335  20.097  0.00  0.00    +0.000 A 
ATOM     19  C   UNL     1       1.418   5.214  20.752  0.00  0.00    +0.000 A 
ATOM     20  C   UNL     1       2.167   4.040  20.772  0.00  0.00    +0.000 A 
ATOM     21 CL   UNL     1       1.536   2.647  21.565  0.00  0.00    +0.000 Cl
ATOM     22  C   UNL     1       3.420   3.980  20.157  0.00  0.00    +0.000 A 
ENDBRANCH  15  16
ENDBRANCH   1  14
TORSDOF 4
ENDMDL
