MODEL 1
REMARK VINA RESULT:      -8.6      0.000      0.000
REMARK  Name = 
REMARK  2 active torsions:
REMARK  status: ('A' for Active; 'I' for Inactive)
REMARK    1  A    between atoms: C_4  and  C_5
REMARK    2  A    between atoms: C_8  and  C_9
REMARK                            x       y       z     vdW  Elec       q    Type
REMARK                         _______ _______ _______ _____ _____    ______ ____
ROOT
ATOM      1  C   UNL     1       3.243   4.068  18.394  0.00  0.00    +0.000 C 
ATOM      2  C   UNL     1       2.051   4.776  17.732  0.00  0.00    +0.000 C 
ATOM      3  C   UNL     1       2.221   6.297  17.693  0.00  0.00    +0.000 C 
ATOM      4  N   UNL     1       2.494   6.792  19.041  0.00  0.00    +0.000 N 
ATOM      5  C   UNL     1       1.830   7.864  19.624  0.00  0.00    +0.000 A 
ATOM      6  C   UNL     1       1.156   8.905  18.765  0.00  0.00    +0.000 A 
ATOM      7  C   UNL     1       0.498   9.915  19.347  0.00  0.00    +0.000 A 
ATOM      8  C   UNL     1       0.462   9.977  20.749  0.00  0.00    +0.000 A 
ATOM      9  N   UNL     1      -0.088  10.820  21.597  0.00  0.00    +0.000 NA
ATOM     10  N   UNL     1       0.208  10.381  22.872  0.00  0.00    +0.000 NA
ATOM     11  C   UNL     1       0.930   9.287  22.757  0.00  0.00    +0.000 A 
ATOM     12  N   UNL     1       1.124   8.990  21.438  0.00  0.00    +0.000 N 
ATOM     13  N   UNL     1       1.818   7.935  20.934  0.00  0.00    +0.000 NA
ATOM     14  C   UNL     1       3.672   6.203  19.686  0.00  0.00    +0.000 C 
ATOM     15  C   UNL     1       3.514   4.688  19.771  0.00  0.00    +0.000 C 
ENDROOT
BRANCH   1  19
ATOM     16  C   UNL     1       5.863   4.287  15.968  0.00  0.00    +0.000 A 
ATOM     17  N   UNL     1       6.597   4.424  17.090  0.00  0.00    +0.000 NA
ATOM     18  O   UNL     1       5.661   4.313  18.119  0.00  0.00    +0.000 OA
ATOM     19  C   UNL     1       4.451   4.128  17.521  0.00  0.00    +0.000 A 
ATOM     20  N   UNL     1       4.522   4.080  16.215  0.00  0.00    +0.000 NA
BRANCH  16  24
ATOM     21  C   UNL     1       7.515   4.607  12.107  0.00  0.00    +0.000 A 
ATOM     22  C   UNL     1       6.443   3.742  12.300  0.00  0.00    +0.000 A 
ATOM     23  C   UNL     1       5.870   3.630  13.566  0.00  0.00    +0.000 A 
ATOM     24  C   UNL     1       6.394   4.392  14.607  0.00  0.00    +0.000 A 
ATOM     25  N   UNL     1       7.441   5.246  14.429  0.00  0.00    +0.000 NA
ATOM     26  C   UNL     1       7.972   5.333  13.191  0.00  0.00    +0.000 A 
ENDBRANCH  16  24
ENDBRANCH   1  19
TORSDOF 2
ENDMDL
MODEL 2
REMARK VINA RESULT:      -8.0      5.087      6.936
REMARK  Name = 
REMARK  2 active torsions:
REMARK  status: ('A' for Active; 'I' for Inactive)
REMARK    1  A    between atoms: C_4  and  C_5
REMARK    2  A    between atoms: C_8  and  C_9
REMARK                            x       y       z     vdW  Elec       q    Type
REMARK                         _______ _______ _______ _____ _____    ______ ____
ROOT
ATOM      1  C   UNL     1       7.721   6.118  17.730  0.00  0.00    +0.000 C 
ATOM      2  C   UNL     1       6.715   5.884  16.593  0.00  0.00    +0.000 C 
ATOM      3  C   UNL     1       5.288   6.273  16.985  0.00  0.00    +0.000 C 
ATOM      4  N   UNL     1       4.916   5.583  18.220  0.00  0.00    +0.000 N 
ATOM      5  C   UNL     1       3.727   4.886  18.392  0.00  0.00    +0.000 A 
ATOM      6  C   UNL     1       2.525   5.200  17.537  0.00  0.00    +0.000 A 
ATOM      7  C   UNL     1       1.397   4.498  17.701  0.00  0.00    +0.000 A 
ATOM      8  C   UNL     1       1.367   3.488  18.675  0.00  0.00    +0.000 A 
ATOM      9  N   UNL     1       0.435   2.644  19.067  0.00  0.00    +0.000 NA
ATOM     10  N   UNL     1       0.971   1.873  20.078  0.00  0.00    +0.000 NA
ATOM     11  C   UNL     1       2.209   2.275  20.270  0.00  0.00    +0.000 A 
ATOM     12  N   UNL     1       2.509   3.296  19.414  0.00  0.00    +0.000 N 
ATOM     13  N   UNL     1       3.692   3.960  19.321  0.00  0.00    +0.000 NA
ATOM     14  C   UNL     1       5.803   5.839  19.360  0.00  0.00    +0.000 C 
ATOM     15  C   UNL     1       7.230   5.427  19.008  0.00  0.00    +0.000 C 
ENDROOT
BRANCH   1  19
ATOM     16  C   UNL     1       8.621   9.499  18.483  0.00  0.00    +0.000 A 
ATOM     17  N   UNL     1       7.750   9.726  17.480  0.00  0.00    +0.000 NA
ATOM     18  O   UNL     1       7.300   8.452  17.131  0.00  0.00    +0.000 OA
ATOM     19  C   UNL     1       7.948   7.576  17.950  0.00  0.00    +0.000 A 
ATOM     20  N   UNL     1       8.744   8.164  18.806  0.00  0.00    +0.000 NA
BRANCH  16  24
ATOM     21  C   UNL     1      10.888  12.555  20.288  0.00  0.00    +0.000 A 
ATOM     22  C   UNL     1      10.023  11.813  21.084  0.00  0.00    +0.000 A 
ATOM     23  C   UNL     1       9.273  10.786  20.512  0.00  0.00    +0.000 A 
ATOM     24  C   UNL     1       9.413  10.535  19.150  0.00  0.00    +0.000 A 
ATOM     25  N   UNL     1      10.260  11.252  18.360  0.00  0.00    +0.000 NA
ATOM     26  C   UNL     1      10.974  12.238  18.945  0.00  0.00    +0.000 A 
ENDBRANCH  16  24
ENDBRANCH   1  19
TORSDOF 2
ENDMDL
MODEL 3
REMARK VINA RESULT:      -7.4      3.976      8.587
REMARK  Name = 
REMARK  2 active torsions:
REMARK  status: ('A' for Active; 'I' for Inactive)
REMARK    1  A    between atoms: C_4  and  C_5
REMARK    2  A    between atoms: C_8  and  C_9
REMARK                            x       y       z     vdW  Elec       q    Type
REMARK                         _______ _______ _______ _____ _____    ______ ____
ROOT
ATOM      1  C   UNL     1       0.256  10.176  19.235  0.00  0.00    +0.000 C 
ATOM      2  C   UNL     1       0.063   9.201  20.407  0.00  0.00    +0.000 C 
ATOM      3  C   UNL     1       1.335   8.414  20.729  0.00  0.00    +0.000 C 
ATOM      4  N   UNL     1       1.820   7.753  19.518  0.00  0.00    +0.000 N 
ATOM      5  C   UNL     1       2.180   6.412  19.457  0.00  0.00    +0.000 A 
ATOM      6  C   UNL     1       2.585   5.671  20.706  0.00  0.00    +0.000 A 
ATOM      7  C   UNL     1       2.903   4.373  20.629  0.00  0.00    +0.000 A 
ATOM      8  C   UNL     1       2.854   3.739  19.377  0.00  0.00    +0.000 A 
ATOM      9  N   UNL     1       3.100   2.508  18.983  0.00  0.00    +0.000 NA
ATOM     10  N   UNL     1       2.889   2.458  17.619  0.00  0.00    +0.000 NA
ATOM     11  C   UNL     1       2.525   3.660  17.230  0.00  0.00    +0.000 A 
ATOM     12  N   UNL     1       2.491   4.510  18.299  0.00  0.00    +0.000 N 
ATOM     13  N   UNL     1       2.158   5.828  18.282  0.00  0.00    +0.000 NA
ATOM     14  C   UNL     1       2.095   8.652  18.393  0.00  0.00    +0.000 C 
ATOM     15  C   UNL     1       0.832   9.426  18.027  0.00  0.00    +0.000 C 
ENDROOT
BRANCH   1  19
ATOM     16  C   UNL     1       2.324  13.046  19.766  0.00  0.00    +0.000 A 
ATOM     17  N   UNL     1       1.978  12.790  21.044  0.00  0.00    +0.000 NA
ATOM     18  O   UNL     1       1.187  11.644  20.954  0.00  0.00    +0.000 OA
ATOM     19  C   UNL     1       1.124  11.322  19.632  0.00  0.00    +0.000 A 
ATOM     20  N   UNL     1       1.818  12.128  18.870  0.00  0.00    +0.000 NA
BRANCH  16  24
ATOM     21  C   UNL     1       4.703  16.314  18.580  0.00  0.00    +0.000 A 
ATOM     22  C   UNL     1       3.717  15.860  17.710  0.00  0.00    +0.000 A 
ATOM     23  C   UNL     1       2.908  14.790  18.087  0.00  0.00    +0.000 A 
ATOM     24  C   UNL     1       3.114  14.201  19.332  0.00  0.00    +0.000 A 
ATOM     25  N   UNL     1       4.073  14.638  20.195  0.00  0.00    +0.000 NA
ATOM     26  C   UNL     1       4.838  15.679  19.801  0.00  0.00    +0.000 A 
ENDBRANCH  16  24
ENDBRANCH   1  19
TORSDOF 2
ENDMDL
MODEL 4
REMARK VINA RESULT:      -7.3      4.940     11.481
REMARK  Name = 
REMARK  2 active torsions:
REMARK  status: ('A' for Active; 'I' for Inactive)
REMARK    1  A    between atoms: C_4  and  C_5
REMARK    2  A    between atoms: C_8  and  C_9
REMARK                            x       y       z     vdW  Elec       q    Type
REMARK                         _______ _______ _______ _____ _____    ______ ____
ROOT
ATOM      1  C   UNL     1      -0.534  11.848  22.348  0.00  0.00    +0.000 C 
ATOM      2  C   UNL     1       0.407  12.247  21.200  0.00  0.00    +0.000 C 
ATOM      3  C   UNL     1       0.225  11.367  19.961  0.00  0.00    +0.000 C 
ATOM      4  N   UNL     1       0.358   9.960  20.338  0.00  0.00    +0.000 N 
ATOM      5  C   UNL     1       1.159   9.048  19.663  0.00  0.00    +0.000 A 
ATOM      6  C   UNL     1       1.545   9.287  18.224  0.00  0.00    +0.000 A 
ATOM      7  C   UNL     1       2.340   8.409  17.600  0.00  0.00    +0.000 A 
ATOM      8  C   UNL     1       2.787   7.282  18.308  0.00  0.00    +0.000 A 
ATOM      9  N   UNL     1       3.558   6.266  17.985  0.00  0.00    +0.000 NA
ATOM     10  N   UNL     1       3.652   5.446  19.092  0.00  0.00    +0.000 NA
ATOM     11  C   UNL     1       2.934   5.990  20.050  0.00  0.00    +0.000 A 
ATOM     12  N   UNL     1       2.362   7.149  19.608  0.00  0.00    +0.000 N 
ATOM     13  N   UNL     1       1.556   7.983  20.318  0.00  0.00    +0.000 NA
ATOM     14  C   UNL     1      -0.575   9.510  21.376  0.00  0.00    +0.000 C 
ATOM     15  C   UNL     1      -0.391  10.348  22.638  0.00  0.00    +0.000 C 
ENDROOT
BRANCH   1  19
ATOM     16  C   UNL     1      -3.990  12.714  22.019  0.00  0.00    +0.000 A 
ATOM     17  N   UNL     1      -3.563  13.060  20.789  0.00  0.00    +0.000 NA
ATOM     18  O   UNL     1      -2.210  12.722  20.795  0.00  0.00    +0.000 OA
ATOM     19  C   UNL     1      -1.946  12.211  22.031  0.00  0.00    +0.000 A 
ATOM     20  N   UNL     1      -2.999  12.162  22.805  0.00  0.00    +0.000 NA
BRANCH  16  24
ATOM     21  C   UNL     1      -7.915  13.212  23.463  0.00  0.00    +0.000 A 
ATOM     22  C   UNL     1      -6.921  14.059  23.940  0.00  0.00    +0.000 A 
ATOM     23  C   UNL     1      -5.617  13.923  23.466  0.00  0.00    +0.000 A 
ATOM     24  C   UNL     1      -5.347  12.934  22.524  0.00  0.00    +0.000 A 
ATOM     25  N   UNL     1      -6.314  12.101  22.045  0.00  0.00    +0.000 NA
ATOM     26  C   UNL     1      -7.567  12.260  22.522  0.00  0.00    +0.000 A 
ENDBRANCH  16  24
ENDBRANCH   1  19
TORSDOF 2
ENDMDL
MODEL 5
REMARK VINA RESULT:      -7.2      4.907     11.009
REMARK  Name = 
REMARK  2 active torsions:
REMARK  status: ('A' for Active; 'I' for Inactive)
REMARK    1  A    between atoms: C_4  and  C_5
REMARK    2  A    between atoms: C_8  and  C_9
REMARK                            x       y       z     vdW  Elec       q    Type
REMARK                         _______ _______ _______ _____ _____    ______ ____
ROOT
ATOM      1  C   UNL     1      -0.837  11.934  22.721  0.00  0.00    +0.000 C 
ATOM      2  C   UNL     1       0.005  12.446  21.541  0.00  0.00    +0.000 C 
ATOM      3  C   UNL     1      -0.199  11.614  20.273  0.00  0.00    +0.000 C 
ATOM      4  N   UNL     1       0.043  10.202  20.570  0.00  0.00    +0.000 N 
ATOM      5  C   UNL     1       0.855   9.376  19.804  0.00  0.00    +0.000 A 
ATOM      6  C   UNL     1       1.136   9.705  18.359  0.00  0.00    +0.000 A 
ATOM      7  C   UNL     1       1.943   8.910  17.646  0.00  0.00    +0.000 A 
ATOM      8  C   UNL     1       2.501   7.782  18.269  0.00  0.00    +0.000 A 
ATOM      9  N   UNL     1       3.311   6.834  17.850  0.00  0.00    +0.000 NA
ATOM     10  N   UNL     1       3.524   5.972  18.908  0.00  0.00    +0.000 NA
ATOM     11  C   UNL     1       2.835   6.424  19.933  0.00  0.00    +0.000 A 
ATOM     12  N   UNL     1       2.166   7.562  19.583  0.00  0.00    +0.000 N 
ATOM     13  N   UNL     1       1.357   8.309  20.380  0.00  0.00    +0.000 NA
ATOM     14  C   UNL     1      -0.794   9.646  21.638  0.00  0.00    +0.000 C 
ATOM     15  C   UNL     1      -0.584  10.435  22.927  0.00  0.00    +0.000 C 
ENDROOT
BRANCH   1  19
ATOM     16  C   UNL     1      -4.218  12.624  21.778  0.00  0.00    +0.000 A 
ATOM     17  N   UNL     1      -4.427  12.219  23.047  0.00  0.00    +0.000 NA
ATOM     18  O   UNL     1      -3.144  11.957  23.530  0.00  0.00    +0.000 OA
ATOM     19  C   UNL     1      -2.285  12.220  22.506  0.00  0.00    +0.000 A 
ATOM     20  N   UNL     1      -2.885  12.652  21.426  0.00  0.00    +0.000 NA
BRANCH  16  24
ATOM     21  C   UNL     1      -7.353  13.504  19.106  0.00  0.00    +0.000 A 
ATOM     22  C   UNL     1      -6.443  14.508  19.413  0.00  0.00    +0.000 A 
ATOM     23  C   UNL     1      -5.388  14.237  20.284  0.00  0.00    +0.000 A 
ATOM     24  C   UNL     1      -5.279  12.958  20.825  0.00  0.00    +0.000 A 
ATOM     25  N   UNL     1      -6.163  11.965  20.528  0.00  0.00    +0.000 NA
ATOM     26  C   UNL     1      -7.171  12.259  19.680  0.00  0.00    +0.000 A 
ENDBRANCH  16  24
ENDBRANCH   1  19
TORSDOF 2
ENDMDL
MODEL 6
REMARK VINA RESULT:      -7.1      4.692     11.134
REMARK  Name = 
REMARK  2 active torsions:
REMARK  status: ('A' for Active; 'I' for Inactive)
REMARK    1  A    between atoms: C_4  and  C_5
REMARK    2  A    between atoms: C_8  and  C_9
REMARK                            x       y       z     vdW  Elec       q    Type
REMARK                         _______ _______ _______ _____ _____    ______ ____
ROOT
ATOM      1  C   UNL     1      -0.163  11.901  22.021  0.00  0.00    +0.000 C 
ATOM      2  C   UNL     1       0.803  12.203  20.864  0.00  0.00    +0.000 C 
ATOM      3  C   UNL     1       0.585  11.279  19.663  0.00  0.00    +0.000 C 
ATOM      4  N   UNL     1       0.645   9.885  20.102  0.00  0.00    +0.000 N 
ATOM      5  C   UNL     1       1.404   8.906  19.473  0.00  0.00    +0.000 A 
ATOM      6  C   UNL     1       1.809   9.062  18.028  0.00  0.00    +0.000 A 
ATOM      7  C   UNL     1       2.563   8.119  17.449  0.00  0.00    +0.000 A 
ATOM      8  C   UNL     1       2.950   7.004  18.209  0.00  0.00    +0.000 A 
ATOM      9  N   UNL     1       3.671   5.937  17.936  0.00  0.00    +0.000 NA
ATOM     10  N   UNL     1       3.718   5.163  19.079  0.00  0.00    +0.000 NA
ATOM     11  C   UNL     1       3.022   5.784  20.007  0.00  0.00    +0.000 A 
ATOM     12  N   UNL     1       2.511   6.949  19.510  0.00  0.00    +0.000 N 
ATOM     13  N   UNL     1       1.744   7.852  20.177  0.00  0.00    +0.000 NA
ATOM     14  C   UNL     1      -0.314   9.528  21.151  0.00  0.00    +0.000 C 
ATOM     15  C   UNL     1      -0.096  10.410  22.377  0.00  0.00    +0.000 C 
ENDROOT
BRANCH   1  19
ATOM     16  C   UNL     1      -3.613  12.743  21.587  0.00  0.00    +0.000 A 
ATOM     17  N   UNL     1      -3.079  13.517  20.621  0.00  0.00    +0.000 NA
ATOM     18  O   UNL     1      -1.715  13.232  20.678  0.00  0.00    +0.000 OA
ATOM     19  C   UNL     1      -1.553  12.319  21.677  0.00  0.00    +0.000 A 
ATOM     20  N   UNL     1      -2.679  11.971  22.246  0.00  0.00    +0.000 NA
BRANCH  16  24
ATOM     21  C   UNL     1      -7.654  12.799  22.772  0.00  0.00    +0.000 A 
ATOM     22  C   UNL     1      -7.362  12.791  21.413  0.00  0.00    +0.000 A 
ATOM     23  C   UNL     1      -6.032  12.758  20.996  0.00  0.00    +0.000 A 
ATOM     24  C   UNL     1      -5.029  12.735  21.962  0.00  0.00    +0.000 A 
ATOM     25  N   UNL     1      -5.303  12.738  23.296  0.00  0.00    +0.000 NA
ATOM     26  C   UNL     1      -6.600  12.767  23.667  0.00  0.00    +0.000 A 
ENDBRANCH  16  24
ENDBRANCH   1  19
TORSDOF 2
ENDMDL
MODEL 7
REMARK VINA RESULT:      -7.1      5.106      6.533
REMARK  Name = 
REMARK  2 active torsions:
REMARK  status: ('A' for Active; 'I' for Inactive)
REMARK    1  A    between atoms: C_4  and  C_5
REMARK    2  A    between atoms: C_8  and  C_9
REMARK                            x       y       z     vdW  Elec       q    Type
REMARK                         _______ _______ _______ _____ _____    ______ ____
ROOT
ATOM      1  C   UNL     1       7.105   6.481  17.093  0.00  0.00    +0.000 C 
ATOM      2  C   UNL     1       5.641   6.822  16.773  0.00  0.00    +0.000 C 
ATOM      3  C   UNL     1       4.805   7.055  18.033  0.00  0.00    +0.000 C 
ATOM      4  N   UNL     1       4.936   5.904  18.926  0.00  0.00    +0.000 N 
ATOM      5  C   UNL     1       3.860   5.255  19.518  0.00  0.00    +0.000 A 
ATOM      6  C   UNL     1       2.544   5.969  19.704  0.00  0.00    +0.000 A 
ATOM      7  C   UNL     1       1.512   5.317  20.253  0.00  0.00    +0.000 A 
ATOM      8  C   UNL     1       1.690   3.980  20.645  0.00  0.00    +0.000 A 
ATOM      9  N   UNL     1       0.891   3.092  21.196  0.00  0.00    +0.000 NA
ATOM     10  N   UNL     1       1.615   1.928  21.363  0.00  0.00    +0.000 NA
ATOM     11  C   UNL     1       2.830   2.148  20.909  0.00  0.00    +0.000 A 
ATOM     12  N   UNL     1       2.934   3.430  20.449  0.00  0.00    +0.000 N 
ATOM     13  N   UNL     1       4.035   4.014  19.907  0.00  0.00    +0.000 NA
ATOM     14  C   UNL     1       6.311   5.587  19.325  0.00  0.00    +0.000 C 
ATOM     15  C   UNL     1       7.160   5.314  18.087  0.00  0.00    +0.000 C 
ENDROOT
BRANCH   1  19
ATOM     16  C   UNL     1       8.587   9.586  18.073  0.00  0.00    +0.000 A 
ATOM     17  N   UNL     1       9.021   8.811  19.087  0.00  0.00    +0.000 NA
ATOM     18  O   UNL     1       8.522   7.545  18.778  0.00  0.00    +0.000 OA
ATOM     19  C   UNL     1       7.829   7.677  17.613  0.00  0.00    +0.000 A 
ATOM     20  N   UNL     1       7.858   8.893  17.130  0.00  0.00    +0.000 NA
BRANCH  16  24
ATOM     21  C   UNL     1       9.082  13.761  17.820  0.00  0.00    +0.000 A 
ATOM     22  C   UNL     1      10.113  13.003  18.361  0.00  0.00    +0.000 A 
ATOM     23  C   UNL     1       9.979  11.618  18.442  0.00  0.00    +0.000 A 
ATOM     24  C   UNL     1       8.805  11.032  17.976  0.00  0.00    +0.000 A 
ATOM     25  N   UNL     1       7.789  11.763  17.439  0.00  0.00    +0.000 NA
ATOM     26  C   UNL     1       7.952  13.102  17.373  0.00  0.00    +0.000 A 
ENDBRANCH  16  24
ENDBRANCH   1  19
TORSDOF 2
ENDMDL
MODEL 8
REMARK VINA RESULT:      -7.0      4.482     10.263
REMARK  Name = 
REMARK  2 active torsions:
REMARK  status: ('A' for Active; 'I' for Inactive)
REMARK    1  A    between atoms: C_4  and  C_5
REMARK    2  A    between atoms: C_8  and  C_9
REMARK                            x       y       z     vdW  Elec       q    Type
REMARK                         _______ _______ _______ _____ _____    ______ ____
ROOT
ATOM      1  C   UNL     1      -0.373  11.732  22.000  0.00  0.00    +0.000 C 
ATOM      2  C   UNL     1       0.636  12.074  20.893  0.00  0.00    +0.000 C 
ATOM      3  C   UNL     1       0.501  11.158  19.674  0.00  0.00    +0.000 C 
ATOM      4  N   UNL     1       0.582   9.762  20.101  0.00  0.00    +0.000 N 
ATOM      5  C   UNL     1       1.398   8.812  19.499  0.00  0.00    +0.000 A 
ATOM      6  C   UNL     1       1.865   8.997  18.077  0.00  0.00    +0.000 A 
ATOM      7  C   UNL     1       2.672   8.082  17.524  0.00  0.00    +0.000 A 
ATOM      8  C   UNL     1       3.056   6.970  18.290  0.00  0.00    +0.000 A 
ATOM      9  N   UNL     1       3.820   5.928  18.041  0.00  0.00    +0.000 NA
ATOM     10  N   UNL     1       3.837   5.143  19.176  0.00  0.00    +0.000 NA
ATOM     11  C   UNL     1       3.081   5.733  20.077  0.00  0.00    +0.000 A 
ATOM     12  N   UNL     1       2.559   6.888  19.568  0.00  0.00    +0.000 N 
ATOM     13  N   UNL     1       1.735   7.761  20.207  0.00  0.00    +0.000 NA
ATOM     14  C   UNL     1      -0.414   9.365  21.101  0.00  0.00    +0.000 C 
ATOM     15  C   UNL     1      -0.279  10.240  22.344  0.00  0.00    +0.000 C 
ENDROOT
BRANCH   1  19
ATOM     16  C   UNL     1      -3.592  12.491  20.635  0.00  0.00    +0.000 A 
ATOM     17  N   UNL     1      -3.887  12.582  21.947  0.00  0.00    +0.000 NA
ATOM     18  O   UNL     1      -2.670  12.337  22.583  0.00  0.00    +0.000 OA
ATOM     19  C   UNL     1      -1.757  12.114  21.596  0.00  0.00    +0.000 A 
ATOM     20  N   UNL     1      -2.261  12.219  20.393  0.00  0.00    +0.000 NA
BRANCH  16  24
ATOM     21  C   UNL     1      -6.383  12.704  17.488  0.00  0.00    +0.000 A 
ATOM     22  C   UNL     1      -6.602  13.478  18.622  0.00  0.00    +0.000 A 
ATOM     23  C   UNL     1      -5.685  13.436  19.670  0.00  0.00    +0.000 A 
ATOM     24  C   UNL     1      -4.569  12.611  19.550  0.00  0.00    +0.000 A 
ATOM     25  N   UNL     1      -4.341  11.851  18.443  0.00  0.00    +0.000 NA
ATOM     26  C   UNL     1      -5.247  11.917  17.444  0.00  0.00    +0.000 A 
ENDBRANCH  16  24
ENDBRANCH   1  19
TORSDOF 2
ENDMDL
MODEL 9
REMARK VINA RESULT:      -6.9      4.289      7.217
REMARK  Name = 
REMARK  2 active torsions:
REMARK  status: ('A' for Active; 'I' for Inactive)
REMARK    1  A    between atoms: C_4  and  C_5
REMARK    2  A    between atoms: C_8  and  C_9
REMARK                            x       y       z     vdW  Elec       q    Type
REMARK                         _______ _______ _______ _____ _____    ______ ____
ROOT
ATOM      1  C   UNL     1       1.086  11.858  18.864  0.00  0.00    +0.000 C 
ATOM      2  C   UNL     1       1.236  12.243  20.345  0.00  0.00    +0.000 C 
ATOM      3  C   UNL     1       0.247  11.500  21.246  0.00  0.00    +0.000 C 
ATOM      4  N   UNL     1      -1.113  11.696  20.745  0.00  0.00    +0.000 N 
ATOM      5  C   UNL     1      -2.186  12.077  21.541  0.00  0.00    +0.000 A 
ATOM      6  C   UNL     1      -2.161  11.828  23.028  0.00  0.00    +0.000 A 
ATOM      7  C   UNL     1      -3.194  12.228  23.781  0.00  0.00    +0.000 A 
ATOM      8  C   UNL     1      -4.277  12.866  23.156  0.00  0.00    +0.000 A 
ATOM      9  N   UNL     1      -5.409  13.363  23.607  0.00  0.00    +0.000 NA
ATOM     10  N   UNL     1      -6.101  13.870  22.526  0.00  0.00    +0.000 NA
ATOM     11  C   UNL     1      -5.368  13.662  21.453  0.00  0.00    +0.000 A 
ATOM     12  N   UNL     1      -4.208  13.026  21.793  0.00  0.00    +0.000 N 
ATOM     13  N   UNL     1      -3.209  12.651  20.952  0.00  0.00    +0.000 NA
ATOM     14  C   UNL     1      -1.326  11.268  19.358  0.00  0.00    +0.000 C 
ATOM     15  C   UNL     1      -0.377  12.021  18.431  0.00  0.00    +0.000 C 
ENDROOT
BRANCH   1  19
ATOM     16  C   UNL     1       2.020   8.412  18.630  0.00  0.00    +0.000 A 
ATOM     17  N   UNL     1       2.401   8.823  17.404  0.00  0.00    +0.000 NA
ATOM     18  O   UNL     1       2.112  10.188  17.402  0.00  0.00    +0.000 OA
ATOM     19  C   UNL     1       1.576  10.470  18.623  0.00  0.00    +0.000 A 
ATOM     20  N   UNL     1       1.520   9.430  19.415  0.00  0.00    +0.000 NA
BRANCH  16  24
ATOM     21  C   UNL     1       2.052   4.449  20.054  0.00  0.00    +0.000 A 
ATOM     22  C   UNL     1       2.380   4.677  18.723  0.00  0.00    +0.000 A 
ATOM     23  C   UNL     1       2.390   5.982  18.232  0.00  0.00    +0.000 A 
ATOM     24  C   UNL     1       2.068   7.024  19.096  0.00  0.00    +0.000 A 
ATOM     25  N   UNL     1       1.749   6.814  20.404  0.00  0.00    +0.000 NA
ATOM     26  C   UNL     1       1.751   5.539  20.849  0.00  0.00    +0.000 A 
ENDBRANCH  16  24
ENDBRANCH   1  19
TORSDOF 2
ENDMDL
