MODEL 1
REMARK VINA RESULT:      -7.6      0.000      0.000
REMARK  Name = 
REMARK  9 active torsions:
REMARK  status: ('A' for Active; 'I' for Inactive)
REMARK    1  A    between atoms: C_1  and  C_2
REMARK    2  A    between atoms: C_2  and  O_3
REMARK    3  A    between atoms: O_3  and  C_4
REMARK    4  A    between atoms: C_4  and  C_6
REMARK    5  A    between atoms: C_11  and  O_12
REMARK    6  A    between atoms: O_12  and  S_13
REMARK    7  A    between atoms: S_13  and  N_16
REMARK    8  A    between atoms: C_22  and  C_23
REMARK    9  A    between atoms: C_25  and  C_26
REMARK                            x       y       z     vdW  Elec       q    Type
REMARK                         _______ _______ _______ _____ _____    ______ ____
ROOT
ATOM      1  S   UNL     1       2.463   6.352  19.017  0.00  0.00    +0.000 S 
ATOM      2  O   UNL     1       1.787   5.673  17.926  0.00  0.00    +0.000 OA
ATOM      3  O   UNL     1       2.288   5.866  20.373  0.00  0.00    +0.000 OA
ENDROOT
BRANCH   1   4
ATOM      4  N   UNL     1       1.808   7.859  19.039  0.00  0.00    +0.000 N 
ATOM      5  C   UNL     1       2.056   8.861  18.119  0.00  0.00    +0.000 C 
ATOM      6  O   UNL     1       2.613   8.646  17.052  0.00  0.00    +0.000 OA
ATOM      7  N   UNL     1       1.585  10.103  18.415  0.00  0.00    +0.000 N 
ATOM      8  C   UNL     1       0.926  10.507  19.561  0.00  0.00    +0.000 A 
ATOM      9  N   UNL     1       0.974   9.738  20.663  0.00  0.00    +0.000 NA
ATOM     10  C   UNL     1       0.258  10.145  21.731  0.00  0.00    +0.000 A 
ATOM     11  C   UNL     1       0.313   9.294  22.964  0.00  0.00    +0.000 C 
ATOM     12  C   UNL     1      -0.524  11.280  21.699  0.00  0.00    +0.000 A 
ATOM     13  C   UNL     1      -0.509  12.008  20.527  0.00  0.00    +0.000 A 
ATOM     14  C   UNL     1      -1.369  13.227  20.370  0.00  0.00    +0.000 C 
ATOM     15  N   UNL     1       0.236  11.649  19.459  0.00  0.00    +0.000 NA
ATOM     16  H   UNL     1       1.624   8.177  19.991  0.00  0.00    +0.000 HD
ATOM     17  H   UNL     1       1.601  10.773  17.665  0.00  0.00    +0.000 HD
ENDBRANCH   1   4
BRANCH   1  18
ATOM     18  O   UNL     1       4.066   6.439  18.648  0.00  0.00    +0.000 OA
BRANCH  18  24
ATOM     19  C   UNL     1       4.718   4.341  17.542  0.00  0.00    +0.000 A 
ATOM     20  C   UNL     1       5.313   3.744  16.403  0.00  0.00    +0.000 A 
ATOM     21  C   UNL     1       5.726   4.489  15.300  0.00  0.00    +0.000 A 
ATOM     22  C   UNL     1       5.499   5.846  15.281  0.00  0.00    +0.000 A 
ATOM     23  C   UNL     1       4.892   6.451  16.376  0.00  0.00    +0.000 A 
ATOM     24  C   UNL     1       4.542   5.739  17.548  0.00  0.00    +0.000 A 
BRANCH  19  25
ATOM     25  C   UNL     1       4.368   3.331  18.602  0.00  0.00    +0.000 C 
ATOM     26  O   UNL     1       5.019   3.249  19.629  0.00  0.00    +0.000 OA
BRANCH  25  27
ATOM     27  O   UNL     1       3.322   2.528  18.300  0.00  0.00    +0.000 OA
BRANCH  27  29
ATOM     28  C   UNL     1       0.942   2.442  18.874  0.00  0.00    +0.000 C 
ATOM     29  C   UNL     1       2.375   2.386  19.383  0.00  0.00    +0.000 C 
ENDBRANCH  27  29
ENDBRANCH  25  27
ENDBRANCH  19  25
ENDBRANCH  18  24
ENDBRANCH   1  18
TORSDOF 6
ENDMDL
MODEL 2
REMARK VINA RESULT:      -7.6      2.956      7.494
REMARK  Name = 
REMARK  9 active torsions:
REMARK  status: ('A' for Active; 'I' for Inactive)
REMARK    1  A    between atoms: C_1  and  C_2
REMARK    2  A    between atoms: C_2  and  O_3
REMARK    3  A    between atoms: O_3  and  C_4
REMARK    4  A    between atoms: C_4  and  C_6
REMARK    5  A    between atoms: C_11  and  O_12
REMARK    6  A    between atoms: O_12  and  S_13
REMARK    7  A    between atoms: S_13  and  N_16
REMARK    8  A    between atoms: C_22  and  C_23
REMARK    9  A    between atoms: C_25  and  C_26
REMARK                            x       y       z     vdW  Elec       q    Type
REMARK                         _______ _______ _______ _____ _____    ______ ____
ROOT
ATOM      1  S   UNL     1       1.958   4.768  20.474  0.00  0.00    +0.000 S 
ATOM      2  O   UNL     1       2.578   3.861  21.423  0.00  0.00    +0.000 OA
ATOM      3  O   UNL     1       0.569   4.570  20.105  0.00  0.00    +0.000 OA
ENDROOT
BRANCH   1   4
ATOM      4  N   UNL     1       2.787   4.535  19.074  0.00  0.00    +0.000 N 
ATOM      5  C   UNL     1       2.428   3.669  18.057  0.00  0.00    +0.000 C 
ATOM      6  O   UNL     1       1.319   3.157  17.996  0.00  0.00    +0.000 OA
ATOM      7  N   UNL     1       3.342   3.460  17.071  0.00  0.00    +0.000 N 
ATOM      8  C   UNL     1       4.624   3.970  16.984  0.00  0.00    +0.000 A 
ATOM      9  N   UNL     1       5.209   4.492  18.077  0.00  0.00    +0.000 NA
ATOM     10  C   UNL     1       6.433   5.037  17.921  0.00  0.00    +0.000 A 
ATOM     11  C   UNL     1       7.091   5.616  19.137  0.00  0.00    +0.000 C 
ATOM     12  C   UNL     1       7.056   5.098  16.692  0.00  0.00    +0.000 A 
ATOM     13  C   UNL     1       6.382   4.533  15.628  0.00  0.00    +0.000 A 
ATOM     14  C   UNL     1       6.948   4.597  14.241  0.00  0.00    +0.000 C 
ATOM     15  N   UNL     1       5.177   3.939  15.766  0.00  0.00    +0.000 NA
ATOM     16  H   UNL     1       3.791   4.663  19.204  0.00  0.00    +0.000 HD
ATOM     17  H   UNL     1       3.007   2.987  16.250  0.00  0.00    +0.000 HD
ENDBRANCH   1   4
BRANCH   1  18
ATOM     18  O   UNL     1       2.187   6.308  21.015  0.00  0.00    +0.000 OA
BRANCH  18  24
ATOM     19  C   UNL     1       1.373   8.579  20.536  0.00  0.00    +0.000 A 
ATOM     20  C   UNL     1       1.102   9.549  19.539  0.00  0.00    +0.000 A 
ATOM     21  C   UNL     1       1.405   9.342  18.195  0.00  0.00    +0.000 A 
ATOM     22  C   UNL     1       2.044   8.182  17.820  0.00  0.00    +0.000 A 
ATOM     23  C   UNL     1       2.345   7.226  18.784  0.00  0.00    +0.000 A 
ATOM     24  C   UNL     1       1.972   7.366  20.143  0.00  0.00    +0.000 A 
BRANCH  19  25
ATOM     25  C   UNL     1       0.947   9.031  21.907  0.00  0.00    +0.000 C 
ATOM     26  O   UNL     1       1.772   9.292  22.766  0.00  0.00    +0.000 OA
BRANCH  25  27
ATOM     27  O   UNL     1      -0.391   9.084  22.099  0.00  0.00    +0.000 OA
BRANCH  27  29
ATOM     28  C   UNL     1      -1.059  11.395  22.560  0.00  0.00    +0.000 C 
ATOM     29  C   UNL     1      -0.787  10.012  23.134  0.00  0.00    +0.000 C 
ENDBRANCH  27  29
ENDBRANCH  25  27
ENDBRANCH  19  25
ENDBRANCH  18  24
ENDBRANCH   1  18
TORSDOF 6
ENDMDL
MODEL 3
REMARK VINA RESULT:      -7.5      2.658      4.848
REMARK  Name = 
REMARK  9 active torsions:
REMARK  status: ('A' for Active; 'I' for Inactive)
REMARK    1  A    between atoms: C_1  and  C_2
REMARK    2  A    between atoms: C_2  and  O_3
REMARK    3  A    between atoms: O_3  and  C_4
REMARK    4  A    between atoms: C_4  and  C_6
REMARK    5  A    between atoms: C_11  and  O_12
REMARK    6  A    between atoms: O_12  and  S_13
REMARK    7  A    between atoms: S_13  and  N_16
REMARK    8  A    between atoms: C_22  and  C_23
REMARK    9  A    between atoms: C_25  and  C_26
REMARK                            x       y       z     vdW  Elec       q    Type
REMARK                         _______ _______ _______ _____ _____    ______ ____
ROOT
ATOM      1  S   UNL     1       3.814   2.816  18.383  0.00  0.00    +0.000 S 
ATOM      2  O   UNL     1       2.741   2.133  17.683  0.00  0.00    +0.000 OA
ATOM      3  O   UNL     1       4.629   2.076  19.327  0.00  0.00    +0.000 OA
ENDROOT
BRANCH   1   4
ATOM      4  N   UNL     1       3.056   3.948  19.302  0.00  0.00    +0.000 N 
ATOM      5  C   UNL     1       2.119   3.695  20.286  0.00  0.00    +0.000 C 
ATOM      6  O   UNL     1       1.932   2.574  20.738  0.00  0.00    +0.000 OA
ATOM      7  N   UNL     1       1.452   4.766  20.796  0.00  0.00    +0.000 N 
ATOM      8  C   UNL     1       1.556   6.089  20.410  0.00  0.00    +0.000 A 
ATOM      9  N   UNL     1       2.126   6.397  19.232  0.00  0.00    +0.000 NA
ATOM     10  C   UNL     1       2.264   7.705  18.936  0.00  0.00    +0.000 A 
ATOM     11  C   UNL     1       2.894   8.053  17.621  0.00  0.00    +0.000 C 
ATOM     12  C   UNL     1       1.875   8.699  19.810  0.00  0.00    +0.000 A 
ATOM     13  C   UNL     1       1.296   8.289  20.994  0.00  0.00    +0.000 A 
ATOM     14  C   UNL     1       0.892   9.288  22.036  0.00  0.00    +0.000 C 
ATOM     15  N   UNL     1       1.103   6.987  21.294  0.00  0.00    +0.000 NA
ATOM     16  H   UNL     1       2.927   4.824  18.792  0.00  0.00    +0.000 HD
ATOM     17  H   UNL     1       0.919   4.599  21.633  0.00  0.00    +0.000 HD
ENDBRANCH   1   4
BRANCH   1  18
ATOM     18  O   UNL     1       4.771   3.549  17.260  0.00  0.00    +0.000 OA
BRANCH  18  24
ATOM     19  C   UNL     1       6.255   5.455  16.794  0.00  0.00    +0.000 A 
ATOM     20  C   UNL     1       7.241   6.335  17.307  0.00  0.00    +0.000 A 
ATOM     21  C   UNL     1       7.643   6.308  18.641  0.00  0.00    +0.000 A 
ATOM     22  C   UNL     1       7.027   5.441  19.513  0.00  0.00    +0.000 A 
ATOM     23  C   UNL     1       6.038   4.586  19.039  0.00  0.00    +0.000 A 
ATOM     24  C   UNL     1       5.668   4.524  17.675  0.00  0.00    +0.000 A 
BRANCH  19  25
ATOM     25  C   UNL     1       6.000   5.672  15.327  0.00  0.00    +0.000 C 
ATOM     26  O   UNL     1       5.143   6.453  14.948  0.00  0.00    +0.000 OA
BRANCH  25  27
ATOM     27  O   UNL     1       6.760   4.918  14.499  0.00  0.00    +0.000 OA
BRANCH  27  29
ATOM     28  C   UNL     1       6.374   3.617  12.460  0.00  0.00    +0.000 C 
ATOM     29  C   UNL     1       6.051   3.791  13.936  0.00  0.00    +0.000 C 
ENDBRANCH  27  29
ENDBRANCH  25  27
ENDBRANCH  19  25
ENDBRANCH  18  24
ENDBRANCH   1  18
TORSDOF 6
ENDMDL
MODEL 4
REMARK VINA RESULT:      -7.4      2.367      4.212
REMARK  Name = 
REMARK  9 active torsions:
REMARK  status: ('A' for Active; 'I' for Inactive)
REMARK    1  A    between atoms: C_1  and  C_2
REMARK    2  A    between atoms: C_2  and  O_3
REMARK    3  A    between atoms: O_3  and  C_4
REMARK    4  A    between atoms: C_4  and  C_6
REMARK    5  A    between atoms: C_11  and  O_12
REMARK    6  A    between atoms: O_12  and  S_13
REMARK    7  A    between atoms: S_13  and  N_16
REMARK    8  A    between atoms: C_22  and  C_23
REMARK    9  A    between atoms: C_25  and  C_26
REMARK                            x       y       z     vdW  Elec       q    Type
REMARK                         _______ _______ _______ _____ _____    ______ ____
ROOT
ATOM      1  S   UNL     1       3.940   5.254  18.693  0.00  0.00    +0.000 S 
ATOM      2  O   UNL     1       3.077   4.172  18.256  0.00  0.00    +0.000 OA
ATOM      3  O   UNL     1       5.094   4.953  19.518  0.00  0.00    +0.000 OA
ENDROOT
BRANCH   1   4
ATOM      4  N   UNL     1       2.986   6.186  19.654  0.00  0.00    +0.000 N 
ATOM      5  C   UNL     1       2.206   5.732  20.701  0.00  0.00    +0.000 C 
ATOM      6  O   UNL     1       2.333   4.610  21.172  0.00  0.00    +0.000 OA
ATOM      7  N   UNL     1       1.329   6.616  21.249  0.00  0.00    +0.000 N 
ATOM      8  C   UNL     1       1.078   7.915  20.848  0.00  0.00    +0.000 A 
ATOM      9  N   UNL     1       1.476   8.327  19.632  0.00  0.00    +0.000 NA
ATOM     10  C   UNL     1       1.266   9.621  19.319  0.00  0.00    +0.000 A 
ATOM     11  C   UNL     1       1.704  10.084  17.962  0.00  0.00    +0.000 C 
ATOM     12  C   UNL     1       0.700  10.508  20.211  0.00  0.00    +0.000 A 
ATOM     13  C   UNL     1       0.319   9.995  21.434  0.00  0.00    +0.000 A 
ATOM     14  C   UNL     1      -0.253  10.888  22.495  0.00  0.00    +0.000 C 
ATOM     15  N   UNL     1       0.474   8.693  21.755  0.00  0.00    +0.000 NA
ATOM     16  H   UNL     1       2.612   6.990  19.149  0.00  0.00    +0.000 HD
ATOM     17  H   UNL     1       0.910   6.342  22.121  0.00  0.00    +0.000 HD
ENDBRANCH   1   4
BRANCH   1  18
ATOM     18  O   UNL     1       4.403   6.107  17.361  0.00  0.00    +0.000 OA
BRANCH  18  24
ATOM     19  C   UNL     1       6.693   5.765  16.532  0.00  0.00    +0.000 A 
ATOM     20  C   UNL     1       7.508   5.216  15.511  0.00  0.00    +0.000 A 
ATOM     21  C   UNL     1       6.984   4.461  14.463  0.00  0.00    +0.000 A 
ATOM     22  C   UNL     1       5.636   4.184  14.441  0.00  0.00    +0.000 A 
ATOM     23  C   UNL     1       4.819   4.690  15.447  0.00  0.00    +0.000 A 
ATOM     24  C   UNL     1       5.304   5.533  16.475  0.00  0.00    +0.000 A 
BRANCH  19  25
ATOM     25  C   UNL     1       7.489   6.546  17.543  0.00  0.00    +0.000 C 
ATOM     26  O   UNL     1       7.907   6.013  18.557  0.00  0.00    +0.000 OA
BRANCH  25  27
ATOM     27  O   UNL     1       7.659   7.854  17.247  0.00  0.00    +0.000 OA
BRANCH  27  29
ATOM     28  C   UNL     1       8.452  10.069  17.931  0.00  0.00    +0.000 C 
ATOM     29  C   UNL     1       8.363   8.589  18.274  0.00  0.00    +0.000 C 
ENDBRANCH  27  29
ENDBRANCH  25  27
ENDBRANCH  19  25
ENDBRANCH  18  24
ENDBRANCH   1  18
TORSDOF 6
ENDMDL
MODEL 5
REMARK VINA RESULT:      -7.2      1.316      3.045
REMARK  Name = 
REMARK  9 active torsions:
REMARK  status: ('A' for Active; 'I' for Inactive)
REMARK    1  A    between atoms: C_1  and  C_2
REMARK    2  A    between atoms: C_2  and  O_3
REMARK    3  A    between atoms: O_3  and  C_4
REMARK    4  A    between atoms: C_4  and  C_6
REMARK    5  A    between atoms: C_11  and  O_12
REMARK    6  A    between atoms: O_12  and  S_13
REMARK    7  A    between atoms: S_13  and  N_16
REMARK    8  A    between atoms: C_22  and  C_23
REMARK    9  A    between atoms: C_25  and  C_26
REMARK                            x       y       z     vdW  Elec       q    Type
REMARK                         _______ _______ _______ _____ _____    ______ ____
ROOT
ATOM      1  S   UNL     1       2.615   6.824  19.086  0.00  0.00    +0.000 S 
ATOM      2  O   UNL     1       2.354   6.217  20.379  0.00  0.00    +0.000 OA
ATOM      3  O   UNL     1       3.960   7.265  18.768  0.00  0.00    +0.000 OA
ENDROOT
BRANCH   1   4
ATOM      4  N   UNL     1       1.725   8.206  19.088  0.00  0.00    +0.000 N 
ATOM      5  C   UNL     1       1.775   9.200  18.129  0.00  0.00    +0.000 C 
ATOM      6  O   UNL     1       2.324   9.038  17.048  0.00  0.00    +0.000 OA
ATOM      7  N   UNL     1       1.119  10.360  18.404  0.00  0.00    +0.000 N 
ATOM      8  C   UNL     1       0.443  10.693  19.563  0.00  0.00    +0.000 A 
ATOM      9  N   UNL     1       0.653   9.983  20.686  0.00  0.00    +0.000 NA
ATOM     10  C   UNL     1      -0.083  10.308  21.768  0.00  0.00    +0.000 A 
ATOM     11  C   UNL     1       0.151   9.523  23.023  0.00  0.00    +0.000 C 
ATOM     12  C   UNL     1      -1.041  11.300  21.732  0.00  0.00    +0.000 A 
ATOM     13  C   UNL     1      -1.183  11.978  20.538  0.00  0.00    +0.000 A 
ATOM     14  C   UNL     1      -2.235  13.035  20.378  0.00  0.00    +0.000 C 
ATOM     15  N   UNL     1      -0.427  11.705  19.454  0.00  0.00    +0.000 NA
ATOM     16  H   UNL     1       1.525   8.524  20.037  0.00  0.00    +0.000 HD
ATOM     17  H   UNL     1       1.001  10.995  17.635  0.00  0.00    +0.000 HD
ENDBRANCH   1   4
BRANCH   1  18
ATOM     18  O   UNL     1       2.064   5.798  17.921  0.00  0.00    +0.000 OA
BRANCH  18  24
ATOM     19  C   UNL     1       3.432   3.761  17.751  0.00  0.00    +0.000 A 
ATOM     20  C   UNL     1       3.463   2.348  17.863  0.00  0.00    +0.000 A 
ATOM     21  C   UNL     1       2.362   1.610  18.293  0.00  0.00    +0.000 A 
ATOM     22  C   UNL     1       1.219   2.269  18.681  0.00  0.00    +0.000 A 
ATOM     23  C   UNL     1       1.173   3.657  18.606  0.00  0.00    +0.000 A 
ATOM     24  C   UNL     1       2.240   4.432  18.090  0.00  0.00    +0.000 A 
BRANCH  19  25
ATOM     25  C   UNL     1       4.737   4.326  17.259  0.00  0.00    +0.000 C 
ATOM     26  O   UNL     1       4.867   4.686  16.101  0.00  0.00    +0.000 OA
BRANCH  25  27
ATOM     27  O   UNL     1       5.726   4.360  18.180  0.00  0.00    +0.000 OA
BRANCH  27  29
ATOM     28  C   UNL     1       7.480   6.071  18.160  0.00  0.00    +0.000 C 
ATOM     29  C   UNL     1       7.012   4.723  17.629  0.00  0.00    +0.000 C 
ENDBRANCH  27  29
ENDBRANCH  25  27
ENDBRANCH  19  25
ENDBRANCH  18  24
ENDBRANCH   1  18
TORSDOF 6
ENDMDL
MODEL 6
REMARK VINA RESULT:      -7.2      1.100      2.991
REMARK  Name = 
REMARK  9 active torsions:
REMARK  status: ('A' for Active; 'I' for Inactive)
REMARK    1  A    between atoms: C_1  and  C_2
REMARK    2  A    between atoms: C_2  and  O_3
REMARK    3  A    between atoms: O_3  and  C_4
REMARK    4  A    between atoms: C_4  and  C_6
REMARK    5  A    between atoms: C_11  and  O_12
REMARK    6  A    between atoms: O_12  and  S_13
REMARK    7  A    between atoms: S_13  and  N_16
REMARK    8  A    between atoms: C_22  and  C_23
REMARK    9  A    between atoms: C_25  and  C_26
REMARK                            x       y       z     vdW  Elec       q    Type
REMARK                         _______ _______ _______ _____ _____    ______ ____
ROOT
ATOM      1  S   UNL     1       2.733   6.708  19.056  0.00  0.00    +0.000 S 
ATOM      2  O   UNL     1       2.498   6.150  20.376  0.00  0.00    +0.000 OA
ATOM      3  O   UNL     1       4.072   7.131  18.692  0.00  0.00    +0.000 OA
ENDROOT
BRANCH   1   4
ATOM      4  N   UNL     1       1.848   8.092  19.026  0.00  0.00    +0.000 N 
ATOM      5  C   UNL     1       1.912   9.072  18.053  0.00  0.00    +0.000 C 
ATOM      6  O   UNL     1       2.471   8.891  16.981  0.00  0.00    +0.000 OA
ATOM      7  N   UNL     1       1.257  10.238  18.304  0.00  0.00    +0.000 N 
ATOM      8  C   UNL     1       0.570  10.592  19.450  0.00  0.00    +0.000 A 
ATOM      9  N   UNL     1       0.766   9.898  20.585  0.00  0.00    +0.000 NA
ATOM     10  C   UNL     1       0.020  10.243  21.655  0.00  0.00    +0.000 A 
ATOM     11  C   UNL     1       0.237   9.476  22.925  0.00  0.00    +0.000 C 
ATOM     12  C   UNL     1      -0.934  11.238  21.594  0.00  0.00    +0.000 A 
ATOM     13  C   UNL     1      -1.061  11.898  20.388  0.00  0.00    +0.000 A 
ATOM     14  C   UNL     1      -2.107  12.956  20.200  0.00  0.00    +0.000 C 
ATOM     15  N   UNL     1      -0.294  11.605  19.316  0.00  0.00    +0.000 NA
ATOM     16  H   UNL     1       1.639   8.426  19.968  0.00  0.00    +0.000 HD
ATOM     17  H   UNL     1       1.150  10.862  17.523  0.00  0.00    +0.000 HD
ENDBRANCH   1   4
BRANCH   1  18
ATOM     18  O   UNL     1       2.152   5.642  17.941  0.00  0.00    +0.000 OA
BRANCH  18  24
ATOM     19  C   UNL     1       3.427   3.544  18.074  0.00  0.00    +0.000 A 
ATOM     20  C   UNL     1       3.372   2.140  18.262  0.00  0.00    +0.000 A 
ATOM     21  C   UNL     1       2.187   1.474  18.569  0.00  0.00    +0.000 A 
ATOM     22  C   UNL     1       1.035   2.202  18.755  0.00  0.00    +0.000 A 
ATOM     23  C   UNL     1       1.069   3.584  18.602  0.00  0.00    +0.000 A 
ATOM     24  C   UNL     1       2.234   4.282  18.205  0.00  0.00    +0.000 A 
BRANCH  19  25
ATOM     25  C   UNL     1       4.815   4.024  17.743  0.00  0.00    +0.000 C 
ATOM     26  O   UNL     1       5.689   4.046  18.593  0.00  0.00    +0.000 OA
BRANCH  25  27
ATOM     27  O   UNL     1       4.983   4.447  16.469  0.00  0.00    +0.000 OA
BRANCH  27  29
ATOM     28  C   UNL     1       6.279   4.003  14.439  0.00  0.00    +0.000 C 
ATOM     29  C   UNL     1       6.307   4.189  15.949  0.00  0.00    +0.000 C 
ENDBRANCH  27  29
ENDBRANCH  25  27
ENDBRANCH  19  25
ENDBRANCH  18  24
ENDBRANCH   1  18
TORSDOF 6
ENDMDL
MODEL 7
REMARK VINA RESULT:      -7.1      1.964      3.150
REMARK  Name = 
REMARK  9 active torsions:
REMARK  status: ('A' for Active; 'I' for Inactive)
REMARK    1  A    between atoms: C_1  and  C_2
REMARK    2  A    between atoms: C_2  and  O_3
REMARK    3  A    between atoms: O_3  and  C_4
REMARK    4  A    between atoms: C_4  and  C_6
REMARK    5  A    between atoms: C_11  and  O_12
REMARK    6  A    between atoms: O_12  and  S_13
REMARK    7  A    between atoms: S_13  and  N_16
REMARK    8  A    between atoms: C_22  and  C_23
REMARK    9  A    between atoms: C_25  and  C_26
REMARK                            x       y       z     vdW  Elec       q    Type
REMARK                         _______ _______ _______ _____ _____    ______ ____
ROOT
ATOM      1  S   UNL     1       2.786   5.661  19.176  0.00  0.00    +0.000 S 
ATOM      2  O   UNL     1       2.408   4.882  18.010  0.00  0.00    +0.000 OA
ATOM      3  O   UNL     1       2.246   5.303  20.474  0.00  0.00    +0.000 OA
ENDROOT
BRANCH   1   4
ATOM      4  N   UNL     1       2.184   7.162  18.886  0.00  0.00    +0.000 N 
ATOM      5  C   UNL     1       2.690   8.074  17.978  0.00  0.00    +0.000 C 
ATOM      6  O   UNL     1       3.504   7.759  17.121  0.00  0.00    +0.000 OA
ATOM      7  N   UNL     1       2.187   9.337  18.024  0.00  0.00    +0.000 N 
ATOM      8  C   UNL     1       1.259   9.846  18.913  0.00  0.00    +0.000 A 
ATOM      9  N   UNL     1       0.997   9.184  20.054  0.00  0.00    +0.000 NA
ATOM     10  C   UNL     1       0.034   9.689  20.853  0.00  0.00    +0.000 A 
ATOM     11  C   UNL     1      -0.259   8.958  22.128  0.00  0.00    +0.000 C 
ATOM     12  C   UNL     1      -0.685  10.815  20.511  0.00  0.00    +0.000 A 
ATOM     13  C   UNL     1      -0.343  11.430  19.323  0.00  0.00    +0.000 A 
ATOM     14  C   UNL     1      -1.102  12.627  18.834  0.00  0.00    +0.000 C 
ATOM     15  N   UNL     1       0.648  10.973  18.529  0.00  0.00    +0.000 NA
ATOM     16  H   UNL     1       1.763   7.568  19.723  0.00  0.00    +0.000 HD
ATOM     17  H   UNL     1       2.417   9.934  17.247  0.00  0.00    +0.000 HD
ENDBRANCH   1   4
BRANCH   1  18
ATOM     18  O   UNL     1       4.432   5.715  19.242  0.00  0.00    +0.000 OA
BRANCH  18  24
ATOM     19  C   UNL     1       6.569   5.216  18.132  0.00  0.00    +0.000 A 
ATOM     20  C   UNL     1       7.206   4.692  16.979  0.00  0.00    +0.000 A 
ATOM     21  C   UNL     1       6.493   4.113  15.931  0.00  0.00    +0.000 A 
ATOM     22  C   UNL     1       5.126   3.989  16.035  0.00  0.00    +0.000 A 
ATOM     23  C   UNL     1       4.481   4.471  17.169  0.00  0.00    +0.000 A 
ATOM     24  C   UNL     1       5.164   5.143  18.211  0.00  0.00    +0.000 A 
BRANCH  19  25
ATOM     25  C   UNL     1       7.551   5.794  19.117  0.00  0.00    +0.000 C 
ATOM     26  O   UNL     1       7.594   5.393  20.267  0.00  0.00    +0.000 OA
BRANCH  25  27
ATOM     27  O   UNL     1       8.327   6.788  18.629  0.00  0.00    +0.000 OA
BRANCH  27  29
ATOM     28  C   UNL     1       8.213   9.140  17.954  0.00  0.00    +0.000 C 
ATOM     29  C   UNL     1       7.595   7.754  17.841  0.00  0.00    +0.000 C 
ENDBRANCH  27  29
ENDBRANCH  25  27
ENDBRANCH  19  25
ENDBRANCH  18  24
ENDBRANCH   1  18
TORSDOF 6
ENDMDL
MODEL 8
REMARK VINA RESULT:      -7.1      3.151      8.364
REMARK  Name = 
REMARK  9 active torsions:
REMARK  status: ('A' for Active; 'I' for Inactive)
REMARK    1  A    between atoms: C_1  and  C_2
REMARK    2  A    between atoms: C_2  and  O_3
REMARK    3  A    between atoms: O_3  and  C_4
REMARK    4  A    between atoms: C_4  and  C_6
REMARK    5  A    between atoms: C_11  and  O_12
REMARK    6  A    between atoms: O_12  and  S_13
REMARK    7  A    between atoms: S_13  and  N_16
REMARK    8  A    between atoms: C_22  and  C_23
REMARK    9  A    between atoms: C_25  and  C_26
REMARK                            x       y       z     vdW  Elec       q    Type
REMARK                         _______ _______ _______ _____ _____    ______ ____
ROOT
ATOM      1  S   UNL     1       0.714   9.277  21.544  0.00  0.00    +0.000 S 
ATOM      2  O   UNL     1       1.605   9.333  22.689  0.00  0.00    +0.000 OA
ATOM      3  O   UNL     1      -0.546   8.567  21.659  0.00  0.00    +0.000 OA
ENDROOT
BRANCH   1   4
ATOM      4  N   UNL     1       1.551   8.436  20.406  0.00  0.00    +0.000 N 
ATOM      5  C   UNL     1       1.675   8.783  19.074  0.00  0.00    +0.000 C 
ATOM      6  O   UNL     1       1.366   9.890  18.656  0.00  0.00    +0.000 OA
ATOM      7  N   UNL     1       2.232   7.861  18.243  0.00  0.00    +0.000 N 
ATOM      8  C   UNL     1       2.646   6.580  18.558  0.00  0.00    +0.000 A 
ATOM      9  N   UNL     1       2.225   6.005  19.699  0.00  0.00    +0.000 NA
ATOM     10  C   UNL     1       2.713   4.782  19.991  0.00  0.00    +0.000 A 
ATOM     11  C   UNL     1       2.244   4.135  21.259  0.00  0.00    +0.000 C 
ATOM     12  C   UNL     1       3.633   4.148  19.181  0.00  0.00    +0.000 A 
ATOM     13  C   UNL     1       4.003   4.813  18.029  0.00  0.00    +0.000 A 
ATOM     14  C   UNL     1       5.039   4.235  17.111  0.00  0.00    +0.000 C 
ATOM     15  N   UNL     1       3.494   6.016  17.690  0.00  0.00    +0.000 NA
ATOM     16  H   UNL     1       1.543   7.433  20.597  0.00  0.00    +0.000 HD
ATOM     17  H   UNL     1       2.491   8.187  17.328  0.00  0.00    +0.000 HD
ENDBRANCH   1   4
BRANCH   1  18
ATOM     18  O   UNL     1       0.451  10.819  21.026  0.00  0.00    +0.000 OA
BRANCH  18  24
ATOM     19  C   UNL     1      -1.659  11.924  20.409  0.00  0.00    +0.000 A 
ATOM     20  C   UNL     1      -2.789  12.647  20.866  0.00  0.00    +0.000 A 
ATOM     21  C   UNL     1      -3.016  12.901  22.217  0.00  0.00    +0.000 A 
ATOM     22  C   UNL     1      -2.150  12.385  23.154  0.00  0.00    +0.000 A 
ATOM     23  C   UNL     1      -1.049  11.648  22.732  0.00  0.00    +0.000 A 
ATOM     24  C   UNL     1      -0.740  11.448  21.365  0.00  0.00    +0.000 A 
BRANCH  19  25
ATOM     25  C   UNL     1      -1.631  11.789  18.910  0.00  0.00    +0.000 C 
ATOM     26  O   UNL     1      -0.892  12.482  18.232  0.00  0.00    +0.000 OA
BRANCH  25  27
ATOM     27  O   UNL     1      -2.501  10.885  18.404  0.00  0.00    +0.000 OA
BRANCH  27  29
ATOM     28  C   UNL     1      -2.592   9.978  16.130  0.00  0.00    +0.000 C 
ATOM     29  C   UNL     1      -2.888  11.162  17.039  0.00  0.00    +0.000 C 
ENDBRANCH  27  29
ENDBRANCH  25  27
ENDBRANCH  19  25
ENDBRANCH  18  24
ENDBRANCH   1  18
TORSDOF 6
ENDMDL
MODEL 9
REMARK VINA RESULT:      -7.0      1.282      3.139
REMARK  Name = 
REMARK  9 active torsions:
REMARK  status: ('A' for Active; 'I' for Inactive)
REMARK    1  A    between atoms: C_1  and  C_2
REMARK    2  A    between atoms: C_2  and  O_3
REMARK    3  A    between atoms: O_3  and  C_4
REMARK    4  A    between atoms: C_4  and  C_6
REMARK    5  A    between atoms: C_11  and  O_12
REMARK    6  A    between atoms: O_12  and  S_13
REMARK    7  A    between atoms: S_13  and  N_16
REMARK    8  A    between atoms: C_22  and  C_23
REMARK    9  A    between atoms: C_25  and  C_26
REMARK                            x       y       z     vdW  Elec       q    Type
REMARK                         _______ _______ _______ _____ _____    ______ ____
ROOT
ATOM      1  S   UNL     1       2.535   7.198  18.662  0.00  0.00    +0.000 S 
ATOM      2  O   UNL     1       3.820   7.658  18.167  0.00  0.00    +0.000 OA
ATOM      3  O   UNL     1       1.661   6.449  17.779  0.00  0.00    +0.000 OA
ENDROOT
BRANCH   1   4
ATOM      4  N   UNL     1       1.698   8.575  18.989  0.00  0.00    +0.000 N 
ATOM      5  C   UNL     1       1.732   9.737  18.243  0.00  0.00    +0.000 C 
ATOM      6  O   UNL     1       2.213   9.778  17.119  0.00  0.00    +0.000 OA
ATOM      7  N   UNL     1       1.136  10.836  18.780  0.00  0.00    +0.000 N 
ATOM      8  C   UNL     1       0.539  10.951  20.022  0.00  0.00    +0.000 A 
ATOM      9  N   UNL     1       0.785  10.028  20.968  0.00  0.00    +0.000 NA
ATOM     10  C   UNL     1       0.123  10.151  22.137  0.00  0.00    +0.000 A 
ATOM     11  C   UNL     1       0.398   9.128  23.197  0.00  0.00    +0.000 C 
ATOM     12  C   UNL     1      -0.797  11.155  22.356  0.00  0.00    +0.000 A 
ATOM     13  C   UNL     1      -0.981  12.059  21.329  0.00  0.00    +0.000 A 
ATOM     14  C   UNL     1      -2.000  13.153  21.445  0.00  0.00    +0.000 C 
ATOM     15  N   UNL     1      -0.297  11.987  20.167  0.00  0.00    +0.000 NA
ATOM     16  H   UNL     1       1.563   8.704  19.993  0.00  0.00    +0.000 HD
ATOM     17  H   UNL     1       0.998  11.614  18.159  0.00  0.00    +0.000 HD
ENDBRANCH   1   4
BRANCH   1  18
ATOM     18  O   UNL     1       2.796   6.352  20.052  0.00  0.00    +0.000 OA
BRANCH  18  24
ATOM     19  C   UNL     1       3.423   4.053  19.446  0.00  0.00    +0.000 A 
ATOM     20  C   UNL     1       3.030   2.691  19.420  0.00  0.00    +0.000 A 
ATOM     21  C   UNL     1       1.831   2.249  19.976  0.00  0.00    +0.000 A 
ATOM     22  C   UNL     1       1.019   3.149  20.628  0.00  0.00    +0.000 A 
ATOM     23  C   UNL     1       1.396   4.487  20.690  0.00  0.00    +0.000 A 
ATOM     24  C   UNL     1       2.562   4.984  20.060  0.00  0.00    +0.000 A 
BRANCH  19  25
ATOM     25  C   UNL     1       4.751   4.279  18.775  0.00  0.00    +0.000 C 
ATOM     26  O   UNL     1       5.770   4.411  19.431  0.00  0.00    +0.000 OA
BRANCH  25  27
ATOM     27  O   UNL     1       4.701   4.357  17.425  0.00  0.00    +0.000 OA
BRANCH  27  29
ATOM     28  C   UNL     1       6.002   3.921  15.396  0.00  0.00    +0.000 C 
ATOM     29  C   UNL     1       6.002   4.486  16.809  0.00  0.00    +0.000 C 
ENDBRANCH  27  29
ENDBRANCH  25  27
ENDBRANCH  19  25
ENDBRANCH  18  24
ENDBRANCH   1  18
TORSDOF 6
ENDMDL
