MODEL 1
REMARK VINA RESULT:      -7.9      0.000      0.000
REMARK  Name = 
REMARK  3 active torsions:
REMARK  status: ('A' for Active; 'I' for Inactive)
REMARK    1  A    between atoms: C_1  and  C_2
REMARK    2  A    between atoms: N_7  and  C_8
REMARK    3  A    between atoms: N_14  and  C_15
REMARK                            x       y       z     vdW  Elec       q    Type
REMARK                         _______ _______ _______ _____ _____    ______ ____
ROOT
ATOM      1  C   UNL     1       4.191   4.112  17.035  0.00  0.00    +0.000 C 
ATOM      2  C   UNL     1       4.929   3.733  18.323  0.00  0.00    +0.000 C 
ATOM      3  C   UNL     1       4.723   4.809  19.423  0.00  0.00    +0.000 C 
ATOM      4  N   UNL     1       3.367   4.733  19.979  0.00  0.00    +0.000 N 
ATOM      5  C   UNL     1       2.370   5.687  19.971  0.00  0.00    +0.000 C 
ATOM      6  O   UNL     1       1.269   5.434  20.454  0.00  0.00    +0.000 OA
ATOM      7  N   UNL     1       2.679   6.895  19.380  0.00  0.00    +0.000 N 
ATOM      8  C   UNL     1       3.051   3.401  20.504  0.00  0.00    +0.000 C 
ATOM      9  C   UNL     1       3.230   2.335  19.410  0.00  0.00    +0.000 C 
ATOM     10  N   UNL     1       4.562   2.373  18.778  0.00  0.00    +0.000 NA
ATOM     11  H   UNL     1       3.431   6.900  18.710  0.00  0.00    +0.000 HD
ATOM     12  H   UNL     1       4.573   1.727  17.988  0.00  0.00    +0.000 HD
ENDROOT
BRANCH   7  13
ATOM     13  C   UNL     1       1.845   8.042  19.383  0.00  0.00    +0.000 A 
ATOM     14  C   UNL     1       1.604   8.804  18.235  0.00  0.00    +0.000 A 
ATOM     15  C   UNL     1       0.794   9.942  18.274  0.00  0.00    +0.000 A 
ATOM     16  C   UNL     1       0.203  10.336  19.471  0.00  0.00    +0.000 A 
ATOM     17  C   UNL     1      -0.643  11.523  19.525  0.00  0.00    +0.000 A 
ATOM     18  C   UNL     1      -1.142  11.918  20.700  0.00  0.00    +0.000 A 
ATOM     19  N   UNL     1      -0.899  11.230  21.873  0.00  0.00    +0.000 N 
ATOM     20  C   UNL     1      -1.395  11.762  23.131  0.00  0.00    +0.000 C 
ATOM     21  C   UNL     1      -0.142  10.051  21.917  0.00  0.00    +0.000 A 
ATOM     22  O   UNL     1       0.077   9.420  22.948  0.00  0.00    +0.000 OA
ATOM     23  C   UNL     1       0.433   9.580  20.626  0.00  0.00    +0.000 A 
ATOM     24  C   UNL     1       1.232   8.423  20.582  0.00  0.00    +0.000 A 
ENDBRANCH   7  13
TORSDOF 1
ENDMDL
MODEL 2
REMARK VINA RESULT:      -7.9      1.397      1.684
REMARK  Name = 
REMARK  3 active torsions:
REMARK  status: ('A' for Active; 'I' for Inactive)
REMARK    1  A    between atoms: C_1  and  C_2
REMARK    2  A    between atoms: N_7  and  C_8
REMARK    3  A    between atoms: N_14  and  C_15
REMARK                            x       y       z     vdW  Elec       q    Type
REMARK                         _______ _______ _______ _____ _____    ______ ____
ROOT
ATOM      1  C   UNL     1       6.467   6.349  16.915  0.00  0.00    +0.000 C 
ATOM      2  C   UNL     1       6.458   5.148  17.866  0.00  0.00    +0.000 C 
ATOM      3  C   UNL     1       5.352   5.298  18.946  0.00  0.00    +0.000 C 
ATOM      4  N   UNL     1       4.024   5.062  18.367  0.00  0.00    +0.000 N 
ATOM      5  C   UNL     1       2.949   5.923  18.279  0.00  0.00    +0.000 C 
ATOM      6  O   UNL     1       1.916   5.565  17.720  0.00  0.00    +0.000 OA
ATOM      7  N   UNL     1       3.121   7.179  18.824  0.00  0.00    +0.000 N 
ATOM      8  C   UNL     1       3.924   3.754  17.711  0.00  0.00    +0.000 C 
ATOM      9  C   UNL     1       5.002   3.612  16.624  0.00  0.00    +0.000 C 
ATOM     10  N   UNL     1       6.365   3.870  17.125  0.00  0.00    +0.000 NA
ATOM     11  H   UNL     1       4.066   7.510  18.926  0.00  0.00    +0.000 HD
ATOM     12  H   UNL     1       7.013   3.877  16.337  0.00  0.00    +0.000 HD
ENDROOT
BRANCH   7  13
ATOM     13  C   UNL     1       2.104   8.158  18.952  0.00  0.00    +0.000 A 
ATOM     14  C   UNL     1       1.592   8.864  17.858  0.00  0.00    +0.000 A 
ATOM     15  C   UNL     1       0.604   9.839  18.019  0.00  0.00    +0.000 A 
ATOM     16  C   UNL     1       0.105  10.123  19.287  0.00  0.00    +0.000 A 
ATOM     17  C   UNL     1      -0.925  11.140  19.468  0.00  0.00    +0.000 A 
ATOM     18  C   UNL     1      -1.337  11.442  20.703  0.00  0.00    +0.000 A 
ATOM     19  N   UNL     1      -0.832  10.810  21.823  0.00  0.00    +0.000 N 
ATOM     20  C   UNL     1      -1.255  11.247  23.143  0.00  0.00    +0.000 C 
ATOM     21  C   UNL     1       0.121   9.785  21.750  0.00  0.00    +0.000 A 
ATOM     22  O   UNL     1       0.575   9.205  22.734  0.00  0.00    +0.000 OA
ATOM     23  C   UNL     1       0.607   9.422  20.390  0.00  0.00    +0.000 A 
ATOM     24  C   UNL     1       1.586   8.426  20.224  0.00  0.00    +0.000 A 
ENDBRANCH   7  13
TORSDOF 1
ENDMDL
MODEL 3
REMARK VINA RESULT:      -7.7      1.429      1.847
REMARK  Name = 
REMARK  3 active torsions:
REMARK  status: ('A' for Active; 'I' for Inactive)
REMARK    1  A    between atoms: C_1  and  C_2
REMARK    2  A    between atoms: N_7  and  C_8
REMARK    3  A    between atoms: N_14  and  C_15
REMARK                            x       y       z     vdW  Elec       q    Type
REMARK                         _______ _______ _______ _____ _____    ______ ____
ROOT
ATOM      1  C   UNL     1       1.105   2.493  18.667  0.00  0.00    +0.000 C 
ATOM      2  C   UNL     1       2.344   2.200  17.816  0.00  0.00    +0.000 C 
ATOM      3  C   UNL     1       2.963   3.511  17.259  0.00  0.00    +0.000 C 
ATOM      4  N   UNL     1       3.660   4.249  18.319  0.00  0.00    +0.000 N 
ATOM      5  C   UNL     1       3.403   5.513  18.811  0.00  0.00    +0.000 C 
ATOM      6  O   UNL     1       4.070   5.962  19.739  0.00  0.00    +0.000 OA
ATOM      7  N   UNL     1       2.362   6.202  18.223  0.00  0.00    +0.000 N 
ATOM      8  C   UNL     1       4.688   3.441  18.982  0.00  0.00    +0.000 C 
ATOM      9  C   UNL     1       4.074   2.153  19.556  0.00  0.00    +0.000 C 
ATOM     10  N   UNL     1       3.325   1.372  18.553  0.00  0.00    +0.000 NA
ATOM     11  H   UNL     1       1.659   5.657  17.750  0.00  0.00    +0.000 HD
ATOM     12  H   UNL     1       2.848   0.602  19.021  0.00  0.00    +0.000 HD
ENDROOT
BRANCH   7  13
ATOM     13  C   UNL     1       2.022   7.552  18.492  0.00  0.00    +0.000 A 
ATOM     14  C   UNL     1       2.429   8.611  17.673  0.00  0.00    +0.000 A 
ATOM     15  C   UNL     1       2.095   9.933  17.974  0.00  0.00    +0.000 A 
ATOM     16  C   UNL     1       1.339  10.220  19.107  0.00  0.00    +0.000 A 
ATOM     17  C   UNL     1       0.986  11.597  19.434  0.00  0.00    +0.000 A 
ATOM     18  C   UNL     1       0.319  11.852  20.564  0.00  0.00    +0.000 A 
ATOM     19  N   UNL     1      -0.067  10.850  21.433  0.00  0.00    +0.000 N 
ATOM     20  C   UNL     1      -0.710  11.200  22.688  0.00  0.00    +0.000 C 
ATOM     21  C   UNL     1       0.179   9.493  21.183  0.00  0.00    +0.000 A 
ATOM     22  O   UNL     1      -0.164   8.587  21.938  0.00  0.00    +0.000 OA
ATOM     23  C   UNL     1       0.923   9.170  19.934  0.00  0.00    +0.000 A 
ATOM     24  C   UNL     1       1.242   7.837  19.618  0.00  0.00    +0.000 A 
ENDBRANCH   7  13
TORSDOF 1
ENDMDL
MODEL 4
REMARK VINA RESULT:      -7.5      1.718      7.674
REMARK  Name = 
REMARK  3 active torsions:
REMARK  status: ('A' for Active; 'I' for Inactive)
REMARK    1  A    between atoms: C_1  and  C_2
REMARK    2  A    between atoms: N_7  and  C_8
REMARK    3  A    between atoms: N_14  and  C_15
REMARK                            x       y       z     vdW  Elec       q    Type
REMARK                         _______ _______ _______ _____ _____    ______ ____
ROOT
ATOM      1  C   UNL     1      -1.054  10.928  23.022  0.00  0.00    +0.000 C 
ATOM      2  C   UNL     1      -0.863  12.318  22.408  0.00  0.00    +0.000 C 
ATOM      3  C   UNL     1       0.170  12.280  21.249  0.00  0.00    +0.000 C 
ATOM      4  N   UNL     1      -0.407  11.649  20.057  0.00  0.00    +0.000 N 
ATOM      5  C   UNL     1      -0.003  10.506  19.398  0.00  0.00    +0.000 C 
ATOM      6  O   UNL     1      -0.636  10.096  18.428  0.00  0.00    +0.000 OA
ATOM      7  N   UNL     1       1.108   9.864  19.904  0.00  0.00    +0.000 N 
ATOM      8  C   UNL     1      -1.642  12.306  19.618  0.00  0.00    +0.000 C 
ATOM      9  C   UNL     1      -2.677  12.323  20.755  0.00  0.00    +0.000 C 
ATOM     10  N   UNL     1      -2.156  12.914  22.002  0.00  0.00    +0.000 NA
ATOM     11  H   UNL     1       1.339  10.036  20.869  0.00  0.00    +0.000 HD
ATOM     12  H   UNL     1      -2.846  12.786  22.743  0.00  0.00    +0.000 HD
ENDROOT
BRANCH   7  13
ATOM     13  C   UNL     1       1.756   8.756  19.301  0.00  0.00    +0.000 A 
ATOM     14  C   UNL     1       2.294   8.806  18.010  0.00  0.00    +0.000 A 
ATOM     15  C   UNL     1       2.909   7.691  17.435  0.00  0.00    +0.000 A 
ATOM     16  C   UNL     1       3.002   6.500  18.149  0.00  0.00    +0.000 A 
ATOM     17  C   UNL     1       3.639   5.329  17.559  0.00  0.00    +0.000 A 
ATOM     18  C   UNL     1       3.653   4.178  18.238  0.00  0.00    +0.000 A 
ATOM     19  N   UNL     1       3.096   4.059  19.497  0.00  0.00    +0.000 N 
ATOM     20  C   UNL     1       3.064   2.759  20.145  0.00  0.00    +0.000 C 
ATOM     21  C   UNL     1       2.506   5.138  20.170  0.00  0.00    +0.000 A 
ATOM     22  O   UNL     1       2.015   5.055  21.293  0.00  0.00    +0.000 OA
ATOM     23  C   UNL     1       2.470   6.438  19.443  0.00  0.00    +0.000 A 
ATOM     24  C   UNL     1       1.869   7.566  20.029  0.00  0.00    +0.000 A 
ENDBRANCH   7  13
TORSDOF 1
ENDMDL
MODEL 5
REMARK VINA RESULT:      -7.5      1.563      2.284
REMARK  Name = 
REMARK  3 active torsions:
REMARK  status: ('A' for Active; 'I' for Inactive)
REMARK    1  A    between atoms: C_1  and  C_2
REMARK    2  A    between atoms: N_7  and  C_8
REMARK    3  A    between atoms: N_14  and  C_15
REMARK                            x       y       z     vdW  Elec       q    Type
REMARK                         _______ _______ _______ _____ _____    ______ ____
ROOT
ATOM      1  C   UNL     1       3.953   4.827  17.050  0.00  0.00    +0.000 C 
ATOM      2  C   UNL     1       4.743   4.121  18.156  0.00  0.00    +0.000 C 
ATOM      3  C   UNL     1       4.588   4.860  19.513  0.00  0.00    +0.000 C 
ATOM      4  N   UNL     1       3.256   4.626  20.084  0.00  0.00    +0.000 N 
ATOM      5  C   UNL     1       2.263   5.540  20.375  0.00  0.00    +0.000 C 
ATOM      6  O   UNL     1       1.183   5.158  20.817  0.00  0.00    +0.000 OA
ATOM      7  N   UNL     1       2.552   6.864  20.118  0.00  0.00    +0.000 N 
ATOM      8  C   UNL     1       2.957   3.200  20.243  0.00  0.00    +0.000 C 
ATOM      9  C   UNL     1       3.085   2.469  18.896  0.00  0.00    +0.000 C 
ATOM     10  N   UNL     1       4.390   2.686  18.243  0.00  0.00    +0.000 NA
ATOM     11  H   UNL     1       3.275   7.056  19.444  0.00  0.00    +0.000 HD
ATOM     12  H   UNL     1       4.365   2.277  17.308  0.00  0.00    +0.000 HD
ENDROOT
BRANCH   7  13
ATOM     13  C   UNL     1       1.724   7.962  20.465  0.00  0.00    +0.000 A 
ATOM     14  C   UNL     1       1.582   8.416  21.781  0.00  0.00    +0.000 A 
ATOM     15  C   UNL     1       0.743   9.488  22.094  0.00  0.00    +0.000 A 
ATOM     16  C   UNL     1       0.029  10.132  21.088  0.00  0.00    +0.000 A 
ATOM     17  C   UNL     1      -0.852  11.250  21.403  0.00  0.00    +0.000 A 
ATOM     18  C   UNL     1      -1.579  11.806  20.428  0.00  0.00    +0.000 A 
ATOM     19  N   UNL     1      -1.514  11.368  19.120  0.00  0.00    +0.000 N 
ATOM     20  C   UNL     1      -2.396  11.954  18.125  0.00  0.00    +0.000 C 
ATOM     21  C   UNL     1      -0.661  10.335  18.708  0.00  0.00    +0.000 A 
ATOM     22  O   UNL     1      -0.582   9.938  17.548  0.00  0.00    +0.000 OA
ATOM     23  C   UNL     1       0.164   9.689  19.767  0.00  0.00    +0.000 A 
ATOM     24  C   UNL     1       1.025   8.624  19.449  0.00  0.00    +0.000 A 
ENDBRANCH   7  13
TORSDOF 1
ENDMDL
MODEL 6
REMARK VINA RESULT:      -7.4      2.483      7.980
REMARK  Name = 
REMARK  3 active torsions:
REMARK  status: ('A' for Active; 'I' for Inactive)
REMARK    1  A    between atoms: C_1  and  C_2
REMARK    2  A    between atoms: N_7  and  C_8
REMARK    3  A    between atoms: N_14  and  C_15
REMARK                            x       y       z     vdW  Elec       q    Type
REMARK                         _______ _______ _______ _____ _____    ______ ____
ROOT
ATOM      1  C   UNL     1      -0.661   9.041  22.143  0.00  0.00    +0.000 C 
ATOM      2  C   UNL     1       0.037  10.394  21.978  0.00  0.00    +0.000 C 
ATOM      3  C   UNL     1       1.348  10.251  21.159  0.00  0.00    +0.000 C 
ATOM      4  N   UNL     1       1.053  10.041  19.736  0.00  0.00    +0.000 N 
ATOM      5  C   UNL     1       1.367   8.963  18.934  0.00  0.00    +0.000 C 
ATOM      6  O   UNL     1       1.002   8.939  17.762  0.00  0.00    +0.000 OA
ATOM      7  N   UNL     1       2.074   7.938  19.529  0.00  0.00    +0.000 N 
ATOM      8  C   UNL     1       0.215  11.105  19.176  0.00  0.00    +0.000 C 
ATOM      9  C   UNL     1      -1.096  11.233  19.969  0.00  0.00    +0.000 C 
ATOM     10  N   UNL     1      -0.880  11.412  21.417  0.00  0.00    +0.000 NA
ATOM     11  H   UNL     1       2.017   7.861  20.532  0.00  0.00    +0.000 HD
ATOM     12  H   UNL     1      -1.780  11.371  21.895  0.00  0.00    +0.000 HD
ENDROOT
BRANCH   7  13
ATOM     13  C   UNL     1       2.602   6.811  18.852  0.00  0.00    +0.000 A 
ATOM     14  C   UNL     1       2.109   5.515  19.041  0.00  0.00    +0.000 A 
ATOM     15  C   UNL     1       2.664   4.420  18.374  0.00  0.00    +0.000 A 
ATOM     16  C   UNL     1       3.728   4.606  17.496  0.00  0.00    +0.000 A 
ATOM     17  C   UNL     1       4.318   3.470  16.795  0.00  0.00    +0.000 A 
ATOM     18  C   UNL     1       5.382   3.666  16.011  0.00  0.00    +0.000 A 
ATOM     19  N   UNL     1       5.940   4.916  15.824  0.00  0.00    +0.000 N 
ATOM     20  C   UNL     1       7.150   5.048  15.031  0.00  0.00    +0.000 C 
ATOM     21  C   UNL     1       5.415   6.075  16.411  0.00  0.00    +0.000 A 
ATOM     22  O   UNL     1       5.891   7.196  16.249  0.00  0.00    +0.000 OA
ATOM     23  C   UNL     1       4.229   5.897  17.295  0.00  0.00    +0.000 A 
ATOM     24  C   UNL     1       3.656   7.001  17.951  0.00  0.00    +0.000 A 
ENDBRANCH   7  13
TORSDOF 1
ENDMDL
MODEL 7
REMARK VINA RESULT:      -7.3      1.294      1.554
REMARK  Name = 
REMARK  3 active torsions:
REMARK  status: ('A' for Active; 'I' for Inactive)
REMARK    1  A    between atoms: C_1  and  C_2
REMARK    2  A    between atoms: N_7  and  C_8
REMARK    3  A    between atoms: N_14  and  C_15
REMARK                            x       y       z     vdW  Elec       q    Type
REMARK                         _______ _______ _______ _____ _____    ______ ____
ROOT
ATOM      1  C   UNL     1       5.454   3.622  19.292  0.00  0.00    +0.000 C 
ATOM      2  C   UNL     1       4.436   2.641  19.881  0.00  0.00    +0.000 C 
ATOM      3  C   UNL     1       3.141   3.376  20.320  0.00  0.00    +0.000 C 
ATOM      4  N   UNL     1       2.341   3.765  19.152  0.00  0.00    +0.000 N 
ATOM      5  C   UNL     1       1.971   5.027  18.734  0.00  0.00    +0.000 C 
ATOM      6  O   UNL     1       1.327   5.170  17.698  0.00  0.00    +0.000 OA
ATOM      7  N   UNL     1       2.384   6.082  19.521  0.00  0.00    +0.000 N 
ATOM      8  C   UNL     1       2.014   2.623  18.292  0.00  0.00    +0.000 C 
ATOM      9  C   UNL     1       3.296   1.908  17.835  0.00  0.00    +0.000 C 
ATOM     10  N   UNL     1       4.171   1.516  18.957  0.00  0.00    +0.000 NA
ATOM     11  H   UNL     1       3.181   5.927  20.117  0.00  0.00    +0.000 HD
ATOM     12  H   UNL     1       5.049   1.158  18.583  0.00  0.00    +0.000 HD
ENDROOT
BRANCH   7  13
ATOM     13  C   UNL     1       2.001   7.435  19.339  0.00  0.00    +0.000 A 
ATOM     14  C   UNL     1       2.317   8.161  18.186  0.00  0.00    +0.000 A 
ATOM     15  C   UNL     1       1.944   9.499  18.044  0.00  0.00    +0.000 A 
ATOM     16  C   UNL     1       1.239  10.138  19.060  0.00  0.00    +0.000 A 
ATOM     17  C   UNL     1       0.846  11.536  18.925  0.00  0.00    +0.000 A 
ATOM     18  C   UNL     1       0.231  12.145  19.944  0.00  0.00    +0.000 A 
ATOM     19  N   UNL     1      -0.064  11.490  21.124  0.00  0.00    +0.000 N 
ATOM     20  C   UNL     1      -0.652  12.232  22.226  0.00  0.00    +0.000 C 
ATOM     21  C   UNL     1       0.226  10.135  21.331  0.00  0.00    +0.000 A 
ATOM     22  O   UNL     1      -0.036   9.532  22.369  0.00  0.00    +0.000 OA
ATOM     23  C   UNL     1       0.914   9.422  20.219  0.00  0.00    +0.000 A 
ATOM     24  C   UNL     1       1.272   8.069  20.352  0.00  0.00    +0.000 A 
ENDBRANCH   7  13
TORSDOF 1
ENDMDL
MODEL 8
REMARK VINA RESULT:      -7.3      1.940      7.630
REMARK  Name = 
REMARK  3 active torsions:
REMARK  status: ('A' for Active; 'I' for Inactive)
REMARK    1  A    between atoms: C_1  and  C_2
REMARK    2  A    between atoms: N_7  and  C_8
REMARK    3  A    between atoms: N_14  and  C_15
REMARK                            x       y       z     vdW  Elec       q    Type
REMARK                         _______ _______ _______ _____ _____    ______ ____
ROOT
ATOM      1  C   UNL     1      -0.691  10.688  22.288  0.00  0.00    +0.000 C 
ATOM      2  C   UNL     1      -0.299  12.023  21.648  0.00  0.00    +0.000 C 
ATOM      3  C   UNL     1       0.815  11.829  20.584  0.00  0.00    +0.000 C 
ATOM      4  N   UNL     1       0.271  11.214  19.367  0.00  0.00    +0.000 N 
ATOM      5  C   UNL     1       0.599  10.008  18.782  0.00  0.00    +0.000 C 
ATOM      6  O   UNL     1       0.007   9.629  17.775  0.00  0.00    +0.000 OA
ATOM      7  N   UNL     1       1.588   9.273  19.401  0.00  0.00    +0.000 N 
ATOM      8  C   UNL     1      -0.845  11.980  18.804  0.00  0.00    +0.000 C 
ATOM      9  C   UNL     1      -1.961  12.154  19.847  0.00  0.00    +0.000 C 
ATOM     10  N   UNL     1      -1.482  12.736  21.115  0.00  0.00    +0.000 NA
ATOM     11  H   UNL     1       1.758   9.459  20.376  0.00  0.00    +0.000 HD
ATOM     12  H   UNL     1      -2.239  12.714  21.798  0.00  0.00    +0.000 HD
ENDROOT
BRANCH   7  13
ATOM     13  C   UNL     1       2.158   8.079  18.891  0.00  0.00    +0.000 A 
ATOM     14  C   UNL     1       3.077   8.070  17.836  0.00  0.00    +0.000 A 
ATOM     15  C   UNL     1       3.606   6.876  17.342  0.00  0.00    +0.000 A 
ATOM     16  C   UNL     1       3.225   5.660  17.902  0.00  0.00    +0.000 A 
ATOM     17  C   UNL     1       3.768   4.406  17.393  0.00  0.00    +0.000 A 
ATOM     18  C   UNL     1       3.334   3.249  17.902  0.00  0.00    +0.000 A 
ATOM     19  N   UNL     1       2.393   3.196  18.913  0.00  0.00    +0.000 N 
ATOM     20  C   UNL     1       1.895   1.907  19.360  0.00  0.00    +0.000 C 
ATOM     21  C   UNL     1       1.849   4.346  19.503  0.00  0.00    +0.000 A 
ATOM     22  O   UNL     1       1.019   4.319  20.408  0.00  0.00    +0.000 OA
ATOM     23  C   UNL     1       2.308   5.655  18.960  0.00  0.00    +0.000 A 
ATOM     24  C   UNL     1       1.792   6.859  19.471  0.00  0.00    +0.000 A 
ENDBRANCH   7  13
TORSDOF 1
ENDMDL
MODEL 9
REMARK VINA RESULT:      -7.3      2.299      7.744
REMARK  Name = 
REMARK  3 active torsions:
REMARK  status: ('A' for Active; 'I' for Inactive)
REMARK    1  A    between atoms: C_1  and  C_2
REMARK    2  A    between atoms: N_7  and  C_8
REMARK    3  A    between atoms: N_14  and  C_15
REMARK                            x       y       z     vdW  Elec       q    Type
REMARK                         _______ _______ _______ _____ _____    ______ ____
ROOT
ATOM      1  C   UNL     1      -2.108  10.156  17.112  0.00  0.00    +0.000 C 
ATOM      2  C   UNL     1      -2.132  10.944  18.426  0.00  0.00    +0.000 C 
ATOM      3  C   UNL     1      -1.024  10.450  19.394  0.00  0.00    +0.000 C 
ATOM      4  N   UNL     1       0.298  10.907  18.950  0.00  0.00    +0.000 N 
ATOM      5  C   UNL     1       1.396  10.159  18.575  0.00  0.00    +0.000 C 
ATOM      6  O   UNL     1       2.420  10.716  18.188  0.00  0.00    +0.000 OA
ATOM      7  N   UNL     1       1.257   8.788  18.640  0.00  0.00    +0.000 N 
ATOM      8  C   UNL     1       0.365  12.364  18.798  0.00  0.00    +0.000 C 
ATOM      9  C   UNL     1      -0.716  12.854  17.820  0.00  0.00    +0.000 C 
ATOM     10  N   UNL     1      -2.072  12.403  18.184  0.00  0.00    +0.000 NA
ATOM     11  H   UNL     1       0.320   8.418  18.609  0.00  0.00    +0.000 HD
ATOM     12  H   UNL     1      -2.718  12.659  17.437  0.00  0.00    +0.000 HD
ENDROOT
BRANCH   7  13
ATOM     13  C   UNL     1       2.299   7.851  18.425  0.00  0.00    +0.000 A 
ATOM     14  C   UNL     1       3.270   8.015  17.431  0.00  0.00    +0.000 A 
ATOM     15  C   UNL     1       4.273   7.064  17.230  0.00  0.00    +0.000 A 
ATOM     16  C   UNL     1       4.324   5.925  18.030  0.00  0.00    +0.000 A 
ATOM     17  C   UNL     1       5.365   4.924  17.829  0.00  0.00    +0.000 A 
ATOM     18  C   UNL     1       5.351   3.807  18.563  0.00  0.00    +0.000 A 
ATOM     19  N   UNL     1       4.390   3.571  19.527  0.00  0.00    +0.000 N 
ATOM     20  C   UNL     1       4.376   2.299  20.228  0.00  0.00    +0.000 C 
ATOM     21  C   UNL     1       3.379   4.494  19.830  0.00  0.00    +0.000 A 
ATOM     22  O   UNL     1       2.521   4.307  20.690  0.00  0.00    +0.000 OA
ATOM     23  C   UNL     1       3.360   5.750  19.030  0.00  0.00    +0.000 A 
ATOM     24  C   UNL     1       2.363   6.719  19.245  0.00  0.00    +0.000 A 
ENDBRANCH   7  13
TORSDOF 1
ENDMDL
