MODEL 1
REMARK VINA RESULT:      -7.5      0.000      0.000
REMARK  Name = 
REMARK  14 active torsions:
REMARK  status: ('A' for Active; 'I' for Inactive)
REMARK    1  A    between atoms: C_1  and  C_2
REMARK    2  A    between atoms: C_2  and  O_3
REMARK    3  A    between atoms: O_3  and  C_4
REMARK    4  A    between atoms: C_4  and  C_6
REMARK    5  A    between atoms: C_7  and  C_8
REMARK    6  A    between atoms: C_10  and  C_11
REMARK    7  A    between atoms: C_12  and  S_13
REMARK    8  A    between atoms: S_13  and  N_16
REMARK    9  A    between atoms: N_16  and  C_17
REMARK   10  A    between atoms: N_16  and  C_18
REMARK   11  A    between atoms: C_18  and  C_19
REMARK   12  A    between atoms: N_21  and  C_22
REMARK   13  A    between atoms: C_25  and  C_26
REMARK   14  A    between atoms: C_26  and  C_27
REMARK                            x       y       z     vdW  Elec       q    Type
REMARK                         _______ _______ _______ _____ _____    ______ ____
ROOT
ATOM      1  S   UNL     1       4.711   4.036  19.517  0.00  0.00    +0.000 S 
ATOM      2  O   UNL     1       5.283   2.778  19.946  0.00  0.00    +0.000 OA
ATOM      3  O   UNL     1       5.244   5.296  19.988  0.00  0.00    +0.000 OA
ENDROOT
BRANCH   1  10
ATOM      4  C   UNL     1       6.185   4.432  17.141  0.00  0.00    +0.000 A 
ATOM      5  C   UNL     1       5.938   4.335  15.771  0.00  0.00    +0.000 A 
ATOM      6  C   UNL     1       6.789   4.589  14.573  0.00  0.00    +0.000 C 
ATOM      7  N   UNL     1       4.634   3.935  15.601  0.00  0.00    +0.000 N 
ATOM      8  C   UNL     1       4.017   3.783  16.816  0.00  0.00    +0.000 A 
ATOM      9  C   UNL     1       2.606   3.323  16.909  0.00  0.00    +0.000 C 
ATOM     10  C   UNL     1       4.949   4.104  17.793  0.00  0.00    +0.000 A 
ATOM     11  H   UNL     1       4.194   3.768  14.704  0.00  0.00    +0.000 HD
BRANCH   4  12
ATOM     12  C   UNL     1       7.457   4.807  17.764  0.00  0.00    +0.000 C 
ATOM     13  O   UNL     1       8.435   4.077  17.812  0.00  0.00    +0.000 OA
BRANCH  12  14
ATOM     14  O   UNL     1       7.403   6.055  18.320  0.00  0.00    +0.000 OA
BRANCH  14  16
ATOM     15  C   UNL     1       8.070   8.340  17.943  0.00  0.00    +0.000 C 
ATOM     16  C   UNL     1       7.279   7.158  17.420  0.00  0.00    +0.000 C 
ENDBRANCH  14  16
ENDBRANCH  12  14
ENDBRANCH   4  12
ENDBRANCH   1  10
BRANCH   1  17
ATOM     17  N   UNL     1       3.039   3.970  19.856  0.00  0.00    +0.000 NA
ATOM     18  C   UNL     1       2.584   2.655  20.373  0.00  0.00    +0.000 C 
BRANCH  17  19
ATOM     19  C   UNL     1       2.631   5.101  20.739  0.00  0.00    +0.000 C 
BRANCH  19  20
ATOM     20  C   UNL     1       2.105   6.292  19.964  0.00  0.00    +0.000 C 
ATOM     21  O   UNL     1       2.085   6.258  18.734  0.00  0.00    +0.000 OA
ATOM     22  N   UNL     1       1.729   7.366  20.761  0.00  0.00    +0.000 N 
ATOM     23  H   UNL     1       2.011   7.317  21.739  0.00  0.00    +0.000 HD
BRANCH  22  24
ATOM     24  C   UNL     1       1.177   8.578  20.280  0.00  0.00    +0.000 A 
ATOM     25  C   UNL     1       1.647   9.197  19.123  0.00  0.00    +0.000 A 
ATOM     26  C   UNL     1       1.111  10.405  18.677  0.00  0.00    +0.000 A 
ATOM     27  C   UNL     1       0.081  11.028  19.386  0.00  0.00    +0.000 A 
ATOM     28  C   UNL     1      -0.413  10.401  20.537  0.00  0.00    +0.000 A 
ATOM     29  C   UNL     1       0.124   9.178  20.979  0.00  0.00    +0.000 A 
BRANCH  27  30
ATOM     30  C   UNL     1      -0.469  12.340  18.886  0.00  0.00    +0.000 C 
ATOM     31  C   UNL     1       0.619  13.285  18.399  0.00  0.00    +0.000 C 
ENDBRANCH  27  30
ENDBRANCH  22  24
ENDBRANCH  19  20
ENDBRANCH  17  19
ENDBRANCH   1  17
TORSDOF 9
ENDMDL
MODEL 2
REMARK VINA RESULT:      -7.3      0.754      1.230
REMARK  Name = 
REMARK  14 active torsions:
REMARK  status: ('A' for Active; 'I' for Inactive)
REMARK    1  A    between atoms: C_1  and  C_2
REMARK    2  A    between atoms: C_2  and  O_3
REMARK    3  A    between atoms: O_3  and  C_4
REMARK    4  A    between atoms: C_4  and  C_6
REMARK    5  A    between atoms: C_7  and  C_8
REMARK    6  A    between atoms: C_10  and  C_11
REMARK    7  A    between atoms: C_12  and  S_13
REMARK    8  A    between atoms: S_13  and  N_16
REMARK    9  A    between atoms: N_16  and  C_17
REMARK   10  A    between atoms: N_16  and  C_18
REMARK   11  A    between atoms: C_18  and  C_19
REMARK   12  A    between atoms: N_21  and  C_22
REMARK   13  A    between atoms: C_25  and  C_26
REMARK   14  A    between atoms: C_26  and  C_27
REMARK                            x       y       z     vdW  Elec       q    Type
REMARK                         _______ _______ _______ _____ _____    ______ ____
ROOT
ATOM      1  S   UNL     1       4.939   4.310  19.246  0.00  0.00    +0.000 S 
ATOM      2  O   UNL     1       5.976   3.424  19.725  0.00  0.00    +0.000 OA
ATOM      3  O   UNL     1       5.012   5.738  19.477  0.00  0.00    +0.000 OA
ENDROOT
BRANCH   1  10
ATOM      4  C   UNL     1       6.094   4.434  16.671  0.00  0.00    +0.000 A 
ATOM      5  C   UNL     1       5.681   4.167  15.366  0.00  0.00    +0.000 A 
ATOM      6  C   UNL     1       6.368   4.284  14.047  0.00  0.00    +0.000 C 
ATOM      7  N   UNL     1       4.379   3.730  15.412  0.00  0.00    +0.000 N 
ATOM      8  C   UNL     1       3.922   3.719  16.704  0.00  0.00    +0.000 A 
ATOM      9  C   UNL     1       2.548   3.253  17.030  0.00  0.00    +0.000 C 
ATOM     10  C   UNL     1       4.958   4.171  17.510  0.00  0.00    +0.000 A 
ATOM     11  H   UNL     1       3.835   3.448  14.605  0.00  0.00    +0.000 HD
BRANCH   4  12
ATOM     12  C   UNL     1       7.421   4.901  17.079  0.00  0.00    +0.000 C 
ATOM     13  O   UNL     1       8.205   4.238  17.741  0.00  0.00    +0.000 OA
BRANCH  12  14
ATOM     14  O   UNL     1       7.660   6.181  16.662  0.00  0.00    +0.000 OA
BRANCH  14  16
ATOM     15  C   UNL     1       8.038   8.261  17.820  0.00  0.00    +0.000 C 
ATOM     16  C   UNL     1       7.016   7.229  17.388  0.00  0.00    +0.000 C 
ENDBRANCH  14  16
ENDBRANCH  12  14
ENDBRANCH   4  12
ENDBRANCH   1  10
BRANCH   1  17
ATOM     17  N   UNL     1       3.454   3.718  19.845  0.00  0.00    +0.000 NA
ATOM     18  C   UNL     1       3.545   2.358  20.434  0.00  0.00    +0.000 C 
BRANCH  17  19
ATOM     19  C   UNL     1       2.827   4.701  20.776  0.00  0.00    +0.000 C 
BRANCH  19  20
ATOM     20  C   UNL     1       2.028   5.767  20.054  0.00  0.00    +0.000 C 
ATOM     21  O   UNL     1       1.357   5.463  19.069  0.00  0.00    +0.000 OA
ATOM     22  N   UNL     1       2.182   7.044  20.579  0.00  0.00    +0.000 N 
ATOM     23  H   UNL     1       2.938   7.162  21.253  0.00  0.00    +0.000 HD
BRANCH  22  24
ATOM     24  C   UNL     1       1.518   8.201  20.105  0.00  0.00    +0.000 A 
ATOM     25  C   UNL     1       0.580   8.884  20.877  0.00  0.00    +0.000 A 
ATOM     26  C   UNL     1      -0.086  10.007  20.385  0.00  0.00    +0.000 A 
ATOM     27  C   UNL     1       0.175  10.478  19.096  0.00  0.00    +0.000 A 
ATOM     28  C   UNL     1       1.133   9.811  18.321  0.00  0.00    +0.000 A 
ATOM     29  C   UNL     1       1.809   8.684  18.824  0.00  0.00    +0.000 A 
BRANCH  27  30
ATOM     30  C   UNL     1      -0.570  11.686  18.588  0.00  0.00    +0.000 C 
ATOM     31  C   UNL     1      -1.818  11.991  19.402  0.00  0.00    +0.000 C 
ENDBRANCH  27  30
ENDBRANCH  22  24
ENDBRANCH  19  20
ENDBRANCH  17  19
ENDBRANCH   1  17
TORSDOF 9
ENDMDL
MODEL 3
REMARK VINA RESULT:      -7.2      3.825      6.862
REMARK  Name = 
REMARK  14 active torsions:
REMARK  status: ('A' for Active; 'I' for Inactive)
REMARK    1  A    between atoms: C_1  and  C_2
REMARK    2  A    between atoms: C_2  and  O_3
REMARK    3  A    between atoms: O_3  and  C_4
REMARK    4  A    between atoms: C_4  and  C_6
REMARK    5  A    between atoms: C_7  and  C_8
REMARK    6  A    between atoms: C_10  and  C_11
REMARK    7  A    between atoms: C_12  and  S_13
REMARK    8  A    between atoms: S_13  and  N_16
REMARK    9  A    between atoms: N_16  and  C_17
REMARK   10  A    between atoms: N_16  and  C_18
REMARK   11  A    between atoms: C_18  and  C_19
REMARK   12  A    between atoms: N_21  and  C_22
REMARK   13  A    between atoms: C_25  and  C_26
REMARK   14  A    between atoms: C_26  and  C_27
REMARK                            x       y       z     vdW  Elec       q    Type
REMARK                         _______ _______ _______ _____ _____    ______ ____
ROOT
ATOM      1  S   UNL     1       5.375   6.606  17.151  0.00  0.00    +0.000 S 
ATOM      2  O   UNL     1       5.941   6.849  15.843  0.00  0.00    +0.000 OA
ATOM      3  O   UNL     1       4.198   7.321  17.599  0.00  0.00    +0.000 OA
ENDROOT
BRANCH   1  10
ATOM      4  C   UNL     1       3.757   4.411  17.887  0.00  0.00    +0.000 A 
ATOM      5  C   UNL     1       3.693   3.053  17.572  0.00  0.00    +0.000 A 
ATOM      6  C   UNL     1       2.801   1.951  18.035  0.00  0.00    +0.000 C 
ATOM      7  N   UNL     1       4.690   2.779  16.666  0.00  0.00    +0.000 N 
ATOM      8  C   UNL     1       5.413   3.911  16.392  0.00  0.00    +0.000 A 
ATOM      9  C   UNL     1       6.532   3.890  15.412  0.00  0.00    +0.000 C 
ATOM     10  C   UNL     1       4.870   4.939  17.150  0.00  0.00    +0.000 A 
ATOM     11  H   UNL     1       4.861   1.870  16.254  0.00  0.00    +0.000 HD
BRANCH   4  12
ATOM     12  C   UNL     1       2.863   5.128  18.798  0.00  0.00    +0.000 C 
ATOM     13  O   UNL     1       1.928   5.824  18.431  0.00  0.00    +0.000 OA
BRANCH  12  14
ATOM     14  O   UNL     1       3.224   4.957  20.106  0.00  0.00    +0.000 OA
BRANCH  14  16
ATOM     15  C   UNL     1       2.290   3.228  21.502  0.00  0.00    +0.000 C 
ATOM     16  C   UNL     1       2.178   4.665  21.033  0.00  0.00    +0.000 C 
ENDBRANCH  14  16
ENDBRANCH  12  14
ENDBRANCH   4  12
ENDBRANCH   1  10
BRANCH   1  17
ATOM     17  N   UNL     1       6.630   6.817  18.290  0.00  0.00    +0.000 NA
ATOM     18  C   UNL     1       6.937   5.595  19.076  0.00  0.00    +0.000 C 
BRANCH  17  19
ATOM     19  C   UNL     1       7.842   7.396  17.642  0.00  0.00    +0.000 C 
BRANCH  19  20
ATOM     20  C   UNL     1       8.058   8.853  17.996  0.00  0.00    +0.000 C 
ATOM     21  O   UNL     1       7.394   9.722  17.434  0.00  0.00    +0.000 OA
ATOM     22  N   UNL     1       9.066   9.067  18.929  0.00  0.00    +0.000 N 
ATOM     23  H   UNL     1       9.664   8.267  19.132  0.00  0.00    +0.000 HD
BRANCH  22  24
ATOM     24  C   UNL     1       9.436  10.332  19.446  0.00  0.00    +0.000 A 
ATOM     25  C   UNL     1       9.126  10.717  20.750  0.00  0.00    +0.000 A 
ATOM     26  C   UNL     1       9.475  11.977  21.236  0.00  0.00    +0.000 A 
ATOM     27  C   UNL     1      10.149  12.890  20.422  0.00  0.00    +0.000 A 
ATOM     28  C   UNL     1      10.485  12.502  19.118  0.00  0.00    +0.000 A 
ATOM     29  C   UNL     1      10.140  11.227  18.634  0.00  0.00    +0.000 A 
BRANCH  27  30
ATOM     30  C   UNL     1      10.501  14.249  20.972  0.00  0.00    +0.000 C 
ATOM     31  C   UNL     1      10.373  15.353  19.934  0.00  0.00    +0.000 C 
ENDBRANCH  27  30
ENDBRANCH  22  24
ENDBRANCH  19  20
ENDBRANCH  17  19
ENDBRANCH   1  17
TORSDOF 9
ENDMDL
MODEL 4
REMARK VINA RESULT:      -7.2      3.199      6.869
REMARK  Name = 
REMARK  14 active torsions:
REMARK  status: ('A' for Active; 'I' for Inactive)
REMARK    1  A    between atoms: C_1  and  C_2
REMARK    2  A    between atoms: C_2  and  O_3
REMARK    3  A    between atoms: O_3  and  C_4
REMARK    4  A    between atoms: C_4  and  C_6
REMARK    5  A    between atoms: C_7  and  C_8
REMARK    6  A    between atoms: C_10  and  C_11
REMARK    7  A    between atoms: C_12  and  S_13
REMARK    8  A    between atoms: S_13  and  N_16
REMARK    9  A    between atoms: N_16  and  C_17
REMARK   10  A    between atoms: N_16  and  C_18
REMARK   11  A    between atoms: C_18  and  C_19
REMARK   12  A    between atoms: N_21  and  C_22
REMARK   13  A    between atoms: C_25  and  C_26
REMARK   14  A    between atoms: C_26  and  C_27
REMARK                            x       y       z     vdW  Elec       q    Type
REMARK                         _______ _______ _______ _____ _____    ______ ____
ROOT
ATOM      1  S   UNL     1       5.043   5.698  16.984  0.00  0.00    +0.000 S 
ATOM      2  O   UNL     1       4.946   4.365  16.432  0.00  0.00    +0.000 OA
ATOM      3  O   UNL     1       4.714   6.861  16.187  0.00  0.00    +0.000 OA
ENDROOT
BRANCH   1  10
ATOM      4  C   UNL     1       3.696   4.719  19.265  0.00  0.00    +0.000 A 
ATOM      5  C   UNL     1       2.717   5.191  20.140  0.00  0.00    +0.000 A 
ATOM      6  C   UNL     1       2.043   4.582  21.323  0.00  0.00    +0.000 C 
ATOM      7  N   UNL     1       2.369   6.461  19.744  0.00  0.00    +0.000 N 
ATOM      8  C   UNL     1       3.076   6.825  18.628  0.00  0.00    +0.000 A 
ATOM      9  C   UNL     1       2.908   8.171  18.016  0.00  0.00    +0.000 C 
ATOM     10  C   UNL     1       3.896   5.756  18.293  0.00  0.00    +0.000 A 
ATOM     11  H   UNL     1       1.690   7.046  20.215  0.00  0.00    +0.000 HD
BRANCH   4  12
ATOM     12  C   UNL     1       4.361   3.416  19.336  0.00  0.00    +0.000 C 
ATOM     13  O   UNL     1       5.343   3.188  20.027  0.00  0.00    +0.000 OA
BRANCH  12  14
ATOM     14  O   UNL     1       3.776   2.499  18.508  0.00  0.00    +0.000 OA
BRANCH  14  16
ATOM     15  C   UNL     1       1.391   2.583  18.173  0.00  0.00    +0.000 C 
ATOM     16  C   UNL     1       2.531   1.943  18.936  0.00  0.00    +0.000 C 
ENDBRANCH  14  16
ENDBRANCH  12  14
ENDBRANCH   4  12
ENDBRANCH   1  10
BRANCH   1  17
ATOM     17  N   UNL     1       6.623   5.871  17.608  0.00  0.00    +0.000 NA
ATOM     18  C   UNL     1       7.427   4.624  17.555  0.00  0.00    +0.000 C 
BRANCH  17  19
ATOM     19  C   UNL     1       7.321   7.025  16.972  0.00  0.00    +0.000 C 
BRANCH  19  20
ATOM     20  C   UNL     1       8.038   7.904  17.976  0.00  0.00    +0.000 C 
ATOM     21  O   UNL     1       8.449   7.417  19.029  0.00  0.00    +0.000 OA
ATOM     22  N   UNL     1       8.118   9.241  17.605  0.00  0.00    +0.000 N 
ATOM     23  H   UNL     1       7.541   9.520  16.813  0.00  0.00    +0.000 HD
BRANCH  22  24
ATOM     24  C   UNL     1       8.766  10.253  18.354  0.00  0.00    +0.000 A 
ATOM     25  C   UNL     1       9.208  10.039  19.659  0.00  0.00    +0.000 A 
ATOM     26  C   UNL     1       9.821  11.054  20.393  0.00  0.00    +0.000 A 
ATOM     27  C   UNL     1      10.008  12.320  19.833  0.00  0.00    +0.000 A 
ATOM     28  C   UNL     1       9.588  12.537  18.515  0.00  0.00    +0.000 A 
ATOM     29  C   UNL     1       8.979  11.508  17.774  0.00  0.00    +0.000 A 
BRANCH  27  30
ATOM     30  C   UNL     1      10.662  13.401  20.657  0.00  0.00    +0.000 C 
ATOM     31  C   UNL     1       9.731  13.980  21.711  0.00  0.00    +0.000 C 
ENDBRANCH  27  30
ENDBRANCH  22  24
ENDBRANCH  19  20
ENDBRANCH  17  19
ENDBRANCH   1  17
TORSDOF 9
ENDMDL
MODEL 5
REMARK VINA RESULT:      -7.2      3.448      6.641
REMARK  Name = 
REMARK  14 active torsions:
REMARK  status: ('A' for Active; 'I' for Inactive)
REMARK    1  A    between atoms: C_1  and  C_2
REMARK    2  A    between atoms: C_2  and  O_3
REMARK    3  A    between atoms: O_3  and  C_4
REMARK    4  A    between atoms: C_4  and  C_6
REMARK    5  A    between atoms: C_7  and  C_8
REMARK    6  A    between atoms: C_10  and  C_11
REMARK    7  A    between atoms: C_12  and  S_13
REMARK    8  A    between atoms: S_13  and  N_16
REMARK    9  A    between atoms: N_16  and  C_17
REMARK   10  A    between atoms: N_16  and  C_18
REMARK   11  A    between atoms: C_18  and  C_19
REMARK   12  A    between atoms: N_21  and  C_22
REMARK   13  A    between atoms: C_25  and  C_26
REMARK   14  A    between atoms: C_26  and  C_27
REMARK                            x       y       z     vdW  Elec       q    Type
REMARK                         _______ _______ _______ _____ _____    ______ ____
ROOT
ATOM      1  S   UNL     1       7.165   4.872  17.291  0.00  0.00    +0.000 S 
ATOM      2  O   UNL     1       7.462   4.426  18.635  0.00  0.00    +0.000 OA
ATOM      3  O   UNL     1       7.972   4.443  16.169  0.00  0.00    +0.000 OA
ENDROOT
BRANCH   1  10
ATOM      4  C   UNL     1       4.595   3.866  17.894  0.00  0.00    +0.000 A 
ATOM      5  C   UNL     1       3.474   3.460  17.169  0.00  0.00    +0.000 A 
ATOM      6  C   UNL     1       2.149   2.915  17.583  0.00  0.00    +0.000 C 
ATOM      7  N   UNL     1       3.750   3.623  15.833  0.00  0.00    +0.000 N 
ATOM      8  C   UNL     1       5.021   4.106  15.661  0.00  0.00    +0.000 A 
ATOM      9  C   UNL     1       5.554   4.401  14.304  0.00  0.00    +0.000 C 
ATOM     10  C   UNL     1       5.581   4.248  16.923  0.00  0.00    +0.000 A 
ATOM     11  H   UNL     1       3.101   3.421  15.081  0.00  0.00    +0.000 HD
BRANCH   4  12
ATOM     12  C   UNL     1       4.722   3.877  19.353  0.00  0.00    +0.000 C 
ATOM     13  O   UNL     1       5.060   2.908  20.017  0.00  0.00    +0.000 OA
BRANCH  12  14
ATOM     14  O   UNL     1       4.380   5.089  19.885  0.00  0.00    +0.000 OA
BRANCH  14  16
ATOM     15  C   UNL     1       2.517   6.574  19.518  0.00  0.00    +0.000 C 
ATOM     16  C   UNL     1       2.999   5.299  20.181  0.00  0.00    +0.000 C 
ENDBRANCH  14  16
ENDBRANCH  12  14
ENDBRANCH   4  12
ENDBRANCH   1  10
BRANCH   1  17
ATOM     17  N   UNL     1       7.108   6.578  17.327  0.00  0.00    +0.000 NA
ATOM     18  C   UNL     1       5.731   7.130  17.357  0.00  0.00    +0.000 C 
BRANCH  17  19
ATOM     19  C   UNL     1       7.960   7.114  18.427  0.00  0.00    +0.000 C 
BRANCH  19  20
ATOM     20  C   UNL     1       8.318   8.573  18.236  0.00  0.00    +0.000 C 
ATOM     21  O   UNL     1       8.012   9.144  17.190  0.00  0.00    +0.000 OA
ATOM     22  N   UNL     1       9.030   9.127  19.293  0.00  0.00    +0.000 N 
ATOM     23  H   UNL     1       9.391   8.468  19.982  0.00  0.00    +0.000 HD
BRANCH  22  24
ATOM     24  C   UNL     1       9.450  10.477  19.369  0.00  0.00    +0.000 A 
ATOM     25  C   UNL     1       9.466  11.179  20.573  0.00  0.00    +0.000 A 
ATOM     26  C   UNL     1       9.858  12.517  20.627  0.00  0.00    +0.000 A 
ATOM     27  C   UNL     1      10.247  13.189  19.466  0.00  0.00    +0.000 A 
ATOM     28  C   UNL     1      10.256  12.484  18.255  0.00  0.00    +0.000 A 
ATOM     29  C   UNL     1       9.869  11.132  18.206  0.00  0.00    +0.000 A 
BRANCH  27  30
ATOM     30  C   UNL     1      10.653  14.639  19.554  0.00  0.00    +0.000 C 
ATOM     31  C   UNL     1      10.703  15.148  20.987  0.00  0.00    +0.000 C 
ENDBRANCH  27  30
ENDBRANCH  22  24
ENDBRANCH  19  20
ENDBRANCH  17  19
ENDBRANCH   1  17
TORSDOF 9
ENDMDL
MODEL 6
REMARK VINA RESULT:      -7.0      2.722      7.952
REMARK  Name = 
REMARK  14 active torsions:
REMARK  status: ('A' for Active; 'I' for Inactive)
REMARK    1  A    between atoms: C_1  and  C_2
REMARK    2  A    between atoms: C_2  and  O_3
REMARK    3  A    between atoms: O_3  and  C_4
REMARK    4  A    between atoms: C_4  and  C_6
REMARK    5  A    between atoms: C_7  and  C_8
REMARK    6  A    between atoms: C_10  and  C_11
REMARK    7  A    between atoms: C_12  and  S_13
REMARK    8  A    between atoms: S_13  and  N_16
REMARK    9  A    between atoms: N_16  and  C_17
REMARK   10  A    between atoms: N_16  and  C_18
REMARK   11  A    between atoms: C_18  and  C_19
REMARK   12  A    between atoms: N_21  and  C_22
REMARK   13  A    between atoms: C_25  and  C_26
REMARK   14  A    between atoms: C_26  and  C_27
REMARK                            x       y       z     vdW  Elec       q    Type
REMARK                         _______ _______ _______ _____ _____    ______ ____
ROOT
ATOM      1  S   UNL     1       4.683   5.230  18.010  0.00  0.00    +0.000 S 
ATOM      2  O   UNL     1       5.175   3.937  17.590  0.00  0.00    +0.000 OA
ATOM      3  O   UNL     1       3.929   6.071  17.104  0.00  0.00    +0.000 OA
ENDROOT
BRANCH   1  10
ATOM      4  C   UNL     1       3.449   3.673  20.017  0.00  0.00    +0.000 A 
ATOM      5  C   UNL     1       2.465   3.871  20.987  0.00  0.00    +0.000 A 
ATOM      6  C   UNL     1       1.856   2.967  22.004  0.00  0.00    +0.000 C 
ATOM      7  N   UNL     1       2.035   5.173  20.897  0.00  0.00    +0.000 N 
ATOM      8  C   UNL     1       2.693   5.827  19.888  0.00  0.00    +0.000 A 
ATOM      9  C   UNL     1       2.432   7.264  19.604  0.00  0.00    +0.000 C 
ATOM     10  C   UNL     1       3.565   4.916  19.308  0.00  0.00    +0.000 A 
ATOM     11  H   UNL     1       1.334   5.592  21.497  0.00  0.00    +0.000 HD
BRANCH   4  12
ATOM     12  C   UNL     1       4.190   2.432  19.780  0.00  0.00    +0.000 C 
ATOM     13  O   UNL     1       5.157   2.079  20.438  0.00  0.00    +0.000 OA
BRANCH  12  14
ATOM     14  O   UNL     1       3.694   1.738  18.712  0.00  0.00    +0.000 OA
BRANCH  14  16
ATOM     15  C   UNL     1       1.982   2.611  17.257  0.00  0.00    +0.000 C 
ATOM     16  C   UNL     1       2.282   1.800  18.500  0.00  0.00    +0.000 C 
ENDBRANCH  14  16
ENDBRANCH  12  14
ENDBRANCH   4  12
ENDBRANCH   1  10
BRANCH   1  17
ATOM     17  N   UNL     1       6.019   6.106  18.613  0.00  0.00    +0.000 NA
ATOM     18  C   UNL     1       6.811   5.367  19.627  0.00  0.00    +0.000 C 
BRANCH  17  19
ATOM     19  C   UNL     1       6.863   6.621  17.496  0.00  0.00    +0.000 C 
BRANCH  19  20
ATOM     20  C   UNL     1       7.186   5.558  16.466  0.00  0.00    +0.000 C 
ATOM     21  O   UNL     1       7.999   4.675  16.735  0.00  0.00    +0.000 OA
ATOM     22  N   UNL     1       6.535   5.729  15.250  0.00  0.00    +0.000 N 
ATOM     23  H   UNL     1       6.068   6.625  15.116  0.00  0.00    +0.000 HD
BRANCH  22  24
ATOM     24  C   UNL     1       6.644   4.855  14.142  0.00  0.00    +0.000 A 
ATOM     25  C   UNL     1       7.520   5.103  13.087  0.00  0.00    +0.000 A 
ATOM     26  C   UNL     1       7.596   4.246  11.989  0.00  0.00    +0.000 A 
ATOM     27  C   UNL     1       6.789   3.108  11.921  0.00  0.00    +0.000 A 
ATOM     28  C   UNL     1       5.922   2.838  12.988  0.00  0.00    +0.000 A 
ATOM     29  C   UNL     1       5.855   3.700  14.098  0.00  0.00    +0.000 A 
BRANCH  27  30
ATOM     30  C   UNL     1       6.885   2.207  10.716  0.00  0.00    +0.000 C 
ATOM     31  C   UNL     1       6.274   0.835  10.958  0.00  0.00    +0.000 C 
ENDBRANCH  27  30
ENDBRANCH  22  24
ENDBRANCH  19  20
ENDBRANCH  17  19
ENDBRANCH   1  17
TORSDOF 9
ENDMDL
MODEL 7
REMARK VINA RESULT:      -7.0      0.959      1.072
REMARK  Name = 
REMARK  14 active torsions:
REMARK  status: ('A' for Active; 'I' for Inactive)
REMARK    1  A    between atoms: C_1  and  C_2
REMARK    2  A    between atoms: C_2  and  O_3
REMARK    3  A    between atoms: O_3  and  C_4
REMARK    4  A    between atoms: C_4  and  C_6
REMARK    5  A    between atoms: C_7  and  C_8
REMARK    6  A    between atoms: C_10  and  C_11
REMARK    7  A    between atoms: C_12  and  S_13
REMARK    8  A    between atoms: S_13  and  N_16
REMARK    9  A    between atoms: N_16  and  C_17
REMARK   10  A    between atoms: N_16  and  C_18
REMARK   11  A    between atoms: C_18  and  C_19
REMARK   12  A    between atoms: N_21  and  C_22
REMARK   13  A    between atoms: C_25  and  C_26
REMARK   14  A    between atoms: C_26  and  C_27
REMARK                            x       y       z     vdW  Elec       q    Type
REMARK                         _______ _______ _______ _____ _____    ______ ____
ROOT
ATOM      1  S   UNL     1       4.921   4.452  19.344  0.00  0.00    +0.000 S 
ATOM      2  O   UNL     1       6.051   3.715  19.865  0.00  0.00    +0.000 OA
ATOM      3  O   UNL     1       4.836   5.890  19.493  0.00  0.00    +0.000 OA
ENDROOT
BRANCH   1  10
ATOM      4  C   UNL     1       6.109   4.370  16.784  0.00  0.00    +0.000 A 
ATOM      5  C   UNL     1       5.697   4.053  15.489  0.00  0.00    +0.000 A 
ATOM      6  C   UNL     1       6.404   4.060  14.176  0.00  0.00    +0.000 C 
ATOM      7  N   UNL     1       4.372   3.690  15.541  0.00  0.00    +0.000 N 
ATOM      8  C   UNL     1       3.902   3.776  16.825  0.00  0.00    +0.000 A 
ATOM      9  C   UNL     1       2.500   3.404  17.157  0.00  0.00    +0.000 C 
ATOM     10  C   UNL     1       4.952   4.215  17.619  0.00  0.00    +0.000 A 
ATOM     11  H   UNL     1       3.824   3.394  14.742  0.00  0.00    +0.000 HD
BRANCH   4  12
ATOM     12  C   UNL     1       7.455   4.787  17.183  0.00  0.00    +0.000 C 
ATOM     13  O   UNL     1       8.227   4.085  17.818  0.00  0.00    +0.000 OA
BRANCH  12  14
ATOM     14  O   UNL     1       7.728   6.069  16.795  0.00  0.00    +0.000 OA
BRANCH  14  16
ATOM     15  C   UNL     1       6.804   8.155  17.571  0.00  0.00    +0.000 C 
ATOM     16  C   UNL     1       7.812   7.054  17.826  0.00  0.00    +0.000 C 
ENDBRANCH  14  16
ENDBRANCH  12  14
ENDBRANCH   4  12
ENDBRANCH   1  10
BRANCH   1  17
ATOM     17  N   UNL     1       3.511   3.735  19.989  0.00  0.00    +0.000 NA
ATOM     18  C   UNL     1       3.709   2.341  20.457  0.00  0.00    +0.000 C 
BRANCH  17  19
ATOM     19  C   UNL     1       2.905   4.607  21.037  0.00  0.00    +0.000 C 
BRANCH  19  20
ATOM     20  C   UNL     1       1.908   5.598  20.472  0.00  0.00    +0.000 C 
ATOM     21  O   UNL     1       0.806   5.206  20.092  0.00  0.00    +0.000 OA
ATOM     22  N   UNL     1       2.385   6.901  20.396  0.00  0.00    +0.000 N 
ATOM     23  H   UNL     1       3.386   7.020  20.546  0.00  0.00    +0.000 HD
BRANCH  22  24
ATOM     24  C   UNL     1       1.637   8.013  19.938  0.00  0.00    +0.000 A 
ATOM     25  C   UNL     1       1.719   8.468  18.623  0.00  0.00    +0.000 A 
ATOM     26  C   UNL     1       0.996   9.581  18.194  0.00  0.00    +0.000 A 
ATOM     27  C   UNL     1       0.165  10.271  19.080  0.00  0.00    +0.000 A 
ATOM     28  C   UNL     1       0.059   9.807  20.397  0.00  0.00    +0.000 A 
ATOM     29  C   UNL     1       0.783   8.678  20.824  0.00  0.00    +0.000 A 
BRANCH  27  30
ATOM     30  C   UNL     1      -0.593  11.479  18.590  0.00  0.00    +0.000 C 
ATOM     31  C   UNL     1      -1.855  11.109  17.826  0.00  0.00    +0.000 C 
ENDBRANCH  27  30
ENDBRANCH  22  24
ENDBRANCH  19  20
ENDBRANCH  17  19
ENDBRANCH   1  17
TORSDOF 9
ENDMDL
MODEL 8
REMARK VINA RESULT:      -7.0      2.338      3.329
REMARK  Name = 
REMARK  14 active torsions:
REMARK  status: ('A' for Active; 'I' for Inactive)
REMARK    1  A    between atoms: C_1  and  C_2
REMARK    2  A    between atoms: C_2  and  O_3
REMARK    3  A    between atoms: O_3  and  C_4
REMARK    4  A    between atoms: C_4  and  C_6
REMARK    5  A    between atoms: C_7  and  C_8
REMARK    6  A    between atoms: C_10  and  C_11
REMARK    7  A    between atoms: C_12  and  S_13
REMARK    8  A    between atoms: S_13  and  N_16
REMARK    9  A    between atoms: N_16  and  C_17
REMARK   10  A    between atoms: N_16  and  C_18
REMARK   11  A    between atoms: C_18  and  C_19
REMARK   12  A    between atoms: N_21  and  C_22
REMARK   13  A    between atoms: C_25  and  C_26
REMARK   14  A    between atoms: C_26  and  C_27
REMARK                            x       y       z     vdW  Elec       q    Type
REMARK                         _______ _______ _______ _____ _____    ______ ____
ROOT
ATOM      1  S   UNL     1       2.115   4.380  18.262  0.00  0.00    +0.000 S 
ATOM      2  O   UNL     1       1.968   5.511  17.372  0.00  0.00    +0.000 OA
ATOM      3  O   UNL     1       1.681   3.058  17.865  0.00  0.00    +0.000 OA
ENDROOT
BRANCH   1  10
ATOM      4  C   UNL     1       4.847   5.012  17.920  0.00  0.00    +0.000 A 
ATOM      5  C   UNL     1       6.062   4.541  18.417  0.00  0.00    +0.000 A 
ATOM      6  C   UNL     1       7.478   4.931  18.157  0.00  0.00    +0.000 C 
ATOM      7  N   UNL     1       5.795   3.518  19.295  0.00  0.00    +0.000 N 
ATOM      8  C   UNL     1       4.445   3.294  19.374  0.00  0.00    +0.000 A 
ATOM      9  C   UNL     1       3.889   2.257  20.284  0.00  0.00    +0.000 C 
ATOM     10  C   UNL     1       3.828   4.194  18.516  0.00  0.00    +0.000 A 
ATOM     11  H   UNL     1       6.497   3.005  19.816  0.00  0.00    +0.000 HD
BRANCH   4  12
ATOM     12  C   UNL     1       4.672   6.114  16.971  0.00  0.00    +0.000 C 
ATOM     13  O   UNL     1       4.528   7.282  17.300  0.00  0.00    +0.000 OA
BRANCH  12  14
ATOM     14  O   UNL     1       4.649   5.673  15.677  0.00  0.00    +0.000 OA
BRANCH  14  16
ATOM     15  C   UNL     1       5.996   4.025  14.546  0.00  0.00    +0.000 C 
ATOM     16  C   UNL     1       5.913   5.452  15.047  0.00  0.00    +0.000 C 
ENDBRANCH  14  16
ENDBRANCH  12  14
ENDBRANCH   4  12
ENDBRANCH   1  10
BRANCH   1  17
ATOM     17  N   UNL     1       1.367   4.800  19.738  0.00  0.00    +0.000 NA
ATOM     18  C   UNL     1       0.920   3.631  20.537  0.00  0.00    +0.000 C 
BRANCH  17  19
ATOM     19  C   UNL     1       2.228   5.730  20.524  0.00  0.00    +0.000 C 
BRANCH  19  20
ATOM     20  C   UNL     1       1.751   7.167  20.463  0.00  0.00    +0.000 C 
ATOM     21  O   UNL     1       2.195   7.921  19.598  0.00  0.00    +0.000 OA
ATOM     22  N   UNL     1       0.855   7.511  21.467  0.00  0.00    +0.000 N 
ATOM     23  H   UNL     1       0.758   6.839  22.229  0.00  0.00    +0.000 HD
BRANCH  22  24
ATOM     24  C   UNL     1       0.240   8.778  21.607  0.00  0.00    +0.000 A 
ATOM     25  C   UNL     1      -0.135   9.285  22.850  0.00  0.00    +0.000 A 
ATOM     26  C   UNL     1      -0.764  10.525  22.969  0.00  0.00    +0.000 A 
ATOM     27  C   UNL     1      -1.034  11.294  21.834  0.00  0.00    +0.000 A 
ATOM     28  C   UNL     1      -0.639  10.803  20.583  0.00  0.00    +0.000 A 
ATOM     29  C   UNL     1       0.003   9.556  20.469  0.00  0.00    +0.000 A 
BRANCH  27  30
ATOM     30  C   UNL     1      -1.726  12.624  21.993  0.00  0.00    +0.000 C 
ATOM     31  C   UNL     1      -2.628  12.674  23.217  0.00  0.00    +0.000 C 
ENDBRANCH  27  30
ENDBRANCH  22  24
ENDBRANCH  19  20
ENDBRANCH  17  19
ENDBRANCH   1  17
TORSDOF 9
ENDMDL
MODEL 9
REMARK VINA RESULT:      -7.0      3.815      6.778
REMARK  Name = 
REMARK  14 active torsions:
REMARK  status: ('A' for Active; 'I' for Inactive)
REMARK    1  A    between atoms: C_1  and  C_2
REMARK    2  A    between atoms: C_2  and  O_3
REMARK    3  A    between atoms: O_3  and  C_4
REMARK    4  A    between atoms: C_4  and  C_6
REMARK    5  A    between atoms: C_7  and  C_8
REMARK    6  A    between atoms: C_10  and  C_11
REMARK    7  A    between atoms: C_12  and  S_13
REMARK    8  A    between atoms: S_13  and  N_16
REMARK    9  A    between atoms: N_16  and  C_17
REMARK   10  A    between atoms: N_16  and  C_18
REMARK   11  A    between atoms: C_18  and  C_19
REMARK   12  A    between atoms: N_21  and  C_22
REMARK   13  A    between atoms: C_25  and  C_26
REMARK   14  A    between atoms: C_26  and  C_27
REMARK                            x       y       z     vdW  Elec       q    Type
REMARK                         _______ _______ _______ _____ _____    ______ ____
ROOT
ATOM      1  S   UNL     1       7.132   4.952  18.002  0.00  0.00    +0.000 S 
ATOM      2  O   UNL     1       7.012   4.827  19.438  0.00  0.00    +0.000 OA
ATOM      3  O   UNL     1       8.167   4.246  17.276  0.00  0.00    +0.000 OA
ENDROOT
BRANCH   1  10
ATOM      4  C   UNL     1       4.578   3.752  18.113  0.00  0.00    +0.000 A 
ATOM      5  C   UNL     1       3.589   3.396  17.196  0.00  0.00    +0.000 A 
ATOM      6  C   UNL     1       2.260   2.737  17.351  0.00  0.00    +0.000 C 
ATOM      7  N   UNL     1       4.023   3.752  15.941  0.00  0.00    +0.000 N 
ATOM      8  C   UNL     1       5.272   4.314  16.009  0.00  0.00    +0.000 A 
ATOM      9  C   UNL     1       5.956   4.817  14.787  0.00  0.00    +0.000 C 
ATOM     10  C   UNL     1       5.653   4.310  17.343  0.00  0.00    +0.000 A 
ATOM     11  H   UNL     1       3.492   3.624  15.088  0.00  0.00    +0.000 HD
BRANCH   4  12
ATOM     12  C   UNL     1       4.514   3.570  19.565  0.00  0.00    +0.000 C 
ATOM     13  O   UNL     1       4.911   2.571  20.146  0.00  0.00    +0.000 OA
BRANCH  12  14
ATOM     14  O   UNL     1       3.923   4.635  20.186  0.00  0.00    +0.000 OA
BRANCH  14  16
ATOM     15  C   UNL     1       2.139   3.721  21.524  0.00  0.00    +0.000 C 
ATOM     16  C   UNL     1       2.503   4.589  20.337  0.00  0.00    +0.000 C 
ENDBRANCH  14  16
ENDBRANCH  12  14
ENDBRANCH   4  12
ENDBRANCH   1  10
BRANCH   1  17
ATOM     17  N   UNL     1       7.233   6.619  17.648  0.00  0.00    +0.000 NA
ATOM     18  C   UNL     1       5.913   7.275  17.471  0.00  0.00    +0.000 C 
BRANCH  17  19
ATOM     19  C   UNL     1       8.087   7.323  18.649  0.00  0.00    +0.000 C 
BRANCH  19  20
ATOM     20  C   UNL     1       8.452   8.731  18.223  0.00  0.00    +0.000 C 
ATOM     21  O   UNL     1       8.188   9.111  17.083  0.00  0.00    +0.000 OA
ATOM     22  N   UNL     1       9.120   9.462  19.197  0.00  0.00    +0.000 N 
ATOM     23  H   UNL     1       9.453   8.934  20.003  0.00  0.00    +0.000 HD
BRANCH  22  24
ATOM     24  C   UNL     1       9.537  10.808  19.057  0.00  0.00    +0.000 A 
ATOM     25  C   UNL     1       8.979  11.660  18.105  0.00  0.00    +0.000 A 
ATOM     26  C   UNL     1       9.419  12.976  17.961  0.00  0.00    +0.000 A 
ATOM     27  C   UNL     1      10.439  13.475  18.775  0.00  0.00    +0.000 A 
ATOM     28  C   UNL     1      10.990  12.633  19.750  0.00  0.00    +0.000 A 
ATOM     29  C   UNL     1      10.537  11.309  19.898  0.00  0.00    +0.000 A 
BRANCH  27  30
ATOM     30  C   UNL     1      10.902  14.897  18.587  0.00  0.00    +0.000 C 
ATOM     31  C   UNL     1       9.955  15.713  17.720  0.00  0.00    +0.000 C 
ENDBRANCH  27  30
ENDBRANCH  22  24
ENDBRANCH  19  20
ENDBRANCH  17  19
ENDBRANCH   1  17
TORSDOF 9
ENDMDL
