MODEL 1
REMARK VINA RESULT:      -8.2      0.000      0.000
REMARK  Name = 
REMARK  9 active torsions:
REMARK  status: ('A' for Active; 'I' for Inactive)
REMARK    1  A    between atoms: C_1  and  C_2
REMARK    2  A    between atoms: C_2  and  O_3
REMARK    3  A    between atoms: O_3  and  C_4
REMARK    4  A    between atoms: C_4  and  C_6
REMARK    5  A    between atoms: C_8  and  C_9
REMARK    6  A    between atoms: C_9  and  O_10
REMARK    7  A    between atoms: O_10  and  C_11
REMARK    8  A    between atoms: C_14  and  N_15
REMARK    9  A    between atoms: C_18  and  C_19
REMARK                            x       y       z     vdW  Elec       q    Type
REMARK                         _______ _______ _______ _____ _____    ______ ____
ROOT
ATOM      1  C   UNL     1       5.239   5.206  18.088  0.00  0.00    +0.000 A 
ATOM      2  C   UNL     1       4.127   5.986  17.763  0.00  0.00    +0.000 A 
ATOM      3  C   UNL     1       2.839   5.553  18.072  0.00  0.00    +0.000 A 
ATOM      4  C   UNL     1       2.667   4.325  18.722  0.00  0.00    +0.000 A 
ATOM      5  C   UNL     1       3.760   3.519  19.074  0.00  0.00    +0.000 A 
ATOM      6  C   UNL     1       5.054   3.980  18.732  0.00  0.00    +0.000 A 
ENDROOT
BRANCH   5   7
ATOM      7  C   UNL     1       3.645   2.220  19.828  0.00  0.00    +0.000 C 
ATOM      8  F   UNL     1       4.813   1.611  20.140  0.00  0.00    +0.000 F 
ATOM      9  F   UNL     1       2.963   2.368  20.997  0.00  0.00    +0.000 F 
ATOM     10  F   UNL     1       2.940   1.298  19.110  0.00  0.00    +0.000 F 
ENDBRANCH   5   7
BRANCH   4  11
ATOM     11  N   UNL     1       1.301   3.921  18.998  0.00  0.00    +0.000 N 
ATOM     12  O   UNL     1       0.808   4.308  20.062  0.00  0.00    +0.000 OA
ATOM     13  O   UNL     1       0.730   3.260  18.121  0.00  0.00    +0.000 OA
ENDBRANCH   4  11
BRANCH   1  14
ATOM     14  O   UNL     1       6.433   5.766  17.738  0.00  0.00    +0.000 OA
BRANCH  14  15
ATOM     15  C   UNL     1       7.448   4.917  17.206  0.00  0.00    +0.000 C 
BRANCH  15  18
ATOM     16  C   UNL     1       6.524   4.174  13.717  0.00  0.00    +0.000 A 
ATOM     17  C   UNL     1       6.397   3.782  15.076  0.00  0.00    +0.000 A 
ATOM     18  C   UNL     1       7.113   4.722  15.778  0.00  0.00    +0.000 A 
ATOM     19  O   UNL     1       7.615   5.637  14.909  0.00  0.00    +0.000 OA
ATOM     20  N   UNL     1       7.244   5.307  13.622  0.00  0.00    +0.000 NA
BRANCH  16  21
ATOM     21  C   UNL     1       6.033   3.451  12.545  0.00  0.00    +0.000 C 
ATOM     22  O   UNL     1       6.767   2.806  11.804  0.00  0.00    +0.000 OA
BRANCH  21  23
ATOM     23  O   UNL     1       4.701   3.659  12.321  0.00  0.00    +0.000 OA
BRANCH  23  25
ATOM     24  C   UNL     1       3.402   3.927  10.334  0.00  0.00    +0.000 C 
ATOM     25  C   UNL     1       4.131   2.935  11.224  0.00  0.00    +0.000 C 
ENDBRANCH  23  25
ENDBRANCH  21  23
ENDBRANCH  16  21
ENDBRANCH  15  18
ENDBRANCH  14  15
ENDBRANCH   1  14
TORSDOF 8
ENDMDL
MODEL 2
REMARK VINA RESULT:      -7.8      0.720      1.066
REMARK  Name = 
REMARK  9 active torsions:
REMARK  status: ('A' for Active; 'I' for Inactive)
REMARK    1  A    between atoms: C_1  and  C_2
REMARK    2  A    between atoms: C_2  and  O_3
REMARK    3  A    between atoms: O_3  and  C_4
REMARK    4  A    between atoms: C_4  and  C_6
REMARK    5  A    between atoms: C_8  and  C_9
REMARK    6  A    between atoms: C_9  and  O_10
REMARK    7  A    between atoms: O_10  and  C_11
REMARK    8  A    between atoms: C_14  and  N_15
REMARK    9  A    between atoms: C_18  and  C_19
REMARK                            x       y       z     vdW  Elec       q    Type
REMARK                         _______ _______ _______ _____ _____    ______ ____
ROOT
ATOM      1  C   UNL     1       4.947   4.975  18.410  0.00  0.00    +0.000 A 
ATOM      2  C   UNL     1       3.885   5.440  17.629  0.00  0.00    +0.000 A 
ATOM      3  C   UNL     1       2.586   4.989  17.854  0.00  0.00    +0.000 A 
ATOM      4  C   UNL     1       2.350   4.065  18.879  0.00  0.00    +0.000 A 
ATOM      5  C   UNL     1       3.388   3.583  19.690  0.00  0.00    +0.000 A 
ATOM      6  C   UNL     1       4.699   4.049  19.427  0.00  0.00    +0.000 A 
ENDROOT
BRANCH   5   7
ATOM      7  C   UNL     1       3.190   2.639  20.847  0.00  0.00    +0.000 C 
ATOM      8  F   UNL     1       2.273   1.660  20.661  0.00  0.00    +0.000 F 
ATOM      9  F   UNL     1       4.348   2.020  21.203  0.00  0.00    +0.000 F 
ATOM     10  F   UNL     1       2.777   3.309  21.961  0.00  0.00    +0.000 F 
ENDBRANCH   5   7
BRANCH   4  11
ATOM     11  N   UNL     1       0.980   3.619  19.050  0.00  0.00    +0.000 N 
ATOM     12  O   UNL     1       0.349   4.099  19.998  0.00  0.00    +0.000 OA
ATOM     13  O   UNL     1       0.544   2.828  18.203  0.00  0.00    +0.000 OA
ENDBRANCH   4  11
BRANCH   1  14
ATOM     14  O   UNL     1       6.156   5.518  18.084  0.00  0.00    +0.000 OA
BRANCH  14  15
ATOM     15  C   UNL     1       7.173   4.652  17.585  0.00  0.00    +0.000 C 
BRANCH  15  18
ATOM     16  C   UNL     1       6.674   4.362  13.946  0.00  0.00    +0.000 A 
ATOM     17  C   UNL     1       6.351   3.831  15.223  0.00  0.00    +0.000 A 
ATOM     18  C   UNL     1       7.017   4.639  16.114  0.00  0.00    +0.000 A 
ATOM     19  O   UNL     1       7.672   5.610  15.429  0.00  0.00    +0.000 OA
ATOM     20  N   UNL     1       7.456   5.450  14.075  0.00  0.00    +0.000 NA
BRANCH  16  21
ATOM     21  C   UNL     1       6.303   3.808  12.645  0.00  0.00    +0.000 C 
ATOM     22  O   UNL     1       7.110   3.644  11.737  0.00  0.00    +0.000 OA
BRANCH  21  23
ATOM     23  O   UNL     1       4.958   3.592  12.531  0.00  0.00    +0.000 OA
BRANCH  23  25
ATOM     24  C   UNL     1       3.586   3.639  10.576  0.00  0.00    +0.000 C 
ATOM     25  C   UNL     1       4.544   2.804  11.409  0.00  0.00    +0.000 C 
ENDBRANCH  23  25
ENDBRANCH  21  23
ENDBRANCH  16  21
ENDBRANCH  15  18
ENDBRANCH  14  15
ENDBRANCH   1  14
TORSDOF 8
ENDMDL
MODEL 3
REMARK VINA RESULT:      -7.7      1.498      1.724
REMARK  Name = 
REMARK  9 active torsions:
REMARK  status: ('A' for Active; 'I' for Inactive)
REMARK    1  A    between atoms: C_1  and  C_2
REMARK    2  A    between atoms: C_2  and  O_3
REMARK    3  A    between atoms: O_3  and  C_4
REMARK    4  A    between atoms: C_4  and  C_6
REMARK    5  A    between atoms: C_8  and  C_9
REMARK    6  A    between atoms: C_9  and  O_10
REMARK    7  A    between atoms: O_10  and  C_11
REMARK    8  A    between atoms: C_14  and  N_15
REMARK    9  A    between atoms: C_18  and  C_19
REMARK                            x       y       z     vdW  Elec       q    Type
REMARK                         _______ _______ _______ _____ _____    ______ ____
ROOT
ATOM      1  C   UNL     1       5.495   4.327  17.979  0.00  0.00    +0.000 A 
ATOM      2  C   UNL     1       5.476   5.240  19.037  0.00  0.00    +0.000 A 
ATOM      3  C   UNL     1       4.371   5.328  19.881  0.00  0.00    +0.000 A 
ATOM      4  C   UNL     1       3.275   4.485  19.664  0.00  0.00    +0.000 A 
ATOM      5  C   UNL     1       3.261   3.549  18.620  0.00  0.00    +0.000 A 
ATOM      6  C   UNL     1       4.392   3.495  17.770  0.00  0.00    +0.000 A 
ENDROOT
BRANCH   5   7
ATOM      7  C   UNL     1       2.140   2.573  18.373  0.00  0.00    +0.000 C 
ATOM      8  F   UNL     1       1.835   1.749  19.403  0.00  0.00    +0.000 F 
ATOM      9  F   UNL     1       0.985   3.202  18.026  0.00  0.00    +0.000 F 
ATOM     10  F   UNL     1       2.433   1.746  17.328  0.00  0.00    +0.000 F 
ENDBRANCH   5   7
BRANCH   4  11
ATOM     11  N   UNL     1       2.147   4.639  20.565  0.00  0.00    +0.000 N 
ATOM     12  O   UNL     1       2.161   3.963  21.599  0.00  0.00    +0.000 OA
ATOM     13  O   UNL     1       1.289   5.470  20.242  0.00  0.00    +0.000 OA
ENDBRANCH   4  11
BRANCH   1  14
ATOM     14  O   UNL     1       6.648   4.345  17.250  0.00  0.00    +0.000 OA
BRANCH  14  15
ATOM     15  C   UNL     1       6.868   5.436  16.359  0.00  0.00    +0.000 C 
BRANCH  15  18
ATOM     16  C   UNL     1       6.074   3.962  13.077  0.00  0.00    +0.000 A 
ATOM     17  C   UNL     1       5.647   4.143  14.418  0.00  0.00    +0.000 A 
ATOM     18  C   UNL     1       6.631   4.909  14.997  0.00  0.00    +0.000 A 
ATOM     19  O   UNL     1       7.573   5.199  14.064  0.00  0.00    +0.000 OA
ATOM     20  N   UNL     1       7.229   4.619  12.861  0.00  0.00    +0.000 NA
BRANCH  16  21
ATOM     21  C   UNL     1       5.436   3.133  12.056  0.00  0.00    +0.000 C 
ATOM     22  O   UNL     1       6.025   2.237  11.462  0.00  0.00    +0.000 OA
BRANCH  21  23
ATOM     23  O   UNL     1       4.159   3.534  11.777  0.00  0.00    +0.000 OA
BRANCH  23  25
ATOM     24  C   UNL     1       3.082   4.120   9.726  0.00  0.00    +0.000 C 
ATOM     25  C   UNL     1       3.571   2.974  10.597  0.00  0.00    +0.000 C 
ENDBRANCH  23  25
ENDBRANCH  21  23
ENDBRANCH  16  21
ENDBRANCH  15  18
ENDBRANCH  14  15
ENDBRANCH   1  14
TORSDOF 8
ENDMDL
MODEL 4
REMARK VINA RESULT:      -7.5      0.877      1.351
REMARK  Name = 
REMARK  9 active torsions:
REMARK  status: ('A' for Active; 'I' for Inactive)
REMARK    1  A    between atoms: C_1  and  C_2
REMARK    2  A    between atoms: C_2  and  O_3
REMARK    3  A    between atoms: O_3  and  C_4
REMARK    4  A    between atoms: C_4  and  C_6
REMARK    5  A    between atoms: C_8  and  C_9
REMARK    6  A    between atoms: C_9  and  O_10
REMARK    7  A    between atoms: O_10  and  C_11
REMARK    8  A    between atoms: C_14  and  N_15
REMARK    9  A    between atoms: C_18  and  C_19
REMARK                            x       y       z     vdW  Elec       q    Type
REMARK                         _______ _______ _______ _____ _____    ______ ____
ROOT
ATOM      1  C   UNL     1       3.975   5.550  17.858  0.00  0.00    +0.000 A 
ATOM      2  C   UNL     1       2.635   5.939  17.779  0.00  0.00    +0.000 A 
ATOM      3  C   UNL     1       1.625   5.117  18.275  0.00  0.00    +0.000 A 
ATOM      4  C   UNL     1       1.966   3.894  18.863  0.00  0.00    +0.000 A 
ATOM      5  C   UNL     1       3.300   3.473  18.969  0.00  0.00    +0.000 A 
ATOM      6  C   UNL     1       4.301   4.324  18.442  0.00  0.00    +0.000 A 
ENDROOT
BRANCH   5   7
ATOM      7  C   UNL     1       3.734   2.199  19.646  0.00  0.00    +0.000 C 
ATOM      8  F   UNL     1       3.307   1.049  19.072  0.00  0.00    +0.000 F 
ATOM      9  F   UNL     1       5.089   2.106  19.734  0.00  0.00    +0.000 F 
ATOM     10  F   UNL     1       3.281   2.148  20.931  0.00  0.00    +0.000 F 
ENDBRANCH   5   7
BRANCH   4  11
ATOM     11  N   UNL     1       0.868   3.074  19.342  0.00  0.00    +0.000 N 
ATOM     12  O   UNL     1       0.404   2.244  18.552  0.00  0.00    +0.000 OA
ATOM     13  O   UNL     1       0.520   3.244  20.517  0.00  0.00    +0.000 OA
ENDBRANCH   4  11
BRANCH   1  14
ATOM     14  O   UNL     1       4.850   6.464  17.346  0.00  0.00    +0.000 OA
BRANCH  14  15
ATOM     15  C   UNL     1       6.227   6.104  17.257  0.00  0.00    +0.000 C 
BRANCH  15  18
ATOM     16  C   UNL     1       6.491   4.606  13.901  0.00  0.00    +0.000 A 
ATOM     17  C   UNL     1       5.667   4.798  15.041  0.00  0.00    +0.000 A 
ATOM     18  C   UNL     1       6.424   5.567  15.893  0.00  0.00    +0.000 A 
ATOM     19  O   UNL     1       7.612   5.848  15.299  0.00  0.00    +0.000 OA
ATOM     20  N   UNL     1       7.659   5.258  14.052  0.00  0.00    +0.000 NA
BRANCH  16  21
ATOM     21  C   UNL     1       6.201   3.770  12.738  0.00  0.00    +0.000 C 
ATOM     22  O   UNL     1       7.076   3.256  12.051  0.00  0.00    +0.000 OA
BRANCH  21  23
ATOM     23  O   UNL     1       4.864   3.713  12.454  0.00  0.00    +0.000 OA
BRANCH  23  25
ATOM     24  C   UNL     1       3.356   3.466  10.618  0.00  0.00    +0.000 C 
ATOM     25  C   UNL     1       4.486   2.819  11.401  0.00  0.00    +0.000 C 
ENDBRANCH  23  25
ENDBRANCH  21  23
ENDBRANCH  16  21
ENDBRANCH  15  18
ENDBRANCH  14  15
ENDBRANCH   1  14
TORSDOF 8
ENDMDL
MODEL 5
REMARK VINA RESULT:      -7.4      1.448      1.751
REMARK  Name = 
REMARK  9 active torsions:
REMARK  status: ('A' for Active; 'I' for Inactive)
REMARK    1  A    between atoms: C_1  and  C_2
REMARK    2  A    between atoms: C_2  and  O_3
REMARK    3  A    between atoms: O_3  and  C_4
REMARK    4  A    between atoms: C_4  and  C_6
REMARK    5  A    between atoms: C_8  and  C_9
REMARK    6  A    between atoms: C_9  and  O_10
REMARK    7  A    between atoms: O_10  and  C_11
REMARK    8  A    between atoms: C_14  and  N_15
REMARK    9  A    between atoms: C_18  and  C_19
REMARK                            x       y       z     vdW  Elec       q    Type
REMARK                         _______ _______ _______ _____ _____    ______ ____
ROOT
ATOM      1  C   UNL     1       4.293   5.406  17.216  0.00  0.00    +0.000 A 
ATOM      2  C   UNL     1       4.176   6.217  18.349  0.00  0.00    +0.000 A 
ATOM      3  C   UNL     1       3.395   5.819  19.431  0.00  0.00    +0.000 A 
ATOM      4  C   UNL     1       2.727   4.590  19.378  0.00  0.00    +0.000 A 
ATOM      5  C   UNL     1       2.828   3.744  18.264  0.00  0.00    +0.000 A 
ATOM      6  C   UNL     1       3.618   4.184  17.174  0.00  0.00    +0.000 A 
ENDROOT
BRANCH   5   7
ATOM      7  C   UNL     1       2.186   2.384  18.172  0.00  0.00    +0.000 C 
ATOM      8  F   UNL     1       2.375   1.717  17.009  0.00  0.00    +0.000 F 
ATOM      9  F   UNL     1       2.608   1.554  19.165  0.00  0.00    +0.000 F 
ATOM     10  F   UNL     1       0.833   2.471  18.320  0.00  0.00    +0.000 F 
ENDBRANCH   5   7
BRANCH   4  11
ATOM     11  N   UNL     1       1.913   4.241  20.528  0.00  0.00    +0.000 N 
ATOM     12  O   UNL     1       0.723   4.572  20.491  0.00  0.00    +0.000 OA
ATOM     13  O   UNL     1       2.469   3.601  21.429  0.00  0.00    +0.000 OA
ENDBRANCH   4  11
BRANCH   1  14
ATOM     14  O   UNL     1       5.104   5.919  16.246  0.00  0.00    +0.000 OA
BRANCH  14  15
ATOM     15  C   UNL     1       6.426   5.400  16.126  0.00  0.00    +0.000 C 
BRANCH  15  18
ATOM     16  C   UNL     1       6.512   3.682  12.868  0.00  0.00    +0.000 A 
ATOM     17  C   UNL     1       5.956   3.698  14.174  0.00  0.00    +0.000 A 
ATOM     18  C   UNL     1       6.512   4.802  14.776  0.00  0.00    +0.000 A 
ATOM     19  O   UNL     1       7.324   5.430  13.887  0.00  0.00    +0.000 OA
ATOM     20  N   UNL     1       7.323   4.742  12.691  0.00  0.00    +0.000 NA
BRANCH  16  21
ATOM     21  C   UNL     1       6.328   2.652  11.847  0.00  0.00    +0.000 C 
ATOM     22  O   UNL     1       7.265   2.101  11.280  0.00  0.00    +0.000 OA
BRANCH  21  23
ATOM     23  O   UNL     1       5.012   2.451  11.535  0.00  0.00    +0.000 OA
BRANCH  23  25
ATOM     24  C   UNL     1       3.266   3.450  10.247  0.00  0.00    +0.000 C 
ATOM     25  C   UNL     1       4.208   3.631  11.426  0.00  0.00    +0.000 C 
ENDBRANCH  23  25
ENDBRANCH  21  23
ENDBRANCH  16  21
ENDBRANCH  15  18
ENDBRANCH  14  15
ENDBRANCH   1  14
TORSDOF 8
ENDMDL
MODEL 6
REMARK VINA RESULT:      -7.4      1.336      1.599
REMARK  Name = 
REMARK  9 active torsions:
REMARK  status: ('A' for Active; 'I' for Inactive)
REMARK    1  A    between atoms: C_1  and  C_2
REMARK    2  A    between atoms: C_2  and  O_3
REMARK    3  A    between atoms: O_3  and  C_4
REMARK    4  A    between atoms: C_4  and  C_6
REMARK    5  A    between atoms: C_8  and  C_9
REMARK    6  A    between atoms: C_9  and  O_10
REMARK    7  A    between atoms: O_10  and  C_11
REMARK    8  A    between atoms: C_14  and  N_15
REMARK    9  A    between atoms: C_18  and  C_19
REMARK                            x       y       z     vdW  Elec       q    Type
REMARK                         _______ _______ _______ _____ _____    ______ ____
ROOT
ATOM      1  C   UNL     1       4.786   5.027  18.721  0.00  0.00    +0.000 A 
ATOM      2  C   UNL     1       3.980   5.724  19.626  0.00  0.00    +0.000 A 
ATOM      3  C   UNL     1       2.813   5.150  20.126  0.00  0.00    +0.000 A 
ATOM      4  C   UNL     1       2.455   3.860  19.719  0.00  0.00    +0.000 A 
ATOM      5  C   UNL     1       3.243   3.126  18.821  0.00  0.00    +0.000 A 
ATOM      6  C   UNL     1       4.415   3.742  18.319  0.00  0.00    +0.000 A 
ENDROOT
BRANCH   5   7
ATOM      7  C   UNL     1       2.946   1.712  18.394  0.00  0.00    +0.000 C 
ATOM      8  F   UNL     1       4.018   0.957  18.056  0.00  0.00    +0.000 F 
ATOM      9  F   UNL     1       2.274   1.020  19.354  0.00  0.00    +0.000 F 
ATOM     10  F   UNL     1       2.135   1.693  17.297  0.00  0.00    +0.000 F 
ENDBRANCH   5   7
BRANCH   4  11
ATOM     11  N   UNL     1       1.219   3.327  20.261  0.00  0.00    +0.000 N 
ATOM     12  O   UNL     1       0.254   3.261  19.491  0.00  0.00    +0.000 OA
ATOM     13  O   UNL     1       1.249   2.939  21.435  0.00  0.00    +0.000 OA
ENDBRANCH   4  11
BRANCH   1  14
ATOM     14  O   UNL     1       5.902   5.709  18.331  0.00  0.00    +0.000 OA
BRANCH  14  15
ATOM     15  C   UNL     1       5.773   6.681  17.296  0.00  0.00    +0.000 C 
BRANCH  15  18
ATOM     16  C   UNL     1       6.592   4.924  14.163  0.00  0.00    +0.000 A 
ATOM     17  C   UNL     1       5.554   5.397  15.009  0.00  0.00    +0.000 A 
ATOM     18  C   UNL     1       6.207   6.014  16.049  0.00  0.00    +0.000 A 
ATOM     19  O   UNL     1       7.546   5.948  15.834  0.00  0.00    +0.000 OA
ATOM     20  N   UNL     1       7.794   5.277  14.654  0.00  0.00    +0.000 NA
BRANCH  16  21
ATOM     21  C   UNL     1       6.441   4.103  12.963  0.00  0.00    +0.000 C 
ATOM     22  O   UNL     1       7.306   4.021  12.099  0.00  0.00    +0.000 OA
BRANCH  21  23
ATOM     23  O   UNL     1       5.203   3.530  12.871  0.00  0.00    +0.000 OA
BRANCH  23  25
ATOM     24  C   UNL     1       3.765   3.312  10.976  0.00  0.00    +0.000 C 
ATOM     25  C   UNL     1       4.967   2.734  11.705  0.00  0.00    +0.000 C 
ENDBRANCH  23  25
ENDBRANCH  21  23
ENDBRANCH  16  21
ENDBRANCH  15  18
ENDBRANCH  14  15
ENDBRANCH   1  14
TORSDOF 8
ENDMDL
MODEL 7
REMARK VINA RESULT:      -7.3      2.264      3.251
REMARK  Name = 
REMARK  9 active torsions:
REMARK  status: ('A' for Active; 'I' for Inactive)
REMARK    1  A    between atoms: C_1  and  C_2
REMARK    2  A    between atoms: C_2  and  O_3
REMARK    3  A    between atoms: O_3  and  C_4
REMARK    4  A    between atoms: C_4  and  C_6
REMARK    5  A    between atoms: C_8  and  C_9
REMARK    6  A    between atoms: C_9  and  O_10
REMARK    7  A    between atoms: O_10  and  C_11
REMARK    8  A    between atoms: C_14  and  N_15
REMARK    9  A    between atoms: C_18  and  C_19
REMARK                            x       y       z     vdW  Elec       q    Type
REMARK                         _______ _______ _______ _____ _____    ______ ____
ROOT
ATOM      1  C   UNL     1       2.247   5.824  18.653  0.00  0.00    +0.000 A 
ATOM      2  C   UNL     1       2.214   6.131  20.016  0.00  0.00    +0.000 A 
ATOM      3  C   UNL     1       2.213   5.118  20.973  0.00  0.00    +0.000 A 
ATOM      4  C   UNL     1       2.251   3.782  20.556  0.00  0.00    +0.000 A 
ATOM      5  C   UNL     1       2.295   3.435  19.198  0.00  0.00    +0.000 A 
ATOM      6  C   UNL     1       2.280   4.486  18.250  0.00  0.00    +0.000 A 
ENDROOT
BRANCH   5   7
ATOM      7  C   UNL     1       2.400   2.021  18.689  0.00  0.00    +0.000 C 
ATOM      8  F   UNL     1       3.574   1.390  18.931  0.00  0.00    +0.000 F 
ATOM      9  F   UNL     1       1.421   1.223  19.195  0.00  0.00    +0.000 F 
ATOM     10  F   UNL     1       2.242   1.976  17.335  0.00  0.00    +0.000 F 
ENDBRANCH   5   7
BRANCH   4  11
ATOM     11  N   UNL     1       2.227   2.774  21.600  0.00  0.00    +0.000 N 
ATOM     12  O   UNL     1       1.126   2.504  22.091  0.00  0.00    +0.000 OA
ATOM     13  O   UNL     1       3.306   2.237  21.878  0.00  0.00    +0.000 OA
ENDBRANCH   4  11
BRANCH   1  14
ATOM     14  O   UNL     1       2.260   6.918  17.837  0.00  0.00    +0.000 OA
BRANCH  14  15
ATOM     15  C   UNL     1       3.407   7.764  17.861  0.00  0.00    +0.000 C 
BRANCH  15  18
ATOM     16  C   UNL     1       6.025   5.760  16.215  0.00  0.00    +0.000 A 
ATOM     17  C   UNL     1       4.848   6.532  16.034  0.00  0.00    +0.000 A 
ATOM     18  C   UNL     1       4.518   6.967  17.296  0.00  0.00    +0.000 A 
ATOM     19  O   UNL     1       5.448   6.517  18.176  0.00  0.00    +0.000 OA
ATOM     20  N   UNL     1       6.397   5.770  17.509  0.00  0.00    +0.000 NA
BRANCH  16  21
ATOM     21  C   UNL     1       6.732   4.984  15.198  0.00  0.00    +0.000 C 
ATOM     22  O   UNL     1       7.876   4.572  15.351  0.00  0.00    +0.000 OA
BRANCH  21  23
ATOM     23  O   UNL     1       6.016   4.861  14.040  0.00  0.00    +0.000 OA
BRANCH  23  25
ATOM     24  C   UNL     1       6.961   3.930  12.054  0.00  0.00    +0.000 C 
ATOM     25  C   UNL     1       6.186   3.631  13.326  0.00  0.00    +0.000 C 
ENDBRANCH  23  25
ENDBRANCH  21  23
ENDBRANCH  16  21
ENDBRANCH  15  18
ENDBRANCH  14  15
ENDBRANCH   1  14
TORSDOF 8
ENDMDL
MODEL 8
REMARK VINA RESULT:      -7.3      1.329      1.641
REMARK  Name = 
REMARK  9 active torsions:
REMARK  status: ('A' for Active; 'I' for Inactive)
REMARK    1  A    between atoms: C_1  and  C_2
REMARK    2  A    between atoms: C_2  and  O_3
REMARK    3  A    between atoms: O_3  and  C_4
REMARK    4  A    between atoms: C_4  and  C_6
REMARK    5  A    between atoms: C_8  and  C_9
REMARK    6  A    between atoms: C_9  and  O_10
REMARK    7  A    between atoms: O_10  and  C_11
REMARK    8  A    between atoms: C_14  and  N_15
REMARK    9  A    between atoms: C_18  and  C_19
REMARK                            x       y       z     vdW  Elec       q    Type
REMARK                         _______ _______ _______ _____ _____    ______ ____
ROOT
ATOM      1  C   UNL     1       3.980   5.405  17.999  0.00  0.00    +0.000 A 
ATOM      2  C   UNL     1       3.397   6.075  19.078  0.00  0.00    +0.000 A 
ATOM      3  C   UNL     1       2.746   5.368  20.086  0.00  0.00    +0.000 A 
ATOM      4  C   UNL     1       2.686   3.971  20.014  0.00  0.00    +0.000 A 
ATOM      5  C   UNL     1       3.268   3.263  18.952  0.00  0.00    +0.000 A 
ATOM      6  C   UNL     1       3.909   4.011  17.936  0.00  0.00    +0.000 A 
ENDROOT
BRANCH   5   7
ATOM      7  C   UNL     1       3.292   1.760  18.850  0.00  0.00    +0.000 C 
ATOM      8  F   UNL     1       3.644   1.254  17.644  0.00  0.00    +0.000 F 
ATOM      9  F   UNL     1       4.131   1.200  19.763  0.00  0.00    +0.000 F 
ATOM     10  F   UNL     1       2.062   1.232  19.113  0.00  0.00    +0.000 F 
ENDBRANCH   5   7
BRANCH   4  11
ATOM     11  N   UNL     1       1.977   3.294  21.084  0.00  0.00    +0.000 N 
ATOM     12  O   UNL     1       0.750   3.204  20.971  0.00  0.00    +0.000 OA
ATOM     13  O   UNL     1       2.667   2.823  21.996  0.00  0.00    +0.000 OA
ENDBRANCH   4  11
BRANCH   1  14
ATOM     14  O   UNL     1       4.595   6.228  17.100  0.00  0.00    +0.000 OA
BRANCH  14  15
ATOM     15  C   UNL     1       6.017   6.192  17.014  0.00  0.00    +0.000 C 
BRANCH  15  18
ATOM     16  C   UNL     1       6.572   4.546  13.764  0.00  0.00    +0.000 A 
ATOM     17  C   UNL     1       5.642   4.813  14.803  0.00  0.00    +0.000 A 
ATOM     18  C   UNL     1       6.335   5.592  15.699  0.00  0.00    +0.000 A 
ATOM     19  O   UNL     1       7.587   5.809  15.222  0.00  0.00    +0.000 OA
ATOM     20  N   UNL     1       7.740   5.167  14.011  0.00  0.00    +0.000 NA
BRANCH  16  21
ATOM     21  C   UNL     1       6.372   3.672  12.610  0.00  0.00    +0.000 C 
ATOM     22  O   UNL     1       7.250   3.447  11.785  0.00  0.00    +0.000 OA
BRANCH  21  23
ATOM     23  O   UNL     1       5.084   3.224  12.507  0.00  0.00    +0.000 OA
BRANCH  23  25
ATOM     24  C   UNL     1       3.635   2.860  10.644  0.00  0.00    +0.000 C 
ATOM     25  C   UNL     1       4.260   3.904  11.554  0.00  0.00    +0.000 C 
ENDBRANCH  23  25
ENDBRANCH  21  23
ENDBRANCH  16  21
ENDBRANCH  15  18
ENDBRANCH  14  15
ENDBRANCH   1  14
TORSDOF 8
ENDMDL
MODEL 9
REMARK VINA RESULT:      -7.2      4.663      7.918
REMARK  Name = 
REMARK  9 active torsions:
REMARK  status: ('A' for Active; 'I' for Inactive)
REMARK    1  A    between atoms: C_1  and  C_2
REMARK    2  A    between atoms: C_2  and  O_3
REMARK    3  A    between atoms: O_3  and  C_4
REMARK    4  A    between atoms: C_4  and  C_6
REMARK    5  A    between atoms: C_8  and  C_9
REMARK    6  A    between atoms: C_9  and  O_10
REMARK    7  A    between atoms: O_10  and  C_11
REMARK    8  A    between atoms: C_14  and  N_15
REMARK    9  A    between atoms: C_18  and  C_19
REMARK                            x       y       z     vdW  Elec       q    Type
REMARK                         _______ _______ _______ _____ _____    ______ ____
ROOT
ATOM      1  C   UNL     1       3.376   6.203  18.651  0.00  0.00    +0.000 A 
ATOM      2  C   UNL     1       4.563   5.595  18.235  0.00  0.00    +0.000 A 
ATOM      3  C   UNL     1       4.804   4.249  18.502  0.00  0.00    +0.000 A 
ATOM      4  C   UNL     1       3.838   3.504  19.189  0.00  0.00    +0.000 A 
ATOM      5  C   UNL     1       2.630   4.077  19.613  0.00  0.00    +0.000 A 
ATOM      6  C   UNL     1       2.422   5.450  19.339  0.00  0.00    +0.000 A 
ENDROOT
BRANCH   5   7
ATOM      7  C   UNL     1       1.527   3.314  20.299  0.00  0.00    +0.000 C 
ATOM      8  F   UNL     1       1.885   2.622  21.407  0.00  0.00    +0.000 F 
ATOM      9  F   UNL     1       0.499   4.127  20.667  0.00  0.00    +0.000 F 
ATOM     10  F   UNL     1       0.977   2.389  19.461  0.00  0.00    +0.000 F 
ENDBRANCH   5   7
BRANCH   4  11
ATOM     11  N   UNL     1       4.157   2.113  19.455  0.00  0.00    +0.000 N 
ATOM     12  O   UNL     1       4.813   1.875  20.474  0.00  0.00    +0.000 OA
ATOM     13  O   UNL     1       3.703   1.279  18.661  0.00  0.00    +0.000 OA
ENDBRANCH   4  11
BRANCH   1  14
ATOM     14  O   UNL     1       3.275   7.520  18.304  0.00  0.00    +0.000 OA
BRANCH  14  15
ATOM     15  C   UNL     1       2.036   7.985  17.774  0.00  0.00    +0.000 C 
BRANCH  15  18
ATOM     16  C   UNL     1       0.973  10.756  19.958  0.00  0.00    +0.000 A 
ATOM     17  C   UNL     1       1.126   9.350  19.833  0.00  0.00    +0.000 A 
ATOM     18  C   UNL     1       1.662   9.168  18.580  0.00  0.00    +0.000 A 
ATOM     19  O   UNL     1       1.852  10.380  17.999  0.00  0.00    +0.000 OA
ATOM     20  N   UNL     1       1.432  11.377  18.856  0.00  0.00    +0.000 NA
BRANCH  16  21
ATOM     21  C   UNL     1       0.347  11.476  21.066  0.00  0.00    +0.000 C 
ATOM     22  O   UNL     1       0.868  12.443  21.610  0.00  0.00    +0.000 OA
BRANCH  21  23
ATOM     23  O   UNL     1      -0.818  10.892  21.479  0.00  0.00    +0.000 OA
BRANCH  23  25
ATOM     24  C   UNL     1      -0.204   9.527  23.341  0.00  0.00    +0.000 C 
ATOM     25  C   UNL     1      -0.980  10.755  22.895  0.00  0.00    +0.000 C 
ENDBRANCH  23  25
ENDBRANCH  21  23
ENDBRANCH  16  21
ENDBRANCH  15  18
ENDBRANCH  14  15
ENDBRANCH   1  14
TORSDOF 8
ENDMDL
