MODEL 1
REMARK VINA RESULT:      -7.3      0.000      0.000
REMARK  Name = 
REMARK  15 active torsions:
REMARK  status: ('A' for Active; 'I' for Inactive)
REMARK    1  A    between atoms: C_1  and  O_2
REMARK    2  A    between atoms: O_2  and  C_3
REMARK    3  A    between atoms: C_3  and  C_5
REMARK    4  A    between atoms: C_5  and  C_6
REMARK    5  A    between atoms: C_5  and  N_16
REMARK    6  A    between atoms: C_6  and  C_7
REMARK    7  A    between atoms: C_17  and  C_19
REMARK    8  A    between atoms: C_19  and  O_20
REMARK    9  A    between atoms: C_19  and  C_21
REMARK   10  A    between atoms: C_21  and  N_22
REMARK   11  A    between atoms: C_21  and  C_23
REMARK   12  A    between atoms: C_23  and  C_24
REMARK   13  A    between atoms: C_24  and  C_25
REMARK   14  A    between atoms: C_25  and  C_26
REMARK   15  A    between atoms: C_26  and  N_27
REMARK                            x       y       z     vdW  Elec       q    Type
REMARK                         _______ _______ _______ _____ _____    ______ ____
ROOT
ATOM      1  N   UNL     1       4.304   4.248  17.646  0.00  0.00    +0.000 N 
ATOM      2  C   UNL     1       5.576   4.615  17.969  0.00  0.00    +0.000 C 
ATOM      3  O   UNL     1       5.811   5.281  18.969  0.00  0.00    +0.000 OA
ATOM      4  H   UNL     1       4.139   3.691  16.801  0.00  0.00    +0.000 HD
ENDROOT
BRANCH   1   5
ATOM      5  C   UNL     1       3.143   4.643  18.421  0.00  0.00    +0.000 C 
BRANCH   5   6
ATOM      6  C   UNL     1       2.001   3.658  18.152  0.00  0.00    +0.000 C 
ATOM      7  O   UNL     1       1.199   3.834  17.249  0.00  0.00    +0.000 OA
BRANCH   6   9
ATOM      8  C   UNL     1       1.717   2.567  20.378  0.00  0.00    +0.000 C 
ATOM      9  O   UNL     1       1.887   2.578  18.997  0.00  0.00    +0.000 OA
ENDBRANCH   6   9
ENDBRANCH   5   6
BRANCH   5  10
ATOM     10  C   UNL     1       2.952   6.217  18.334  0.00  0.00    +0.000 C 
BRANCH  10  11
ATOM     11  C   UNL     1       2.188   7.127  19.325  0.00  0.00    +0.000 A 
ATOM     12  C   UNL     1       1.894   6.844  20.663  0.00  0.00    +0.000 A 
ATOM     13  N   UNL     1       1.352   7.917  21.281  0.00  0.00    +0.000 N 
ATOM     14  C   UNL     1       1.277   8.900  20.370  0.00  0.00    +0.000 A 
ATOM     15  C   UNL     1       0.808  10.203  20.595  0.00  0.00    +0.000 A 
ATOM     16  C   UNL     1       0.833  11.100  19.523  0.00  0.00    +0.000 A 
ATOM     17  C   UNL     1       1.328  10.691  18.271  0.00  0.00    +0.000 A 
ATOM     18  C   UNL     1       1.800   9.371  18.077  0.00  0.00    +0.000 A 
ATOM     19  C   UNL     1       1.766   8.472  19.154  0.00  0.00    +0.000 A 
ATOM     20  H   UNL     1       1.069   7.988  22.281  0.00  0.00    +0.000 HD
ENDBRANCH  10  11
ENDBRANCH   5  10
ENDBRANCH   1   5
BRANCH   2  21
ATOM     21  C   UNL     1       6.739   4.269  17.028  0.00  0.00    +0.000 C 
BRANCH  21  22
ATOM     22  O   UNL     1       7.960   4.096  17.722  0.00  0.00    +0.000 OA
ATOM     23  H   UNL     1       8.713   4.510  17.220  0.00  0.00    +0.000 HD
ENDBRANCH  21  22
BRANCH  21  24
ATOM     24  C   UNL     1       6.865   5.387  15.963  0.00  0.00    +0.000 C 
BRANCH  24  25
ATOM     25  N   UNL     1       5.696   6.265  16.016  0.00  0.00    +0.000 NA
ATOM     26  H   UNL     1       5.916   7.142  16.525  0.00  0.00    +0.000 HD
ATOM     27  H   UNL     1       4.896   5.762  16.458  0.00  0.00    +0.000 HD
ENDBRANCH  24  25
BRANCH  24  28
ATOM     28  C   UNL     1       7.149   4.923  14.500  0.00  0.00    +0.000 C 
BRANCH  28  29
ATOM     29  C   UNL     1       6.153   3.998  13.742  0.00  0.00    +0.000 C 
BRANCH  29  30
ATOM     30  C   UNL     1       6.377   3.460  12.292  0.00  0.00    +0.000 C 
BRANCH  30  31
ATOM     31  C   UNL     1       5.473   2.351  11.694  0.00  0.00    +0.000 C 
BRANCH  31  32
ATOM     32  N   UNL     1       6.202   1.165  11.259  0.00  0.00    +0.000 NA
ATOM     33  H   UNL     1       6.901   0.920  11.998  0.00  0.00    +0.000 HD
ATOM     34  H   UNL     1       6.768   1.440  10.420  0.00  0.00    +0.000 HD
ENDBRANCH  31  32
ENDBRANCH  30  31
ENDBRANCH  29  30
ENDBRANCH  28  29
ENDBRANCH  24  28
ENDBRANCH  21  24
ENDBRANCH   2  21
TORSDOF 14
ENDMDL
MODEL 2
REMARK VINA RESULT:      -7.2      0.973      1.176
REMARK  Name = 
REMARK  15 active torsions:
REMARK  status: ('A' for Active; 'I' for Inactive)
REMARK    1  A    between atoms: C_1  and  O_2
REMARK    2  A    between atoms: O_2  and  C_3
REMARK    3  A    between atoms: C_3  and  C_5
REMARK    4  A    between atoms: C_5  and  C_6
REMARK    5  A    between atoms: C_5  and  N_16
REMARK    6  A    between atoms: C_6  and  C_7
REMARK    7  A    between atoms: C_17  and  C_19
REMARK    8  A    between atoms: C_19  and  O_20
REMARK    9  A    between atoms: C_19  and  C_21
REMARK   10  A    between atoms: C_21  and  N_22
REMARK   11  A    between atoms: C_21  and  C_23
REMARK   12  A    between atoms: C_23  and  C_24
REMARK   13  A    between atoms: C_24  and  C_25
REMARK   14  A    between atoms: C_25  and  C_26
REMARK   15  A    between atoms: C_26  and  N_27
REMARK                            x       y       z     vdW  Elec       q    Type
REMARK                         _______ _______ _______ _____ _____    ______ ____
ROOT
ATOM      1  N   UNL     1       4.640   4.797  18.341  0.00  0.00    +0.000 N 
ATOM      2  C   UNL     1       5.993   4.802  18.508  0.00  0.00    +0.000 C 
ATOM      3  O   UNL     1       6.503   5.190  19.551  0.00  0.00    +0.000 OA
ATOM      4  H   UNL     1       4.243   4.467  17.455  0.00  0.00    +0.000 HD
ENDROOT
BRANCH   1   5
ATOM      5  C   UNL     1       3.715   5.281  19.348  0.00  0.00    +0.000 C 
BRANCH   5   6
ATOM      6  C   UNL     1       2.848   4.115  19.836  0.00  0.00    +0.000 C 
ATOM      7  O   UNL     1       2.594   3.954  21.018  0.00  0.00    +0.000 OA
BRANCH   6   9
ATOM      8  C   UNL     1       1.302   2.368  18.950  0.00  0.00    +0.000 C 
ATOM      9  O   UNL     1       2.396   3.225  18.888  0.00  0.00    +0.000 OA
ENDBRANCH   6   9
ENDBRANCH   5   6
BRANCH   5  10
ATOM     10  C   UNL     1       3.098   6.669  18.885  0.00  0.00    +0.000 C 
BRANCH  10  11
ATOM     11  C   UNL     1       2.075   7.544  19.649  0.00  0.00    +0.000 A 
ATOM     12  C   UNL     1       1.545   7.294  20.918  0.00  0.00    +0.000 A 
ATOM     13  N   UNL     1       0.800   8.336  21.349  0.00  0.00    +0.000 N 
ATOM     14  C   UNL     1       0.824   9.265  20.382  0.00  0.00    +0.000 A 
ATOM     15  C   UNL     1       0.210  10.525  20.429  0.00  0.00    +0.000 A 
ATOM     16  C   UNL     1       0.372  11.372  19.328  0.00  0.00    +0.000 A 
ATOM     17  C   UNL     1       1.140  10.957  18.225  0.00  0.00    +0.000 A 
ATOM     18  C   UNL     1       1.754   9.682  18.210  0.00  0.00    +0.000 A 
ATOM     19  C   UNL     1       1.582   8.832  19.313  0.00  0.00    +0.000 A 
ATOM     20  H   UNL     1       0.318   8.424  22.269  0.00  0.00    +0.000 HD
ENDBRANCH  10  11
ENDBRANCH   5  10
ENDBRANCH   1   5
BRANCH   2  21
ATOM     21  C   UNL     1       6.913   4.397  17.347  0.00  0.00    +0.000 C 
BRANCH  21  22
ATOM     22  O   UNL     1       8.231   4.117  17.777  0.00  0.00    +0.000 OA
ATOM     23  H   UNL     1       8.223   3.639  18.651  0.00  0.00    +0.000 HD
ENDBRANCH  21  22
BRANCH  21  24
ATOM     24  C   UNL     1       6.907   5.530  16.292  0.00  0.00    +0.000 C 
BRANCH  24  25
ATOM     25  N   UNL     1       6.841   6.833  16.953  0.00  0.00    +0.000 NA
ATOM     26  H   UNL     1       5.998   7.358  16.653  0.00  0.00    +0.000 HD
ATOM     27  H   UNL     1       7.711   7.374  16.757  0.00  0.00    +0.000 HD
ENDBRANCH  24  25
BRANCH  24  28
ATOM     28  C   UNL     1       5.834   5.422  15.163  0.00  0.00    +0.000 C 
BRANCH  28  29
ATOM     29  C   UNL     1       5.613   4.090  14.388  0.00  0.00    +0.000 C 
BRANCH  29  30
ATOM     30  C   UNL     1       6.258   3.756  13.005  0.00  0.00    +0.000 C 
BRANCH  30  31
ATOM     31  C   UNL     1       5.487   2.947  11.930  0.00  0.00    +0.000 C 
BRANCH  31  32
ATOM     32  N   UNL     1       6.103   1.667  11.598  0.00  0.00    +0.000 NA
ATOM     33  H   UNL     1       7.087   1.846  11.291  0.00  0.00    +0.000 HD
ATOM     34  H   UNL     1       5.610   1.297  10.749  0.00  0.00    +0.000 HD
ENDBRANCH  31  32
ENDBRANCH  30  31
ENDBRANCH  29  30
ENDBRANCH  28  29
ENDBRANCH  24  28
ENDBRANCH  21  24
ENDBRANCH   2  21
TORSDOF 14
ENDMDL
MODEL 3
REMARK VINA RESULT:      -7.1      1.256      1.534
REMARK  Name = 
REMARK  15 active torsions:
REMARK  status: ('A' for Active; 'I' for Inactive)
REMARK    1  A    between atoms: C_1  and  O_2
REMARK    2  A    between atoms: O_2  and  C_3
REMARK    3  A    between atoms: C_3  and  C_5
REMARK    4  A    between atoms: C_5  and  C_6
REMARK    5  A    between atoms: C_5  and  N_16
REMARK    6  A    between atoms: C_6  and  C_7
REMARK    7  A    between atoms: C_17  and  C_19
REMARK    8  A    between atoms: C_19  and  O_20
REMARK    9  A    between atoms: C_19  and  C_21
REMARK   10  A    between atoms: C_21  and  N_22
REMARK   11  A    between atoms: C_21  and  C_23
REMARK   12  A    between atoms: C_23  and  C_24
REMARK   13  A    between atoms: C_24  and  C_25
REMARK   14  A    between atoms: C_25  and  C_26
REMARK   15  A    between atoms: C_26  and  N_27
REMARK                            x       y       z     vdW  Elec       q    Type
REMARK                         _______ _______ _______ _____ _____    ______ ____
ROOT
ATOM      1  N   UNL     1       5.641   4.574  18.459  0.00  0.00    +0.000 N 
ATOM      2  C   UNL     1       5.630   4.215  17.144  0.00  0.00    +0.000 C 
ATOM      3  O   UNL     1       4.594   3.880  16.586  0.00  0.00    +0.000 OA
ATOM      4  H   UNL     1       6.526   4.849  18.899  0.00  0.00    +0.000 HD
ENDROOT
BRANCH   1   5
ATOM      5  C   UNL     1       4.458   4.548  19.298  0.00  0.00    +0.000 C 
BRANCH   5   6
ATOM      6  C   UNL     1       4.174   3.103  19.720  0.00  0.00    +0.000 C 
ATOM      7  O   UNL     1       5.046   2.384  20.181  0.00  0.00    +0.000 OA
BRANCH   6   9
ATOM      8  C   UNL     1       2.261   2.314  18.324  0.00  0.00    +0.000 C 
ATOM      9  O   UNL     1       2.898   2.627  19.522  0.00  0.00    +0.000 OA
ENDBRANCH   6   9
ENDBRANCH   5   6
BRANCH   5  10
ATOM     10  C   UNL     1       3.342   5.493  18.679  0.00  0.00    +0.000 C 
BRANCH  10  11
ATOM     11  C   UNL     1       2.448   6.509  19.431  0.00  0.00    +0.000 A 
ATOM     12  C   UNL     1       1.933   6.372  20.723  0.00  0.00    +0.000 A 
ATOM     13  N   UNL     1       1.324   7.508  21.129  0.00  0.00    +0.000 N 
ATOM     14  C   UNL     1       1.423   8.389  20.122  0.00  0.00    +0.000 A 
ATOM     15  C   UNL     1       0.958   9.712  20.131  0.00  0.00    +0.000 A 
ATOM     16  C   UNL     1       1.180  10.491  18.991  0.00  0.00    +0.000 A 
ATOM     17  C   UNL     1       1.863   9.948  17.887  0.00  0.00    +0.000 A 
ATOM     18  C   UNL     1       2.327   8.611  17.911  0.00  0.00    +0.000 A 
ATOM     19  C   UNL     1       2.094   7.831  19.054  0.00  0.00    +0.000 A 
ATOM     20  H   UNL     1       0.882   7.686  22.055  0.00  0.00    +0.000 HD
ENDBRANCH  10  11
ENDBRANCH   5  10
ENDBRANCH   1   5
BRANCH   2  21
ATOM     21  C   UNL     1       6.946   4.141  16.356  0.00  0.00    +0.000 C 
BRANCH  21  22
ATOM     22  O   UNL     1       8.081   4.194  17.200  0.00  0.00    +0.000 OA
ATOM     23  H   UNL     1       8.078   3.435  17.844  0.00  0.00    +0.000 HD
ENDBRANCH  21  22
BRANCH  21  24
ATOM     24  C   UNL     1       6.972   5.296  15.325  0.00  0.00    +0.000 C 
BRANCH  24  25
ATOM     25  N   UNL     1       5.917   6.262  15.625  0.00  0.00    +0.000 NA
ATOM     26  H   UNL     1       5.213   6.290  14.864  0.00  0.00    +0.000 HD
ATOM     27  H   UNL     1       6.336   7.205  15.786  0.00  0.00    +0.000 HD
ENDBRANCH  24  25
BRANCH  24  28
ATOM     28  C   UNL     1       6.940   4.883  13.820  0.00  0.00    +0.000 C 
BRANCH  28  29
ATOM     29  C   UNL     1       6.298   3.539  13.368  0.00  0.00    +0.000 C 
BRANCH  29  30
ATOM     30  C   UNL     1       5.266   3.401  12.203  0.00  0.00    +0.000 C 
BRANCH  30  31
ATOM     31  C   UNL     1       5.290   2.183  11.244  0.00  0.00    +0.000 C 
BRANCH  31  32
ATOM     32  N   UNL     1       6.468   1.335  11.394  0.00  0.00    +0.000 NA
ATOM     33  H   UNL     1       6.378   0.804  12.291  0.00  0.00    +0.000 HD
ATOM     34  H   UNL     1       7.292   1.971  11.528  0.00  0.00    +0.000 HD
ENDBRANCH  31  32
ENDBRANCH  30  31
ENDBRANCH  29  30
ENDBRANCH  28  29
ENDBRANCH  24  28
ENDBRANCH  21  24
ENDBRANCH   2  21
TORSDOF 14
ENDMDL
MODEL 4
REMARK VINA RESULT:      -7.0      2.479      4.158
REMARK  Name = 
REMARK  15 active torsions:
REMARK  status: ('A' for Active; 'I' for Inactive)
REMARK    1  A    between atoms: C_1  and  O_2
REMARK    2  A    between atoms: O_2  and  C_3
REMARK    3  A    between atoms: C_3  and  C_5
REMARK    4  A    between atoms: C_5  and  C_6
REMARK    5  A    between atoms: C_5  and  N_16
REMARK    6  A    between atoms: C_6  and  C_7
REMARK    7  A    between atoms: C_17  and  C_19
REMARK    8  A    between atoms: C_19  and  O_20
REMARK    9  A    between atoms: C_19  and  C_21
REMARK   10  A    between atoms: C_21  and  N_22
REMARK   11  A    between atoms: C_21  and  C_23
REMARK   12  A    between atoms: C_23  and  C_24
REMARK   13  A    between atoms: C_24  and  C_25
REMARK   14  A    between atoms: C_25  and  C_26
REMARK   15  A    between atoms: C_26  and  N_27
REMARK                            x       y       z     vdW  Elec       q    Type
REMARK                         _______ _______ _______ _____ _____    ______ ____
ROOT
ATOM      1  N   UNL     1       4.076   4.919  17.861  0.00  0.00    +0.000 N 
ATOM      2  C   UNL     1       5.300   4.909  18.462  0.00  0.00    +0.000 C 
ATOM      3  O   UNL     1       5.416   5.087  19.667  0.00  0.00    +0.000 OA
ATOM      4  H   UNL     1       4.011   4.769  16.848  0.00  0.00    +0.000 HD
ENDROOT
BRANCH   1   5
ATOM      5  C   UNL     1       2.842   5.179  18.578  0.00  0.00    +0.000 C 
BRANCH   5   6
ATOM      6  C   UNL     1       1.842   4.057  18.277  0.00  0.00    +0.000 C 
ATOM      7  O   UNL     1       1.800   3.507  17.188  0.00  0.00    +0.000 OA
BRANCH   6   9
ATOM      8  C   UNL     1       1.184   3.630  20.646  0.00  0.00    +0.000 C 
ATOM      9  O   UNL     1       0.958   3.715  19.276  0.00  0.00    +0.000 OA
ENDBRANCH   6   9
ENDBRANCH   5   6
BRANCH   5  10
ATOM     10  C   UNL     1       2.464   6.716  18.455  0.00  0.00    +0.000 C 
BRANCH  10  11
ATOM     11  C   UNL     1       1.852   7.623  19.550  0.00  0.00    +0.000 A 
ATOM     12  C   UNL     1       1.736   7.328  20.911  0.00  0.00    +0.000 A 
ATOM     13  N   UNL     1       1.297   8.399  21.607  0.00  0.00    +0.000 N 
ATOM     14  C   UNL     1       1.114   9.394  20.726  0.00  0.00    +0.000 A 
ATOM     15  C   UNL     1       0.698  10.700  21.025  0.00  0.00    +0.000 A 
ATOM     16  C   UNL     1       0.592  11.610  19.969  0.00  0.00    +0.000 A 
ATOM     17  C   UNL     1       0.909  11.210  18.658  0.00  0.00    +0.000 A 
ATOM     18  C   UNL     1       1.332   9.887  18.388  0.00  0.00    +0.000 A 
ATOM     19  C   UNL     1       1.429   8.975  19.450  0.00  0.00    +0.000 A 
ATOM     20  H   UNL     1       1.151   8.461  22.637  0.00  0.00    +0.000 HD
ENDBRANCH  10  11
ENDBRANCH   5  10
ENDBRANCH   1   5
BRANCH   2  21
ATOM     21  C   UNL     1       6.571   4.759  17.614  0.00  0.00    +0.000 C 
BRANCH  21  22
ATOM     22  O   UNL     1       7.641   4.191  18.346  0.00  0.00    +0.000 OA
ATOM     23  H   UNL     1       7.718   3.217  18.159  0.00  0.00    +0.000 HD
ENDBRANCH  21  22
BRANCH  21  24
ATOM     24  C   UNL     1       6.962   6.150  17.057  0.00  0.00    +0.000 C 
BRANCH  24  25
ATOM     25  N   UNL     1       7.604   6.005  15.751  0.00  0.00    +0.000 NA
ATOM     26  H   UNL     1       7.714   6.927  15.288  0.00  0.00    +0.000 HD
ATOM     27  H   UNL     1       7.053   5.348  15.157  0.00  0.00    +0.000 HD
ENDBRANCH  24  25
BRANCH  24  28
ATOM     28  C   UNL     1       7.810   7.062  17.998  0.00  0.00    +0.000 C 
BRANCH  28  29
ATOM     29  C   UNL     1       7.925   8.593  17.744  0.00  0.00    +0.000 C 
BRANCH  29  30
ATOM     30  C   UNL     1       8.778   9.570  18.615  0.00  0.00    +0.000 C 
BRANCH  30  31
ATOM     31  C   UNL     1       9.134  10.995  18.116  0.00  0.00    +0.000 C 
BRANCH  31  32
ATOM     32  N   UNL     1      10.392  11.510  18.646  0.00  0.00    +0.000 NA
ATOM     33  H   UNL     1      10.502  11.163  19.627  0.00  0.00    +0.000 HD
ATOM     34  H   UNL     1      10.290  12.551  18.729  0.00  0.00    +0.000 HD
ENDBRANCH  31  32
ENDBRANCH  30  31
ENDBRANCH  29  30
ENDBRANCH  28  29
ENDBRANCH  24  28
ENDBRANCH  21  24
ENDBRANCH   2  21
TORSDOF 14
ENDMDL
MODEL 5
REMARK VINA RESULT:      -7.0      1.472      1.923
REMARK  Name = 
REMARK  15 active torsions:
REMARK  status: ('A' for Active; 'I' for Inactive)
REMARK    1  A    between atoms: C_1  and  O_2
REMARK    2  A    between atoms: O_2  and  C_3
REMARK    3  A    between atoms: C_3  and  C_5
REMARK    4  A    between atoms: C_5  and  C_6
REMARK    5  A    between atoms: C_5  and  N_16
REMARK    6  A    between atoms: C_6  and  C_7
REMARK    7  A    between atoms: C_17  and  C_19
REMARK    8  A    between atoms: C_19  and  O_20
REMARK    9  A    between atoms: C_19  and  C_21
REMARK   10  A    between atoms: C_21  and  N_22
REMARK   11  A    between atoms: C_21  and  C_23
REMARK   12  A    between atoms: C_23  and  C_24
REMARK   13  A    between atoms: C_24  and  C_25
REMARK   14  A    between atoms: C_25  and  C_26
REMARK   15  A    between atoms: C_26  and  N_27
REMARK                            x       y       z     vdW  Elec       q    Type
REMARK                         _______ _______ _______ _____ _____    ______ ____
ROOT
ATOM      1  N   UNL     1       4.704   5.580  18.197  0.00  0.00    +0.000 N 
ATOM      2  C   UNL     1       5.955   5.092  18.431  0.00  0.00    +0.000 C 
ATOM      3  O   UNL     1       6.141   4.172  19.217  0.00  0.00    +0.000 OA
ATOM      4  H   UNL     1       4.581   6.353  17.534  0.00  0.00    +0.000 HD
ENDROOT
BRANCH   1   5
ATOM      5  C   UNL     1       3.521   5.090  18.878  0.00  0.00    +0.000 C 
BRANCH   5   6
ATOM      6  C   UNL     1       2.694   4.246  17.902  0.00  0.00    +0.000 C 
ATOM      7  O   UNL     1       1.568   4.573  17.562  0.00  0.00    +0.000 OA
BRANCH   6   9
ATOM      8  C   UNL     1       3.235   1.814  18.037  0.00  0.00    +0.000 C 
ATOM      9  O   UNL     1       3.257   3.074  17.448  0.00  0.00    +0.000 OA
ENDBRANCH   6   9
ENDBRANCH   5   6
BRANCH   5  10
ATOM     10  C   UNL     1       2.885   6.253  19.752  0.00  0.00    +0.000 C 
BRANCH  10  11
ATOM     11  C   UNL     1       2.315   7.602  19.250  0.00  0.00    +0.000 A 
ATOM     12  C   UNL     1       2.441   8.134  17.963  0.00  0.00    +0.000 A 
ATOM     13  N   UNL     1       1.695   9.252  17.823  0.00  0.00    +0.000 N 
ATOM     14  C   UNL     1       1.085   9.469  18.998  0.00  0.00    +0.000 A 
ATOM     15  C   UNL     1       0.185  10.506  19.285  0.00  0.00    +0.000 A 
ATOM     16  C   UNL     1      -0.372  10.552  20.566  0.00  0.00    +0.000 A 
ATOM     17  C   UNL     1      -0.035   9.572  21.518  0.00  0.00    +0.000 A 
ATOM     18  C   UNL     1       0.871   8.534  21.196  0.00  0.00    +0.000 A 
ATOM     19  C   UNL     1       1.434   8.497  19.912  0.00  0.00    +0.000 A 
ATOM     20  H   UNL     1       1.584   9.828  16.961  0.00  0.00    +0.000 HD
ENDBRANCH  10  11
ENDBRANCH   5  10
ENDBRANCH   1   5
BRANCH   2  21
ATOM     21  C   UNL     1       7.174   5.751  17.771  0.00  0.00    +0.000 C 
BRANCH  21  22
ATOM     22  O   UNL     1       7.343   7.096  18.176  0.00  0.00    +0.000 OA
ATOM     23  H   UNL     1       6.505   7.615  18.035  0.00  0.00    +0.000 HD
ENDBRANCH  21  22
BRANCH  21  24
ATOM     24  C   UNL     1       7.017   5.655  16.233  0.00  0.00    +0.000 C 
BRANCH  24  25
ATOM     25  N   UNL     1       5.980   6.578  15.774  0.00  0.00    +0.000 NA
ATOM     26  H   UNL     1       6.400   7.433  15.364  0.00  0.00    +0.000 HD
ATOM     27  H   UNL     1       5.342   6.813  16.566  0.00  0.00    +0.000 HD
ENDBRANCH  24  25
BRANCH  24  28
ATOM     28  C   UNL     1       6.793   4.226  15.646  0.00  0.00    +0.000 C 
BRANCH  28  29
ATOM     29  C   UNL     1       5.514   3.885  14.826  0.00  0.00    +0.000 C 
BRANCH  29  30
ATOM     30  C   UNL     1       5.390   4.047  13.277  0.00  0.00    +0.000 C 
BRANCH  30  31
ATOM     31  C   UNL     1       6.412   3.390  12.313  0.00  0.00    +0.000 C 
BRANCH  31  32
ATOM     32  N   UNL     1       5.981   2.101  11.785  0.00  0.00    +0.000 NA
ATOM     33  H   UNL     1       5.396   2.273  10.935  0.00  0.00    +0.000 HD
ATOM     34  H   UNL     1       5.329   1.679  12.490  0.00  0.00    +0.000 HD
ENDBRANCH  31  32
ENDBRANCH  30  31
ENDBRANCH  29  30
ENDBRANCH  28  29
ENDBRANCH  24  28
ENDBRANCH  21  24
ENDBRANCH   2  21
TORSDOF 14
ENDMDL
MODEL 6
REMARK VINA RESULT:      -7.0      1.390      2.033
REMARK  Name = 
REMARK  15 active torsions:
REMARK  status: ('A' for Active; 'I' for Inactive)
REMARK    1  A    between atoms: C_1  and  O_2
REMARK    2  A    between atoms: O_2  and  C_3
REMARK    3  A    between atoms: C_3  and  C_5
REMARK    4  A    between atoms: C_5  and  C_6
REMARK    5  A    between atoms: C_5  and  N_16
REMARK    6  A    between atoms: C_6  and  C_7
REMARK    7  A    between atoms: C_17  and  C_19
REMARK    8  A    between atoms: C_19  and  O_20
REMARK    9  A    between atoms: C_19  and  C_21
REMARK   10  A    between atoms: C_21  and  N_22
REMARK   11  A    between atoms: C_21  and  C_23
REMARK   12  A    between atoms: C_23  and  C_24
REMARK   13  A    between atoms: C_24  and  C_25
REMARK   14  A    between atoms: C_25  and  C_26
REMARK   15  A    between atoms: C_26  and  N_27
REMARK                            x       y       z     vdW  Elec       q    Type
REMARK                         _______ _______ _______ _____ _____    ______ ____
ROOT
ATOM      1  N   UNL     1       4.698   5.440  18.599  0.00  0.00    +0.000 N 
ATOM      2  C   UNL     1       4.886   4.671  17.489  0.00  0.00    +0.000 C 
ATOM      3  O   UNL     1       3.939   4.201  16.874  0.00  0.00    +0.000 OA
ATOM      4  H   UNL     1       5.512   5.819  19.094  0.00  0.00    +0.000 HD
ENDROOT
BRANCH   1   5
ATOM      5  C   UNL     1       3.388   5.723  19.154  0.00  0.00    +0.000 C 
BRANCH   5   6
ATOM      6  C   UNL     1       2.781   4.424  19.695  0.00  0.00    +0.000 C 
ATOM      7  O   UNL     1       3.422   3.658  20.397  0.00  0.00    +0.000 OA
BRANCH   6   9
ATOM      8  C   UNL     1       0.697   3.052  19.712  0.00  0.00    +0.000 C 
ATOM      9  O   UNL     1       1.489   4.129  19.326  0.00  0.00    +0.000 OA
ENDBRANCH   6   9
ENDBRANCH   5   6
BRANCH   5  10
ATOM     10  C   UNL     1       2.594   6.698  18.185  0.00  0.00    +0.000 C 
BRANCH  10  11
ATOM     11  C   UNL     1       2.080   8.124  18.500  0.00  0.00    +0.000 A 
ATOM     12  C   UNL     1       1.955   9.185  17.599  0.00  0.00    +0.000 A 
ATOM     13  N   UNL     1       1.331  10.239  18.170  0.00  0.00    +0.000 N 
ATOM     14  C   UNL     1       1.048   9.892  19.435  0.00  0.00    +0.000 A 
ATOM     15  C   UNL     1       0.368  10.678  20.377  0.00  0.00    +0.000 A 
ATOM     16  C   UNL     1       0.142  10.130  21.643  0.00  0.00    +0.000 A 
ATOM     17  C   UNL     1       0.580   8.825  21.937  0.00  0.00    +0.000 A 
ATOM     18  C   UNL     1       1.258   8.055  20.963  0.00  0.00    +0.000 A 
ATOM     19  C   UNL     1       1.491   8.612  19.696  0.00  0.00    +0.000 A 
ATOM     20  H   UNL     1       1.085  11.144  17.716  0.00  0.00    +0.000 HD
ENDBRANCH  10  11
ENDBRANCH   5  10
ENDBRANCH   1   5
BRANCH   2  21
ATOM     21  C   UNL     1       6.308   4.307  17.039  0.00  0.00    +0.000 C 
BRANCH  21  22
ATOM     22  O   UNL     1       7.227   4.297  18.115  0.00  0.00    +0.000 OA
ATOM     23  H   UNL     1       7.994   4.905  17.929  0.00  0.00    +0.000 HD
ENDBRANCH  21  22
BRANCH  21  24
ATOM     24  C   UNL     1       6.753   5.308  15.944  0.00  0.00    +0.000 C 
BRANCH  24  25
ATOM     25  N   UNL     1       5.908   6.501  15.980  0.00  0.00    +0.000 NA
ATOM     26  H   UNL     1       6.034   7.017  16.871  0.00  0.00    +0.000 HD
ATOM     27  H   UNL     1       4.910   6.232  15.838  0.00  0.00    +0.000 HD
ENDBRANCH  24  25
BRANCH  24  28
ATOM     28  C   UNL     1       6.863   4.746  14.492  0.00  0.00    +0.000 C 
BRANCH  28  29
ATOM     29  C   UNL     1       5.647   4.063  13.800  0.00  0.00    +0.000 C 
BRANCH  29  30
ATOM     30  C   UNL     1       5.712   3.338  12.417  0.00  0.00    +0.000 C 
BRANCH  30  31
ATOM     31  C   UNL     1       7.067   3.053  11.718  0.00  0.00    +0.000 C 
BRANCH  31  32
ATOM     32  N   UNL     1       7.195   1.690  11.213  0.00  0.00    +0.000 NA
ATOM     33  H   UNL     1       8.171   1.362  11.400  0.00  0.00    +0.000 HD
ATOM     34  H   UNL     1       7.114   1.739  10.168  0.00  0.00    +0.000 HD
ENDBRANCH  31  32
ENDBRANCH  30  31
ENDBRANCH  29  30
ENDBRANCH  28  29
ENDBRANCH  24  28
ENDBRANCH  21  24
ENDBRANCH   2  21
TORSDOF 14
ENDMDL
MODEL 7
REMARK VINA RESULT:      -6.9      1.504      1.988
REMARK  Name = 
REMARK  15 active torsions:
REMARK  status: ('A' for Active; 'I' for Inactive)
REMARK    1  A    between atoms: C_1  and  O_2
REMARK    2  A    between atoms: O_2  and  C_3
REMARK    3  A    between atoms: C_3  and  C_5
REMARK    4  A    between atoms: C_5  and  C_6
REMARK    5  A    between atoms: C_5  and  N_16
REMARK    6  A    between atoms: C_6  and  C_7
REMARK    7  A    between atoms: C_17  and  C_19
REMARK    8  A    between atoms: C_19  and  O_20
REMARK    9  A    between atoms: C_19  and  C_21
REMARK   10  A    between atoms: C_21  and  N_22
REMARK   11  A    between atoms: C_21  and  C_23
REMARK   12  A    between atoms: C_23  and  C_24
REMARK   13  A    between atoms: C_24  and  C_25
REMARK   14  A    between atoms: C_25  and  C_26
REMARK   15  A    between atoms: C_26  and  N_27
REMARK                            x       y       z     vdW  Elec       q    Type
REMARK                         _______ _______ _______ _____ _____    ______ ____
ROOT
ATOM      1  N   UNL     1       4.417   5.162  17.801  0.00  0.00    +0.000 N 
ATOM      2  C   UNL     1       5.763   5.033  17.624  0.00  0.00    +0.000 C 
ATOM      3  O   UNL     1       6.437   4.338  18.372  0.00  0.00    +0.000 OA
ATOM      4  H   UNL     1       3.879   5.753  17.158  0.00  0.00    +0.000 HD
ENDROOT
BRANCH   1   5
ATOM      5  C   UNL     1       3.696   4.534  18.892  0.00  0.00    +0.000 C 
BRANCH   5   6
ATOM      6  C   UNL     1       3.005   3.269  18.373  0.00  0.00    +0.000 C 
ATOM      7  O   UNL     1       3.639   2.278  18.046  0.00  0.00    +0.000 OA
BRANCH   6   9
ATOM      8  C   UNL     1       0.691   2.433  18.791  0.00  0.00    +0.000 C 
ATOM      9  O   UNL     1       1.634   3.303  18.253  0.00  0.00    +0.000 OA
ENDBRANCH   6   9
ENDBRANCH   5   6
BRANCH   5  10
ATOM     10  C   UNL     1       2.932   5.641  19.736  0.00  0.00    +0.000 C 
BRANCH  10  11
ATOM     11  C   UNL     1       2.490   7.046  19.260  0.00  0.00    +0.000 A 
ATOM     12  C   UNL     1       2.629   7.574  17.973  0.00  0.00    +0.000 A 
ATOM     13  N   UNL     1       1.998   8.765  17.864  0.00  0.00    +0.000 N 
ATOM     14  C   UNL     1       1.452   9.033  19.059  0.00  0.00    +0.000 A 
ATOM     15  C   UNL     1       0.674  10.154  19.381  0.00  0.00    +0.000 A 
ATOM     16  C   UNL     1       0.165  10.245  20.680  0.00  0.00    +0.000 A 
ATOM     17  C   UNL     1       0.428   9.227  21.615  0.00  0.00    +0.000 A 
ATOM     18  C   UNL     1       1.212   8.104  21.258  0.00  0.00    +0.000 A 
ATOM     19  C   UNL     1       1.727   8.021  19.955  0.00  0.00    +0.000 A 
ATOM     20  H   UNL     1       1.921   9.357  17.010  0.00  0.00    +0.000 HD
ENDBRANCH  10  11
ENDBRANCH   5  10
ENDBRANCH   1   5
BRANCH   2  21
ATOM     21  C   UNL     1       6.475   5.834  16.525  0.00  0.00    +0.000 C 
BRANCH  21  22
ATOM     22  O   UNL     1       5.621   6.783  15.913  0.00  0.00    +0.000 OA
ATOM     23  H   UNL     1       6.114   7.625  15.715  0.00  0.00    +0.000 HD
ENDBRANCH  21  22
BRANCH  21  24
ATOM     24  C   UNL     1       7.039   4.845  15.476  0.00  0.00    +0.000 C 
BRANCH  24  25
ATOM     25  N   UNL     1       7.891   5.554  14.523  0.00  0.00    +0.000 NA
ATOM     26  H   UNL     1       8.711   4.976  14.258  0.00  0.00    +0.000 HD
ATOM     27  H   UNL     1       8.189   6.469  14.927  0.00  0.00    +0.000 HD
ENDBRANCH  24  25
BRANCH  24  28
ATOM     28  C   UNL     1       5.997   3.949  14.735  0.00  0.00    +0.000 C 
BRANCH  28  29
ATOM     29  C   UNL     1       6.186   3.566  13.238  0.00  0.00    +0.000 C 
BRANCH  29  30
ATOM     30  C   UNL     1       5.024   3.469  12.198  0.00  0.00    +0.000 C 
BRANCH  30  31
ATOM     31  C   UNL     1       4.932   2.286  11.200  0.00  0.00    +0.000 C 
BRANCH  31  32
ATOM     32  N   UNL     1       5.987   1.292  11.362  0.00  0.00    +0.000 NA
ATOM     33  H   UNL     1       6.325   1.330  12.351  0.00  0.00    +0.000 HD
ATOM     34  H   UNL     1       6.800   1.606  10.778  0.00  0.00    +0.000 HD
ENDBRANCH  31  32
ENDBRANCH  30  31
ENDBRANCH  29  30
ENDBRANCH  28  29
ENDBRANCH  24  28
ENDBRANCH  21  24
ENDBRANCH   2  21
TORSDOF 14
ENDMDL
MODEL 8
REMARK VINA RESULT:      -6.9      3.071      5.155
REMARK  Name = 
REMARK  15 active torsions:
REMARK  status: ('A' for Active; 'I' for Inactive)
REMARK    1  A    between atoms: C_1  and  O_2
REMARK    2  A    between atoms: O_2  and  C_3
REMARK    3  A    between atoms: C_3  and  C_5
REMARK    4  A    between atoms: C_5  and  C_6
REMARK    5  A    between atoms: C_5  and  N_16
REMARK    6  A    between atoms: C_6  and  C_7
REMARK    7  A    between atoms: C_17  and  C_19
REMARK    8  A    between atoms: C_19  and  O_20
REMARK    9  A    between atoms: C_19  and  C_21
REMARK   10  A    between atoms: C_21  and  N_22
REMARK   11  A    between atoms: C_21  and  C_23
REMARK   12  A    between atoms: C_23  and  C_24
REMARK   13  A    between atoms: C_24  and  C_25
REMARK   14  A    between atoms: C_25  and  C_26
REMARK   15  A    between atoms: C_26  and  N_27
REMARK                            x       y       z     vdW  Elec       q    Type
REMARK                         _______ _______ _______ _____ _____    ______ ____
ROOT
ATOM      1  N   UNL     1       3.822   4.844  17.664  0.00  0.00    +0.000 N 
ATOM      2  C   UNL     1       4.527   4.319  18.705  0.00  0.00    +0.000 C 
ATOM      3  O   UNL     1       5.095   5.039  19.515  0.00  0.00    +0.000 OA
ATOM      4  H   UNL     1       3.358   4.214  17.001  0.00  0.00    +0.000 HD
ENDROOT
BRANCH   1   5
ATOM      5  C   UNL     1       3.724   6.269  17.410  0.00  0.00    +0.000 C 
BRANCH   5   6
ATOM      6  C   UNL     1       5.013   6.748  16.734  0.00  0.00    +0.000 C 
ATOM      7  O   UNL     1       5.207   6.595  15.539  0.00  0.00    +0.000 OA
BRANCH   6   9
ATOM      8  C   UNL     1       7.340   7.434  17.319  0.00  0.00    +0.000 C 
ATOM      9  O   UNL     1       5.970   7.327  17.537  0.00  0.00    +0.000 OA
ENDBRANCH   6   9
ENDBRANCH   5   6
BRANCH   5  10
ATOM     10  C   UNL     1       3.103   6.997  18.677  0.00  0.00    +0.000 C 
BRANCH  10  11
ATOM     11  C   UNL     1       2.220   8.268  18.692  0.00  0.00    +0.000 A 
ATOM     12  C   UNL     1       1.941   9.104  17.606  0.00  0.00    +0.000 A 
ATOM     13  N   UNL     1       1.015  10.032  17.931  0.00  0.00    +0.000 N 
ATOM     14  C   UNL     1       0.684   9.827  19.214  0.00  0.00    +0.000 A 
ATOM     15  C   UNL     1      -0.273  10.544  19.947  0.00  0.00    +0.000 A 
ATOM     16  C   UNL     1      -0.501  10.163  21.273  0.00  0.00    +0.000 A 
ATOM     17  C   UNL     1       0.209   9.083  21.829  0.00  0.00    +0.000 A 
ATOM     18  C   UNL     1       1.164   8.374  21.062  0.00  0.00    +0.000 A 
ATOM     19  C   UNL     1       1.395   8.766  19.734  0.00  0.00    +0.000 A 
ATOM     20  H   UNL     1       0.607  10.757  17.303  0.00  0.00    +0.000 HD
ENDBRANCH  10  11
ENDBRANCH   5  10
ENDBRANCH   1   5
BRANCH   2  21
ATOM     21  C   UNL     1       4.695   2.798  18.831  0.00  0.00    +0.000 C 
BRANCH  21  22
ATOM     22  O   UNL     1       3.771   2.087  18.029  0.00  0.00    +0.000 OA
ATOM     23  H   UNL     1       3.056   1.680  18.590  0.00  0.00    +0.000 HD
ENDBRANCH  21  22
BRANCH  21  24
ATOM     24  C   UNL     1       4.547   2.404  20.322  0.00  0.00    +0.000 C 
BRANCH  24  25
ATOM     25  N   UNL     1       5.353   1.220  20.612  0.00  0.00    +0.000 NA
ATOM     26  H   UNL     1       6.209   1.202  20.025  0.00  0.00    +0.000 HD
ATOM     27  H   UNL     1       4.781   0.359  20.470  0.00  0.00    +0.000 HD
ENDBRANCH  24  25
BRANCH  24  28
ATOM     28  C   UNL     1       3.089   2.231  20.853  0.00  0.00    +0.000 C 
BRANCH  28  29
ATOM     29  C   UNL     1       2.193   3.466  21.162  0.00  0.00    +0.000 C 
BRANCH  29  30
ATOM     30  C   UNL     1       1.129   4.052  20.180  0.00  0.00    +0.000 C 
BRANCH  30  31
ATOM     31  C   UNL     1       0.611   3.233  18.969  0.00  0.00    +0.000 C 
BRANCH  31  32
ATOM     32  N   UNL     1       1.132   3.684  17.684  0.00  0.00    +0.000 NA
ATOM     33  H   UNL     1       2.177   3.702  17.741  0.00  0.00    +0.000 HD
ATOM     34  H   UNL     1       0.844   4.687  17.567  0.00  0.00    +0.000 HD
ENDBRANCH  31  32
ENDBRANCH  30  31
ENDBRANCH  29  30
ENDBRANCH  28  29
ENDBRANCH  24  28
ENDBRANCH  21  24
ENDBRANCH   2  21
TORSDOF 14
ENDMDL
MODEL 9
REMARK VINA RESULT:      -6.9      1.124      1.581
REMARK  Name = 
REMARK  15 active torsions:
REMARK  status: ('A' for Active; 'I' for Inactive)
REMARK    1  A    between atoms: C_1  and  O_2
REMARK    2  A    between atoms: O_2  and  C_3
REMARK    3  A    between atoms: C_3  and  C_5
REMARK    4  A    between atoms: C_5  and  C_6
REMARK    5  A    between atoms: C_5  and  N_16
REMARK    6  A    between atoms: C_6  and  C_7
REMARK    7  A    between atoms: C_17  and  C_19
REMARK    8  A    between atoms: C_19  and  O_20
REMARK    9  A    between atoms: C_19  and  C_21
REMARK   10  A    between atoms: C_21  and  N_22
REMARK   11  A    between atoms: C_21  and  C_23
REMARK   12  A    between atoms: C_23  and  C_24
REMARK   13  A    between atoms: C_24  and  C_25
REMARK   14  A    between atoms: C_25  and  C_26
REMARK   15  A    between atoms: C_26  and  N_27
REMARK                            x       y       z     vdW  Elec       q    Type
REMARK                         _______ _______ _______ _____ _____    ______ ____
ROOT
ATOM      1  N   UNL     1       4.314   4.156  18.200  0.00  0.00    +0.000 N 
ATOM      2  C   UNL     1       5.612   4.524  18.393  0.00  0.00    +0.000 C 
ATOM      3  O   UNL     1       5.955   5.146  19.390  0.00  0.00    +0.000 OA
ATOM      4  H   UNL     1       4.058   3.637  17.353  0.00  0.00    +0.000 HD
ENDROOT
BRANCH   1   5
ATOM      5  C   UNL     1       3.247   4.500  19.120  0.00  0.00    +0.000 C 
BRANCH   5   6
ATOM      6  C   UNL     1       1.915   3.997  18.554  0.00  0.00    +0.000 C 
ATOM      7  O   UNL     1       1.650   4.076  17.365  0.00  0.00    +0.000 OA
BRANCH   6   9
ATOM      8  C   UNL     1       1.210   3.063  20.758  0.00  0.00    +0.000 C 
ATOM      9  O   UNL     1       1.003   3.484  19.448  0.00  0.00    +0.000 OA
ENDBRANCH   6   9
ENDBRANCH   5   6
BRANCH   5  10
ATOM     10  C   UNL     1       3.447   5.987  19.640  0.00  0.00    +0.000 C 
BRANCH  10  11
ATOM     11  C   UNL     1       2.726   7.262  19.140  0.00  0.00    +0.000 A 
ATOM     12  C   UNL     1       2.772   7.795  17.849  0.00  0.00    +0.000 A 
ATOM     13  N   UNL     1       1.906   8.825  17.716  0.00  0.00    +0.000 N 
ATOM     14  C   UNL     1       1.297   8.983  18.900  0.00  0.00    +0.000 A 
ATOM     15  C   UNL     1       0.294   9.918  19.197  0.00  0.00    +0.000 A 
ATOM     16  C   UNL     1      -0.243   9.913  20.488  0.00  0.00    +0.000 A 
ATOM     17  C   UNL     1       0.213   8.981  21.439  0.00  0.00    +0.000 A 
ATOM     18  C   UNL     1       1.222   8.046  21.107  0.00  0.00    +0.000 A 
ATOM     19  C   UNL     1       1.764   8.061  19.813  0.00  0.00    +0.000 A 
ATOM     20  H   UNL     1       1.719   9.379  16.853  0.00  0.00    +0.000 HD
ENDBRANCH  10  11
ENDBRANCH   5  10
ENDBRANCH   1   5
BRANCH   2  21
ATOM     21  C   UNL     1       6.662   4.237  17.309  0.00  0.00    +0.000 C 
BRANCH  21  22
ATOM     22  O   UNL     1       7.960   4.075  17.848  0.00  0.00    +0.000 OA
ATOM     23  H   UNL     1       8.355   4.957  18.089  0.00  0.00    +0.000 HD
ENDBRANCH  21  22
BRANCH  21  24
ATOM     24  C   UNL     1       6.635   5.390  16.275  0.00  0.00    +0.000 C 
BRANCH  24  25
ATOM     25  N   UNL     1       5.461   6.233  16.493  0.00  0.00    +0.000 NA
ATOM     26  H   UNL     1       5.525   6.729  17.402  0.00  0.00    +0.000 HD
ATOM     27  H   UNL     1       4.594   5.654  16.439  0.00  0.00    +0.000 HD
ENDBRANCH  24  25
BRANCH  24  28
ATOM     28  C   UNL     1       6.756   4.978  14.774  0.00  0.00    +0.000 C 
BRANCH  28  29
ATOM     29  C   UNL     1       5.827   3.890  14.161  0.00  0.00    +0.000 C 
BRANCH  29  30
ATOM     30  C   UNL     1       5.619   3.670  12.628  0.00  0.00    +0.000 C 
BRANCH  30  31
ATOM     31  C   UNL     1       6.585   2.780  11.803  0.00  0.00    +0.000 C 
BRANCH  31  32
ATOM     32  N   UNL     1       6.055   1.455  11.501  0.00  0.00    +0.000 NA
ATOM     33  H   UNL     1       5.114   1.571  11.058  0.00  0.00    +0.000 HD
ATOM     34  H   UNL     1       5.874   0.978  12.418  0.00  0.00    +0.000 HD
ENDBRANCH  31  32
ENDBRANCH  30  31
ENDBRANCH  29  30
ENDBRANCH  28  29
ENDBRANCH  24  28
ENDBRANCH  21  24
ENDBRANCH   2  21
TORSDOF 14
ENDMDL
