MODEL 1
REMARK VINA RESULT:      -7.6      0.000      0.000
REMARK  Name = 
REMARK  6 active torsions:
REMARK  status: ('A' for Active; 'I' for Inactive)
REMARK    1  A    between atoms: C_1  and  C_2
REMARK    2  A    between atoms: C_2  and  O_3
REMARK    3  A    between atoms: O_3  and  C_4
REMARK    4  A    between atoms: C_4  and  C_6
REMARK    5  A    between atoms: C_11  and  S_12
REMARK    6  A    between atoms: S_12  and  N_13
REMARK                            x       y       z     vdW  Elec       q    Type
REMARK                         _______ _______ _______ _____ _____    ______ ____
ROOT
ATOM      1  S   UNL     1       5.074   5.013  19.218  0.00  0.00    +0.000 S 
ENDROOT
BRANCH   1   2
ATOM      2  N   UNL     1       5.352   4.077  17.811  0.00  0.00    +0.000 N 
ATOM      3  C   UNL     1       5.878   4.697  16.683  0.00  0.00    +0.000 C 
ATOM      4  O   UNL     1       6.202   5.879  16.659  0.00  0.00    +0.000 OA
ATOM      5  N   UNL     1       5.916   3.836  15.613  0.00  0.00    +0.000 N 
ATOM      6  C   UNL     1       6.479   4.167  14.389  0.00  0.00    +0.000 A 
ATOM      7  N   UNL     1       7.389   5.149  14.304  0.00  0.00    +0.000 NA
ATOM      8  C   UNL     1       7.892   5.425  13.091  0.00  0.00    +0.000 A 
ATOM      9  C   UNL     1       7.533   4.745  11.956  0.00  0.00    +0.000 A 
ATOM     10  C   UNL     1       6.616   3.740  12.146  0.00  0.00    +0.000 A 
ATOM     11  N   UNL     1       6.084   3.421  13.345  0.00  0.00    +0.000 NA
ATOM     12  H   UNL     1       5.713   3.145  17.995  0.00  0.00    +0.000 HD
ATOM     13  H   UNL     1       5.244   3.092  15.565  0.00  0.00    +0.000 HD
ENDBRANCH   1   2
BRANCH   1  19
ATOM     14  C   UNL     1       2.381   5.194  20.007  0.00  0.00    +0.000 A 
ATOM     15  C   UNL     1       1.198   4.595  20.467  0.00  0.00    +0.000 A 
ATOM     16  C   UNL     1       1.138   3.218  20.631  0.00  0.00    +0.000 A 
ATOM     17  C   UNL     1       2.271   2.479  20.339  0.00  0.00    +0.000 A 
ATOM     18  N   UNL     1       3.438   3.017  19.914  0.00  0.00    +0.000 NA
ATOM     19  C   UNL     1       3.488   4.377  19.760  0.00  0.00    +0.000 A 
BRANCH  14  20
ATOM     20  C   UNL     1       2.298   6.644  19.728  0.00  0.00    +0.000 C 
ATOM     21  O   UNL     1       2.043   7.477  20.583  0.00  0.00    +0.000 OA
BRANCH  20  22
ATOM     22  O   UNL     1       2.257   6.825  18.391  0.00  0.00    +0.000 OA
BRANCH  22  24
ATOM     23  C   UNL     1       1.860   9.058  17.731  0.00  0.00    +0.000 C 
ATOM     24  C   UNL     1       2.922   7.985  17.880  0.00  0.00    +0.000 C 
ENDBRANCH  22  24
ENDBRANCH  20  22
ENDBRANCH  14  20
ENDBRANCH   1  19
TORSDOF 5
ENDMDL
MODEL 2
REMARK VINA RESULT:      -7.4      0.894      1.312
REMARK  Name = 
REMARK  6 active torsions:
REMARK  status: ('A' for Active; 'I' for Inactive)
REMARK    1  A    between atoms: C_1  and  C_2
REMARK    2  A    between atoms: C_2  and  O_3
REMARK    3  A    between atoms: O_3  and  C_4
REMARK    4  A    between atoms: C_4  and  C_6
REMARK    5  A    between atoms: C_11  and  S_12
REMARK    6  A    between atoms: S_12  and  N_13
REMARK                            x       y       z     vdW  Elec       q    Type
REMARK                         _______ _______ _______ _____ _____    ______ ____
ROOT
ATOM      1  S   UNL     1       5.094   4.975  19.239  0.00  0.00    +0.000 S 
ENDROOT
BRANCH   1   2
ATOM      2  N   UNL     1       5.358   4.046  17.826  0.00  0.00    +0.000 N 
ATOM      3  C   UNL     1       5.885   4.669  16.699  0.00  0.00    +0.000 C 
ATOM      4  O   UNL     1       6.218   5.849  16.681  0.00  0.00    +0.000 OA
ATOM      5  N   UNL     1       5.911   3.814  15.623  0.00  0.00    +0.000 N 
ATOM      6  C   UNL     1       6.471   4.149  14.399  0.00  0.00    +0.000 A 
ATOM      7  N   UNL     1       7.389   5.123  14.317  0.00  0.00    +0.000 NA
ATOM      8  C   UNL     1       7.889   5.403  13.104  0.00  0.00    +0.000 A 
ATOM      9  C   UNL     1       7.520   4.733  11.966  0.00  0.00    +0.000 A 
ATOM     10  C   UNL     1       6.596   3.734  12.153  0.00  0.00    +0.000 A 
ATOM     11  N   UNL     1       6.066   3.412  13.352  0.00  0.00    +0.000 NA
ATOM     12  H   UNL     1       5.713   3.110  18.002  0.00  0.00    +0.000 HD
ATOM     13  H   UNL     1       5.233   3.076  15.575  0.00  0.00    +0.000 HD
ENDBRANCH   1   2
BRANCH   1  19
ATOM     14  C   UNL     1       2.390   5.163  19.990  0.00  0.00    +0.000 A 
ATOM     15  C   UNL     1       1.206   4.572  20.457  0.00  0.00    +0.000 A 
ATOM     16  C   UNL     1       1.155   3.201  20.672  0.00  0.00    +0.000 A 
ATOM     17  C   UNL     1       2.297   2.462  20.421  0.00  0.00    +0.000 A 
ATOM     18  N   UNL     1       3.465   2.993  19.990  0.00  0.00    +0.000 NA
ATOM     19  C   UNL     1       3.506   4.347  19.786  0.00  0.00    +0.000 A 
BRANCH  14  20
ATOM     20  C   UNL     1       2.299   6.601  19.656  0.00  0.00    +0.000 C 
ATOM     21  O   UNL     1       2.757   7.082  18.632  0.00  0.00    +0.000 OA
BRANCH  20  22
ATOM     22  O   UNL     1       1.914   7.277  20.760  0.00  0.00    +0.000 OA
BRANCH  22  24
ATOM     23  C   UNL     1       0.113   8.619  21.490  0.00  0.00    +0.000 C 
ATOM     24  C   UNL     1       1.302   8.553  20.550  0.00  0.00    +0.000 C 
ENDBRANCH  22  24
ENDBRANCH  20  22
ENDBRANCH  14  20
ENDBRANCH   1  19
TORSDOF 5
ENDMDL
MODEL 3
REMARK VINA RESULT:      -7.2      0.873      1.207
REMARK  Name = 
REMARK  6 active torsions:
REMARK  status: ('A' for Active; 'I' for Inactive)
REMARK    1  A    between atoms: C_1  and  C_2
REMARK    2  A    between atoms: C_2  and  O_3
REMARK    3  A    between atoms: O_3  and  C_4
REMARK    4  A    between atoms: C_4  and  C_6
REMARK    5  A    between atoms: C_11  and  S_12
REMARK    6  A    between atoms: S_12  and  N_13
REMARK                            x       y       z     vdW  Elec       q    Type
REMARK                         _______ _______ _______ _____ _____    ______ ____
ROOT
ATOM      1  S   UNL     1       5.126   4.500  19.410  0.00  0.00    +0.000 S 
ENDROOT
BRANCH   1   2
ATOM      2  N   UNL     1       5.325   3.689  17.915  0.00  0.00    +0.000 N 
ATOM      3  C   UNL     1       5.869   4.383  16.840  0.00  0.00    +0.000 C 
ATOM      4  O   UNL     1       6.264   5.540  16.921  0.00  0.00    +0.000 OA
ATOM      5  N   UNL     1       5.838   3.628  15.692  0.00  0.00    +0.000 N 
ATOM      6  C   UNL     1       6.401   4.041  14.493  0.00  0.00    +0.000 A 
ATOM      7  N   UNL     1       7.367   4.971  14.483  0.00  0.00    +0.000 NA
ATOM      8  C   UNL     1       7.866   5.332  13.291  0.00  0.00    +0.000 A 
ATOM      9  C   UNL     1       7.450   4.786  12.105  0.00  0.00    +0.000 A 
ATOM     10  C   UNL     1       6.476   3.823  12.217  0.00  0.00    +0.000 A 
ATOM     11  N   UNL     1       5.945   3.423  13.392  0.00  0.00    +0.000 NA
ATOM     12  H   UNL     1       5.631   2.724  18.002  0.00  0.00    +0.000 HD
ATOM     13  H   UNL     1       5.121   2.932  15.589  0.00  0.00    +0.000 HD
ENDBRANCH   1   2
BRANCH   1  19
ATOM     14  C   UNL     1       2.321   4.294  19.354  0.00  0.00    +0.000 A 
ATOM     15  C   UNL     1       1.122   3.781  19.871  0.00  0.00    +0.000 A 
ATOM     16  C   UNL     1       1.154   2.865  20.913  0.00  0.00    +0.000 A 
ATOM     17  C   UNL     1       2.388   2.496  21.416  0.00  0.00    +0.000 A 
ATOM     18  N   UNL     1       3.568   2.980  20.962  0.00  0.00    +0.000 NA
ATOM     19  C   UNL     1       3.526   3.888  19.937  0.00  0.00    +0.000 A 
BRANCH  14  20
ATOM     20  C   UNL     1       2.188   5.149  18.154  0.00  0.00    +0.000 C 
ATOM     21  O   UNL     1       2.357   4.739  17.017  0.00  0.00    +0.000 OA
BRANCH  20  22
ATOM     22  O   UNL     1       2.150   6.440  18.546  0.00  0.00    +0.000 OA
BRANCH  22  24
ATOM     23  C   UNL     1       2.284   8.657  17.741  0.00  0.00    +0.000 C 
ATOM     24  C   UNL     1       3.031   7.343  17.869  0.00  0.00    +0.000 C 
ENDBRANCH  22  24
ENDBRANCH  20  22
ENDBRANCH  14  20
ENDBRANCH   1  19
TORSDOF 5
ENDMDL
MODEL 4
REMARK VINA RESULT:      -7.2      5.043      6.941
REMARK  Name = 
REMARK  6 active torsions:
REMARK  status: ('A' for Active; 'I' for Inactive)
REMARK    1  A    between atoms: C_1  and  C_2
REMARK    2  A    between atoms: C_2  and  O_3
REMARK    3  A    between atoms: O_3  and  C_4
REMARK    4  A    between atoms: C_4  and  C_6
REMARK    5  A    between atoms: C_11  and  S_12
REMARK    6  A    between atoms: S_12  and  N_13
REMARK                            x       y       z     vdW  Elec       q    Type
REMARK                         _______ _______ _______ _____ _____    ______ ____
ROOT
ATOM      1  S   UNL     1       7.600   6.509  18.202  0.00  0.00    +0.000 S 
ENDROOT
BRANCH   1   2
ATOM      2  N   UNL     1       7.640   8.073  17.507  0.00  0.00    +0.000 N 
ATOM      3  C   UNL     1       8.362   9.075  18.146  0.00  0.00    +0.000 C 
ATOM      4  O   UNL     1       9.017   8.883  19.164  0.00  0.00    +0.000 OA
ATOM      5  N   UNL     1       8.184  10.289  17.527  0.00  0.00    +0.000 N 
ATOM      6  C   UNL     1       8.859  11.442  17.902  0.00  0.00    +0.000 A 
ATOM      7  N   UNL     1      10.018  11.360  18.572  0.00  0.00    +0.000 NA
ATOM      8  C   UNL     1      10.620  12.510  18.911  0.00  0.00    +0.000 A 
ATOM      9  C   UNL     1      10.118  13.745  18.590  0.00  0.00    +0.000 A 
ATOM     10  C   UNL     1       8.941  13.727  17.880  0.00  0.00    +0.000 A 
ATOM     11  N   UNL     1       8.299  12.598  17.513  0.00  0.00    +0.000 NA
ATOM     12  H   UNL     1       7.708   8.076  16.492  0.00  0.00    +0.000 HD
ATOM     13  H   UNL     1       7.326  10.461  17.035  0.00  0.00    +0.000 HD
ENDBRANCH   1   2
BRANCH   1  19
ATOM     14  C   UNL     1       5.824   4.655  17.053  0.00  0.00    +0.000 A 
ATOM     15  C   UNL     1       5.369   3.921  15.947  0.00  0.00    +0.000 A 
ATOM     16  C   UNL     1       5.949   4.116  14.701  0.00  0.00    +0.000 A 
ATOM     17  C   UNL     1       6.978   5.034  14.600  0.00  0.00    +0.000 A 
ATOM     18  N   UNL     1       7.463   5.748  15.643  0.00  0.00    +0.000 NA
ATOM     19  C   UNL     1       6.887   5.545  16.869  0.00  0.00    +0.000 A 
BRANCH  14  20
ATOM     20  C   UNL     1       5.049   4.482  18.300  0.00  0.00    +0.000 C 
ATOM     21  O   UNL     1       5.418   3.779  19.227  0.00  0.00    +0.000 OA
BRANCH  20  22
ATOM     22  O   UNL     1       3.804   4.967  18.106  0.00  0.00    +0.000 OA
BRANCH  22  24
ATOM     23  C   UNL     1       2.102   5.035  19.742  0.00  0.00    +0.000 C 
ATOM     24  C   UNL     1       2.723   4.197  18.641  0.00  0.00    +0.000 C 
ENDBRANCH  22  24
ENDBRANCH  20  22
ENDBRANCH  14  20
ENDBRANCH   1  19
TORSDOF 5
ENDMDL
MODEL 5
REMARK VINA RESULT:      -7.1      3.000      7.404
REMARK  Name = 
REMARK  6 active torsions:
REMARK  status: ('A' for Active; 'I' for Inactive)
REMARK    1  A    between atoms: C_1  and  C_2
REMARK    2  A    between atoms: C_2  and  O_3
REMARK    3  A    between atoms: O_3  and  C_4
REMARK    4  A    between atoms: C_4  and  C_6
REMARK    5  A    between atoms: C_11  and  S_12
REMARK    6  A    between atoms: S_12  and  N_13
REMARK                            x       y       z     vdW  Elec       q    Type
REMARK                         _______ _______ _______ _____ _____    ______ ____
ROOT
ATOM      1  S   UNL     1       3.955   4.553  17.807  0.00  0.00    +0.000 S 
ENDROOT
BRANCH   1   2
ATOM      2  N   UNL     1       3.039   5.180  19.110  0.00  0.00    +0.000 N 
ATOM      3  C   UNL     1       2.699   6.529  19.107  0.00  0.00    +0.000 C 
ATOM      4  O   UNL     1       2.982   7.288  18.187  0.00  0.00    +0.000 OA
ATOM      5  N   UNL     1       2.080   6.890  20.280  0.00  0.00    +0.000 N 
ATOM      6  C   UNL     1       1.555   8.154  20.506  0.00  0.00    +0.000 A 
ATOM      7  N   UNL     1       1.227   8.946  19.474  0.00  0.00    +0.000 NA
ATOM      8  C   UNL     1       0.729  10.159  19.759  0.00  0.00    +0.000 A 
ATOM      9  C   UNL     1       0.528  10.608  21.038  0.00  0.00    +0.000 A 
ATOM     10  C   UNL     1       0.869   9.718  22.027  0.00  0.00    +0.000 A 
ATOM     11  N   UNL     1       1.369   8.486  21.794  0.00  0.00    +0.000 NA
ATOM     12  H   UNL     1       2.310   4.556  19.446  0.00  0.00    +0.000 HD
ATOM     13  H   UNL     1       2.296   6.381  21.118  0.00  0.00    +0.000 HD
ENDBRANCH   1   2
BRANCH   1  19
ATOM     14  C   UNL     1       6.350   5.881  17.165  0.00  0.00    +0.000 A 
ATOM     15  C   UNL     1       7.619   6.356  17.526  0.00  0.00    +0.000 A 
ATOM     16  C   UNL     1       8.060   6.226  18.836  0.00  0.00    +0.000 A 
ATOM     17  C   UNL     1       7.218   5.613  19.747  0.00  0.00    +0.000 A 
ATOM     18  N   UNL     1       5.995   5.121  19.437  0.00  0.00    +0.000 NA
ATOM     19  C   UNL     1       5.572   5.250  18.141  0.00  0.00    +0.000 A 
BRANCH  14  20
ATOM     20  C   UNL     1       5.916   6.195  15.786  0.00  0.00    +0.000 C 
ATOM     21  O   UNL     1       4.947   6.890  15.531  0.00  0.00    +0.000 OA
BRANCH  20  22
ATOM     22  O   UNL     1       6.565   5.376  14.932  0.00  0.00    +0.000 OA
BRANCH  22  24
ATOM     23  C   UNL     1       6.178   3.783  13.231  0.00  0.00    +0.000 C 
ATOM     24  C   UNL     1       5.978   4.091  14.703  0.00  0.00    +0.000 C 
ENDBRANCH  22  24
ENDBRANCH  20  22
ENDBRANCH  14  20
ENDBRANCH   1  19
TORSDOF 5
ENDMDL
MODEL 6
REMARK VINA RESULT:      -7.0      1.461      1.965
REMARK  Name = 
REMARK  6 active torsions:
REMARK  status: ('A' for Active; 'I' for Inactive)
REMARK    1  A    between atoms: C_1  and  C_2
REMARK    2  A    between atoms: C_2  and  O_3
REMARK    3  A    between atoms: O_3  and  C_4
REMARK    4  A    between atoms: C_4  and  C_6
REMARK    5  A    between atoms: C_11  and  S_12
REMARK    6  A    between atoms: S_12  and  N_13
REMARK                            x       y       z     vdW  Elec       q    Type
REMARK                         _______ _______ _______ _____ _____    ______ ____
ROOT
ATOM      1  S   UNL     1       5.470   4.781  19.300  0.00  0.00    +0.000 S 
ENDROOT
BRANCH   1   2
ATOM      2  N   UNL     1       6.000   5.517  17.848  0.00  0.00    +0.000 N 
ATOM      3  C   UNL     1       6.108   4.739  16.700  0.00  0.00    +0.000 C 
ATOM      4  O   UNL     1       5.793   3.555  16.661  0.00  0.00    +0.000 OA
ATOM      5  N   UNL     1       6.667   5.452  15.666  0.00  0.00    +0.000 N 
ATOM      6  C   UNL     1       6.806   4.948  14.381  0.00  0.00    +0.000 A 
ATOM      7  N   UNL     1       6.030   3.937  13.962  0.00  0.00    +0.000 NA
ATOM      8  C   UNL     1       6.216   3.490  12.711  0.00  0.00    +0.000 A 
ATOM      9  C   UNL     1       7.139   4.027  11.851  0.00  0.00    +0.000 A 
ATOM     10  C   UNL     1       7.868   5.075  12.360  0.00  0.00    +0.000 A 
ATOM     11  N   UNL     1       7.716   5.563  13.609  0.00  0.00    +0.000 NA
ATOM     12  H   UNL     1       5.636   6.454  17.698  0.00  0.00    +0.000 HD
ATOM     13  H   UNL     1       7.297   6.203  15.881  0.00  0.00    +0.000 HD
ENDBRANCH   1   2
BRANCH   1  19
ATOM     14  C   UNL     1       2.761   5.123  18.621  0.00  0.00    +0.000 A 
ATOM     15  C   UNL     1       1.503   4.588  18.307  0.00  0.00    +0.000 A 
ATOM     16  C   UNL     1       1.344   3.215  18.188  0.00  0.00    +0.000 A 
ATOM     17  C   UNL     1       2.451   2.413  18.398  0.00  0.00    +0.000 A 
ATOM     18  N   UNL     1       3.678   2.883  18.724  0.00  0.00    +0.000 NA
ATOM     19  C   UNL     1       3.823   4.240  18.843  0.00  0.00    +0.000 A 
BRANCH  14  20
ATOM     20  C   UNL     1       2.859   6.598  18.583  0.00  0.00    +0.000 C 
ATOM     21  O   UNL     1       3.428   7.209  17.692  0.00  0.00    +0.000 OA
BRANCH  20  22
ATOM     22  O   UNL     1       2.495   7.087  19.787  0.00  0.00    +0.000 OA
BRANCH  22  24
ATOM     23  C   UNL     1       1.139   8.424  21.184  0.00  0.00    +0.000 C 
ATOM     24  C   UNL     1       1.703   8.278  19.784  0.00  0.00    +0.000 C 
ENDBRANCH  22  24
ENDBRANCH  20  22
ENDBRANCH  14  20
ENDBRANCH   1  19
TORSDOF 5
ENDMDL
MODEL 7
REMARK VINA RESULT:      -7.0      4.102      8.047
REMARK  Name = 
REMARK  6 active torsions:
REMARK  status: ('A' for Active; 'I' for Inactive)
REMARK    1  A    between atoms: C_1  and  C_2
REMARK    2  A    between atoms: C_2  and  O_3
REMARK    3  A    between atoms: O_3  and  C_4
REMARK    4  A    between atoms: C_4  and  C_6
REMARK    5  A    between atoms: C_11  and  S_12
REMARK    6  A    between atoms: S_12  and  N_13
REMARK                            x       y       z     vdW  Elec       q    Type
REMARK                         _______ _______ _______ _____ _____    ______ ____
ROOT
ATOM      1  S   UNL     1       3.008   6.250  19.470  0.00  0.00    +0.000 S 
ENDROOT
BRANCH   1   2
ATOM      2  N   UNL     1       1.926   6.842  20.657  0.00  0.00    +0.000 N 
ATOM      3  C   UNL     1       1.384   8.113  20.499  0.00  0.00    +0.000 C 
ATOM      4  O   UNL     1       1.604   8.818  19.521  0.00  0.00    +0.000 OA
ATOM      5  N   UNL     1       0.643   8.479  21.598  0.00  0.00    +0.000 N 
ATOM      6  C   UNL     1      -0.083   9.658  21.668  0.00  0.00    +0.000 A 
ATOM      7  N   UNL     1      -0.464  10.287  20.546  0.00  0.00    +0.000 NA
ATOM      8  C   UNL     1      -1.160  11.427  20.680  0.00  0.00    +0.000 A 
ATOM      9  C   UNL     1      -1.508  11.956  21.896  0.00  0.00    +0.000 A 
ATOM     10  C   UNL     1      -1.098  11.228  22.986  0.00  0.00    +0.000 A 
ATOM     11  N   UNL     1      -0.399  10.076  22.904  0.00  0.00    +0.000 NA
ATOM     12  H   UNL     1       1.283   6.144  21.020  0.00  0.00    +0.000 HD
ATOM     13  H   UNL     1       0.882   8.092  22.493  0.00  0.00    +0.000 HD
ENDBRANCH   1   2
BRANCH   1  19
ATOM     14  C   UNL     1       3.250   3.560  18.683  0.00  0.00    +0.000 A 
ATOM     15  C   UNL     1       2.740   2.255  18.617  0.00  0.00    +0.000 A 
ATOM     16  C   UNL     1       1.536   1.950  19.236  0.00  0.00    +0.000 A 
ATOM     17  C   UNL     1       0.870   2.967  19.897  0.00  0.00    +0.000 A 
ATOM     18  N   UNL     1       1.314   4.243  19.969  0.00  0.00    +0.000 NA
ATOM     19  C   UNL     1       2.501   4.535  19.350  0.00  0.00    +0.000 A 
BRANCH  14  20
ATOM     20  C   UNL     1       4.604   3.749  18.119  0.00  0.00    +0.000 C 
ATOM     21  O   UNL     1       5.592   3.959  18.802  0.00  0.00    +0.000 OA
BRANCH  20  22
ATOM     22  O   UNL     1       4.494   3.935  16.786  0.00  0.00    +0.000 OA
BRANCH  22  24
ATOM     23  C   UNL     1       5.673   5.450  15.410  0.00  0.00    +0.000 C 
ATOM     24  C   UNL     1       5.715   4.077  16.054  0.00  0.00    +0.000 C 
ENDBRANCH  22  24
ENDBRANCH  20  22
ENDBRANCH  14  20
ENDBRANCH   1  19
TORSDOF 5
ENDMDL
MODEL 8
REMARK VINA RESULT:      -7.0      4.380      8.263
REMARK  Name = 
REMARK  6 active torsions:
REMARK  status: ('A' for Active; 'I' for Inactive)
REMARK    1  A    between atoms: C_1  and  C_2
REMARK    2  A    between atoms: C_2  and  O_3
REMARK    3  A    between atoms: O_3  and  C_4
REMARK    4  A    between atoms: C_4  and  C_6
REMARK    5  A    between atoms: C_11  and  S_12
REMARK    6  A    between atoms: S_12  and  N_13
REMARK                            x       y       z     vdW  Elec       q    Type
REMARK                         _______ _______ _______ _____ _____    ______ ____
ROOT
ATOM      1  S   UNL     1       2.757   6.706  19.397  0.00  0.00    +0.000 S 
ENDROOT
BRANCH   1   2
ATOM      2  N   UNL     1       1.839   7.402  20.663  0.00  0.00    +0.000 N 
ATOM      3  C   UNL     1       1.212   8.624  20.447  0.00  0.00    +0.000 C 
ATOM      4  O   UNL     1       1.242   9.211  19.371  0.00  0.00    +0.000 OA
ATOM      5  N   UNL     1       0.630   9.097  21.599  0.00  0.00    +0.000 N 
ATOM      6  C   UNL     1      -0.139  10.250  21.647  0.00  0.00    +0.000 A 
ATOM      7  N   UNL     1      -0.720  10.723  20.534  0.00  0.00    +0.000 NA
ATOM      8  C   UNL     1      -1.447  11.846  20.644  0.00  0.00    +0.000 A 
ATOM      9  C   UNL     1      -1.633  12.508  21.830  0.00  0.00    +0.000 A 
ATOM     10  C   UNL     1      -1.022  11.934  22.919  0.00  0.00    +0.000 A 
ATOM     11  N   UNL     1      -0.284  10.805  22.861  0.00  0.00    +0.000 NA
ATOM     12  H   UNL     1       1.297   6.732  21.202  0.00  0.00    +0.000 HD
ATOM     13  H   UNL     1       1.023   8.831  22.484  0.00  0.00    +0.000 HD
ENDBRANCH   1   2
BRANCH   1  19
ATOM     14  C   UNL     1       3.254   3.956  19.080  0.00  0.00    +0.000 A 
ATOM     15  C   UNL     1       2.928   2.617  19.339  0.00  0.00    +0.000 A 
ATOM     16  C   UNL     1       1.884   2.313  20.202  0.00  0.00    +0.000 A 
ATOM     17  C   UNL     1       1.188   3.363  20.773  0.00  0.00    +0.000 A 
ATOM     18  N   UNL     1       1.454   4.669  20.535  0.00  0.00    +0.000 NA
ATOM     19  C   UNL     1       2.483   4.957  19.679  0.00  0.00    +0.000 A 
BRANCH  14  20
ATOM     20  C   UNL     1       4.469   4.174  18.265  0.00  0.00    +0.000 C 
ATOM     21  O   UNL     1       4.477   4.118  17.046  0.00  0.00    +0.000 OA
BRANCH  20  22
ATOM     22  O   UNL     1       5.546   4.143  19.078  0.00  0.00    +0.000 OA
BRANCH  22  24
ATOM     23  C   UNL     1       7.534   5.117  18.254  0.00  0.00    +0.000 C 
ATOM     24  C   UNL     1       6.330   5.337  19.151  0.00  0.00    +0.000 C 
ENDBRANCH  22  24
ENDBRANCH  20  22
ENDBRANCH  14  20
ENDBRANCH   1  19
TORSDOF 5
ENDMDL
MODEL 9
REMARK VINA RESULT:      -7.0      5.113      7.043
REMARK  Name = 
REMARK  6 active torsions:
REMARK  status: ('A' for Active; 'I' for Inactive)
REMARK    1  A    between atoms: C_1  and  C_2
REMARK    2  A    between atoms: C_2  and  O_3
REMARK    3  A    between atoms: O_3  and  C_4
REMARK    4  A    between atoms: C_4  and  C_6
REMARK    5  A    between atoms: C_11  and  S_12
REMARK    6  A    between atoms: S_12  and  N_13
REMARK                            x       y       z     vdW  Elec       q    Type
REMARK                         _______ _______ _______ _____ _____    ______ ____
ROOT
ATOM      1  S   UNL     1       7.558   6.670  18.092  0.00  0.00    +0.000 S 
ENDROOT
BRANCH   1   2
ATOM      2  N   UNL     1       7.600   8.257  17.451  0.00  0.00    +0.000 N 
ATOM      3  C   UNL     1       8.353   9.227  18.104  0.00  0.00    +0.000 C 
ATOM      4  O   UNL     1       9.035   8.990  19.095  0.00  0.00    +0.000 OA
ATOM      5  N   UNL     1       8.174  10.464  17.534  0.00  0.00    +0.000 N 
ATOM      6  C   UNL     1       8.876  11.594  17.930  0.00  0.00    +0.000 A 
ATOM      7  N   UNL     1      10.052  11.473  18.562  0.00  0.00    +0.000 NA
ATOM      8  C   UNL     1      10.680  12.603  18.924  0.00  0.00    +0.000 A 
ATOM      9  C   UNL     1      10.185  13.855  18.662  0.00  0.00    +0.000 A 
ATOM     10  C   UNL     1       8.989  13.878  17.987  0.00  0.00    +0.000 A 
ATOM     11  N   UNL     1       8.320  12.771  17.599  0.00  0.00    +0.000 NA
ATOM     12  H   UNL     1       7.637   8.296  16.436  0.00  0.00    +0.000 HD
ATOM     13  H   UNL     1       7.304  10.664  17.074  0.00  0.00    +0.000 HD
ENDBRANCH   1   2
BRANCH   1  19
ATOM     14  C   UNL     1       5.418   5.346  16.835  0.00  0.00    +0.000 A 
ATOM     15  C   UNL     1       4.895   4.617  15.757  0.00  0.00    +0.000 A 
ATOM     16  C   UNL     1       5.684   4.367  14.643  0.00  0.00    +0.000 A 
ATOM     17  C   UNL     1       6.982   4.847  14.645  0.00  0.00    +0.000 A 
ATOM     18  N   UNL     1       7.533   5.536  15.671  0.00  0.00    +0.000 NA
ATOM     19  C   UNL     1       6.747   5.773  16.768  0.00  0.00    +0.000 A 
BRANCH  14  20
ATOM     20  C   UNL     1       4.456   5.683  17.907  0.00  0.00    +0.000 C 
ATOM     21  O   UNL     1       3.832   6.731  17.943  0.00  0.00    +0.000 OA
BRANCH  20  22
ATOM     22  O   UNL     1       4.620   4.810  18.924  0.00  0.00    +0.000 OA
BRANCH  22  24
ATOM     23  C   UNL     1       4.064   2.555  19.358  0.00  0.00    +0.000 C 
ATOM     24  C   UNL     1       3.508   3.960  19.226  0.00  0.00    +0.000 C 
ENDBRANCH  22  24
ENDBRANCH  20  22
ENDBRANCH  14  20
ENDBRANCH   1  19
TORSDOF 5
ENDMDL
