MODEL 1
REMARK VINA RESULT:      -8.5      0.000      0.000
REMARK  Name = 
REMARK  10 active torsions:
REMARK  status: ('A' for Active; 'I' for Inactive)
REMARK    1  A    between atoms: C_1  and  C_2
REMARK    2  A    between atoms: C_2  and  C_3
REMARK    3  A    between atoms: C_2  and  C_4
REMARK    4  A    between atoms: C_2  and  C_5
REMARK    5  A    between atoms: C_7  and  C_8
REMARK    6  A    between atoms: C_17  and  C_18
REMARK    7  A    between atoms: C_18  and  C_19
REMARK    8  A    between atoms: C_18  and  C_20
REMARK    9  A    between atoms: C_18  and  C_21
REMARK   10  A    between atoms: C_22  and  O_23
REMARK                            x       y       z     vdW  Elec       q    Type
REMARK                         _______ _______ _______ _____ _____    ______ ____
ROOT
ATOM      1  C   UNL     1       5.387   5.664  18.218  0.00  0.00    +0.000 A 
ATOM      2  C   UNL     1       4.550   6.778  18.023  0.00  0.00    +0.000 A 
ATOM      3  C   UNL     1       3.170   6.688  18.188  0.00  0.00    +0.000 A 
ATOM      4  C   UNL     1       2.588   5.451  18.468  0.00  0.00    +0.000 A 
ATOM      5  C   UNL     1       3.353   4.288  18.678  0.00  0.00    +0.000 A 
ATOM      6  C   UNL     1       4.757   4.451  18.607  0.00  0.00    +0.000 A 
ENDROOT
BRANCH   3   7
ATOM      7  C   UNL     1       2.329   7.884  18.107  0.00  0.00    +0.000 C 
ATOM      8  C   UNL     1       1.663   8.453  19.118  0.00  0.00    +0.000 C 
ATOM      9  S   UNL     1       1.608   7.948  20.770  0.00  0.00    +0.000 S 
ATOM     10  C   UNL     1       0.580   9.276  21.192  0.00  0.00    +0.000 C 
ATOM     11  N   UNL     1       0.143   9.514  22.362  0.00  0.00    +0.000 NA
ATOM     12  N   UNL     1       0.290  10.044  20.121  0.00  0.00    +0.000 N 
ATOM     13  C   UNL     1       0.849   9.679  18.934  0.00  0.00    +0.000 C 
ATOM     14  O   UNL     1       0.691  10.279  17.876  0.00  0.00    +0.000 OA
ATOM     15  H   UNL     1       0.507   8.790  22.989  0.00  0.00    +0.000 HD
ATOM     16  H   UNL     1      -0.303  10.856  20.211  0.00  0.00    +0.000 HD
ENDBRANCH   3   7
BRANCH   1  18
ATOM     17  C   UNL     1       7.766   5.690  19.267  0.00  0.00    +0.000 C 
ATOM     18  C   UNL     1       6.913   5.776  17.972  0.00  0.00    +0.000 C 
ATOM     19  C   UNL     1       7.230   7.153  17.340  0.00  0.00    +0.000 C 
ATOM     20  C   UNL     1       7.422   4.647  17.053  0.00  0.00    +0.000 C 
ENDBRANCH   1  18
BRANCH   5  21
ATOM     21  C   UNL     1       2.651   2.929  18.936  0.00  0.00    +0.000 C 
ATOM     22  C   UNL     1       2.679   2.525  20.435  0.00  0.00    +0.000 C 
ATOM     23  C   UNL     1       1.158   3.011  18.540  0.00  0.00    +0.000 C 
ATOM     24  C   UNL     1       3.301   1.759  18.170  0.00  0.00    +0.000 C 
ENDBRANCH   5  21
BRANCH   6  25
ATOM     25  O   UNL     1       5.559   3.411  18.992  0.00  0.00    +0.000 OA
ATOM     26  H   UNL     1       5.118   2.592  18.726  0.00  0.00    +0.000 HD
ENDBRANCH   6  25
TORSDOF 4
ENDMDL
MODEL 2
REMARK VINA RESULT:      -8.5      0.060      1.265
REMARK  Name = 
REMARK  10 active torsions:
REMARK  status: ('A' for Active; 'I' for Inactive)
REMARK    1  A    between atoms: C_1  and  C_2
REMARK    2  A    between atoms: C_2  and  C_3
REMARK    3  A    between atoms: C_2  and  C_4
REMARK    4  A    between atoms: C_2  and  C_5
REMARK    5  A    between atoms: C_7  and  C_8
REMARK    6  A    between atoms: C_17  and  C_18
REMARK    7  A    between atoms: C_18  and  C_19
REMARK    8  A    between atoms: C_18  and  C_20
REMARK    9  A    between atoms: C_18  and  C_21
REMARK   10  A    between atoms: C_22  and  O_23
REMARK                            x       y       z     vdW  Elec       q    Type
REMARK                         _______ _______ _______ _____ _____    ______ ____
ROOT
ATOM      1  C   UNL     1       5.390   5.653  18.259  0.00  0.00    +0.000 A 
ATOM      2  C   UNL     1       4.549   6.761  18.051  0.00  0.00    +0.000 A 
ATOM      3  C   UNL     1       3.169   6.666  18.216  0.00  0.00    +0.000 A 
ATOM      4  C   UNL     1       2.592   5.431  18.509  0.00  0.00    +0.000 A 
ATOM      5  C   UNL     1       3.363   4.273  18.731  0.00  0.00    +0.000 A 
ATOM      6  C   UNL     1       4.766   4.442  18.661  0.00  0.00    +0.000 A 
ENDROOT
BRANCH   3   7
ATOM      7  C   UNL     1       2.323   7.858  18.122  0.00  0.00    +0.000 C 
ATOM      8  C   UNL     1       1.654   8.435  19.126  0.00  0.00    +0.000 C 
ATOM      9  S   UNL     1       1.600   7.947  20.784  0.00  0.00    +0.000 S 
ATOM     10  C   UNL     1       0.565   9.275  21.190  0.00  0.00    +0.000 C 
ATOM     11  N   UNL     1       0.126   9.523  22.358  0.00  0.00    +0.000 NA
ATOM     12  N   UNL     1       0.272  10.030  20.111  0.00  0.00    +0.000 N 
ATOM     13  C   UNL     1       0.834   9.655  18.929  0.00  0.00    +0.000 C 
ATOM     14  O   UNL     1       0.675  10.244  17.864  0.00  0.00    +0.000 OA
ATOM     15  H   UNL     1       0.493   8.808  22.993  0.00  0.00    +0.000 HD
ATOM     16  H   UNL     1      -0.324  10.841  20.192  0.00  0.00    +0.000 HD
ENDBRANCH   3   7
BRANCH   1  18
ATOM     17  C   UNL     1       7.345   7.102  17.340  0.00  0.00    +0.000 C 
ATOM     18  C   UNL     1       6.916   5.769  18.012  0.00  0.00    +0.000 C 
ATOM     19  C   UNL     1       7.368   4.641  17.054  0.00  0.00    +0.000 C 
ATOM     20  C   UNL     1       7.710   5.686  19.332  0.00  0.00    +0.000 C 
ENDBRANCH   1  18
BRANCH   5  21
ATOM     21  C   UNL     1       2.666   2.914  19.004  0.00  0.00    +0.000 C 
ATOM     22  C   UNL     1       1.156   2.941  18.645  0.00  0.00    +0.000 C 
ATOM     23  C   UNL     1       3.297   1.802  18.134  0.00  0.00    +0.000 C 
ATOM     24  C   UNL     1       2.741   2.484  20.484  0.00  0.00    +0.000 C 
ENDBRANCH   5  21
BRANCH   6  25
ATOM     25  O   UNL     1       5.572   3.410  19.057  0.00  0.00    +0.000 OA
ATOM     26  H   UNL     1       5.038   2.602  19.039  0.00  0.00    +0.000 HD
ENDBRANCH   6  25
TORSDOF 4
ENDMDL
MODEL 3
REMARK VINA RESULT:      -8.2      0.484      1.081
REMARK  Name = 
REMARK  10 active torsions:
REMARK  status: ('A' for Active; 'I' for Inactive)
REMARK    1  A    between atoms: C_1  and  C_2
REMARK    2  A    between atoms: C_2  and  C_3
REMARK    3  A    between atoms: C_2  and  C_4
REMARK    4  A    between atoms: C_2  and  C_5
REMARK    5  A    between atoms: C_7  and  C_8
REMARK    6  A    between atoms: C_17  and  C_18
REMARK    7  A    between atoms: C_18  and  C_19
REMARK    8  A    between atoms: C_18  and  C_20
REMARK    9  A    between atoms: C_18  and  C_21
REMARK   10  A    between atoms: C_22  and  O_23
REMARK                            x       y       z     vdW  Elec       q    Type
REMARK                         _______ _______ _______ _____ _____    ______ ____
ROOT
ATOM      1  C   UNL     1       5.319   5.620  17.771  0.00  0.00    +0.000 A 
ATOM      2  C   UNL     1       4.488   6.751  17.676  0.00  0.00    +0.000 A 
ATOM      3  C   UNL     1       3.155   6.709  18.077  0.00  0.00    +0.000 A 
ATOM      4  C   UNL     1       2.600   5.502  18.502  0.00  0.00    +0.000 A 
ATOM      5  C   UNL     1       3.362   4.324  18.625  0.00  0.00    +0.000 A 
ATOM      6  C   UNL     1       4.737   4.441  18.311  0.00  0.00    +0.000 A 
ENDROOT
BRANCH   3   7
ATOM      7  C   UNL     1       2.342   7.927  18.092  0.00  0.00    +0.000 C 
ATOM      8  C   UNL     1       1.699   8.436  19.148  0.00  0.00    +0.000 C 
ATOM      9  S   UNL     1       1.647   7.814  20.760  0.00  0.00    +0.000 S 
ATOM     10  C   UNL     1       0.654   9.131  21.288  0.00  0.00    +0.000 C 
ATOM     11  N   UNL     1       0.233   9.292  22.477  0.00  0.00    +0.000 NA
ATOM     12  N   UNL     1       0.372   9.981  20.279  0.00  0.00    +0.000 N 
ATOM     13  C   UNL     1       0.912   9.690  19.062  0.00  0.00    +0.000 C 
ATOM     14  O   UNL     1       0.759  10.370  18.053  0.00  0.00    +0.000 OA
ATOM     15  H   UNL     1       0.586   8.517  23.046  0.00  0.00    +0.000 HD
ATOM     16  H   UNL     1      -0.200  10.798  20.434  0.00  0.00    +0.000 HD
ENDBRANCH   3   7
BRANCH   1  18
ATOM     17  C   UNL     1       7.768   4.805  18.090  0.00  0.00    +0.000 C 
ATOM     18  C   UNL     1       6.782   5.676  17.264  0.00  0.00    +0.000 C 
ATOM     19  C   UNL     1       7.305   7.129  17.367  0.00  0.00    +0.000 C 
ATOM     20  C   UNL     1       6.897   5.179  15.808  0.00  0.00    +0.000 C 
ENDBRANCH   1  18
BRANCH   5  21
ATOM     21  C   UNL     1       2.681   2.998  19.055  0.00  0.00    +0.000 C 
ATOM     22  C   UNL     1       3.031   1.820  18.106  0.00  0.00    +0.000 C 
ATOM     23  C   UNL     1       3.165   2.576  20.463  0.00  0.00    +0.000 C 
ATOM     24  C   UNL     1       1.141   3.087  19.070  0.00  0.00    +0.000 C 
ENDBRANCH   5  21
BRANCH   6  25
ATOM     25  O   UNL     1       5.567   3.392  18.595  0.00  0.00    +0.000 OA
ATOM     26  H   UNL     1       6.404   3.553  18.136  0.00  0.00    +0.000 HD
ENDBRANCH   6  25
TORSDOF 4
ENDMDL
MODEL 4
REMARK VINA RESULT:      -8.1      0.955      3.877
REMARK  Name = 
REMARK  10 active torsions:
REMARK  status: ('A' for Active; 'I' for Inactive)
REMARK    1  A    between atoms: C_1  and  C_2
REMARK    2  A    between atoms: C_2  and  C_3
REMARK    3  A    between atoms: C_2  and  C_4
REMARK    4  A    between atoms: C_2  and  C_5
REMARK    5  A    between atoms: C_7  and  C_8
REMARK    6  A    between atoms: C_17  and  C_18
REMARK    7  A    between atoms: C_18  and  C_19
REMARK    8  A    between atoms: C_18  and  C_20
REMARK    9  A    between atoms: C_18  and  C_21
REMARK   10  A    between atoms: C_22  and  O_23
REMARK                            x       y       z     vdW  Elec       q    Type
REMARK                         _______ _______ _______ _____ _____    ______ ____
ROOT
ATOM      1  C   UNL     1       2.840   4.585  18.864  0.00  0.00    +0.000 A 
ATOM      2  C   UNL     1       2.187   5.825  18.982  0.00  0.00    +0.000 A 
ATOM      3  C   UNL     1       2.739   6.991  18.455  0.00  0.00    +0.000 A 
ATOM      4  C   UNL     1       4.006   6.953  17.874  0.00  0.00    +0.000 A 
ATOM      5  C   UNL     1       4.727   5.754  17.717  0.00  0.00    +0.000 A 
ATOM      6  C   UNL     1       4.080   4.579  18.168  0.00  0.00    +0.000 A 
ENDROOT
BRANCH   3   7
ATOM      7  C   UNL     1       1.987   8.247  18.474  0.00  0.00    +0.000 C 
ATOM      8  C   UNL     1       1.471   8.845  19.554  0.00  0.00    +0.000 C 
ATOM      9  S   UNL     1       1.545   8.314  21.197  0.00  0.00    +0.000 S 
ATOM     10  C   UNL     1       0.667   9.706  21.736  0.00  0.00    +0.000 C 
ATOM     11  N   UNL     1       0.369   9.953  22.948  0.00  0.00    +0.000 NA
ATOM     12  N   UNL     1       0.329  10.513  20.710  0.00  0.00    +0.000 N 
ATOM     13  C   UNL     1       0.737  10.131  19.468  0.00  0.00    +0.000 C 
ATOM     14  O   UNL     1       0.519  10.761  18.439  0.00  0.00    +0.000 OA
ATOM     15  H   UNL     1       0.739   9.193  23.526  0.00  0.00    +0.000 HD
ATOM     16  H   UNL     1      -0.188  11.365  20.869  0.00  0.00    +0.000 HD
ENDBRANCH   3   7
BRANCH   1  18
ATOM     17  C   UNL     1       1.785   2.240  18.478  0.00  0.00    +0.000 C 
ATOM     18  C   UNL     1       2.233   3.314  19.508  0.00  0.00    +0.000 C 
ATOM     19  C   UNL     1       0.964   3.699  20.305  0.00  0.00    +0.000 C 
ATOM     20  C   UNL     1       3.244   2.612  20.438  0.00  0.00    +0.000 C 
ENDBRANCH   1  18
BRANCH   5  21
ATOM     21  C   UNL     1       6.154   5.776  17.109  0.00  0.00    +0.000 C 
ATOM     22  C   UNL     1       6.164   5.373  15.609  0.00  0.00    +0.000 C 
ATOM     23  C   UNL     1       6.745   7.204  17.176  0.00  0.00    +0.000 C 
ATOM     24  C   UNL     1       7.126   4.808  17.814  0.00  0.00    +0.000 C 
ENDBRANCH   5  21
BRANCH   6  25
ATOM     25  O   UNL     1       4.637   3.365  17.870  0.00  0.00    +0.000 OA
ATOM     26  H   UNL     1       3.988   2.870  17.349  0.00  0.00    +0.000 HD
ENDBRANCH   6  25
TORSDOF 4
ENDMDL
MODEL 5
REMARK VINA RESULT:      -8.1      0.707      3.821
REMARK  Name = 
REMARK  10 active torsions:
REMARK  status: ('A' for Active; 'I' for Inactive)
REMARK    1  A    between atoms: C_1  and  C_2
REMARK    2  A    between atoms: C_2  and  C_3
REMARK    3  A    between atoms: C_2  and  C_4
REMARK    4  A    between atoms: C_2  and  C_5
REMARK    5  A    between atoms: C_7  and  C_8
REMARK    6  A    between atoms: C_17  and  C_18
REMARK    7  A    between atoms: C_18  and  C_19
REMARK    8  A    between atoms: C_18  and  C_20
REMARK    9  A    between atoms: C_18  and  C_21
REMARK   10  A    between atoms: C_22  and  O_23
REMARK                            x       y       z     vdW  Elec       q    Type
REMARK                         _______ _______ _______ _____ _____    ______ ____
ROOT
ATOM      1  C   UNL     1       3.149   4.460  18.436  0.00  0.00    +0.000 A 
ATOM      2  C   UNL     1       2.455   5.676  18.564  0.00  0.00    +0.000 A 
ATOM      3  C   UNL     1       3.037   6.887  18.197  0.00  0.00    +0.000 A 
ATOM      4  C   UNL     1       4.366   6.914  17.774  0.00  0.00    +0.000 A 
ATOM      5  C   UNL     1       5.131   5.742  17.619  0.00  0.00    +0.000 A 
ATOM      6  C   UNL     1       4.463   4.526  17.899  0.00  0.00    +0.000 A 
ENDROOT
BRANCH   3   7
ATOM      7  C   UNL     1       2.256   8.126  18.217  0.00  0.00    +0.000 C 
ATOM      8  C   UNL     1       1.606   8.635  19.269  0.00  0.00    +0.000 C 
ATOM      9  S   UNL     1       1.504   7.988  20.868  0.00  0.00    +0.000 S 
ATOM     10  C   UNL     1       0.537   9.323  21.398  0.00  0.00    +0.000 C 
ATOM     11  N   UNL     1       0.096   9.476  22.582  0.00  0.00    +0.000 NA
ATOM     12  N   UNL     1       0.298  10.197  20.399  0.00  0.00    +0.000 N 
ATOM     13  C   UNL     1       0.855   9.912  19.189  0.00  0.00    +0.000 C 
ATOM     14  O   UNL     1       0.740  10.612  18.188  0.00  0.00    +0.000 OA
ATOM     15  H   UNL     1       0.416   8.682  23.144  0.00  0.00    +0.000 HD
ATOM     16  H   UNL     1      -0.255  11.026  20.557  0.00  0.00    +0.000 HD
ENDBRANCH   3   7
BRANCH   1  18
ATOM     17  C   UNL     1       1.061   3.299  19.463  0.00  0.00    +0.000 C 
ATOM     18  C   UNL     1       2.501   3.133  18.904  0.00  0.00    +0.000 C 
ATOM     19  C   UNL     1       3.340   2.530  20.056  0.00  0.00    +0.000 C 
ATOM     20  C   UNL     1       2.392   2.117  17.749  0.00  0.00    +0.000 C 
ENDBRANCH   1  18
BRANCH   5  21
ATOM     21  C   UNL     1       6.620   5.835  17.194  0.00  0.00    +0.000 C 
ATOM     22  C   UNL     1       7.537   4.920  18.050  0.00  0.00    +0.000 C 
ATOM     23  C   UNL     1       6.791   5.368  15.729  0.00  0.00    +0.000 C 
ATOM     24  C   UNL     1       7.198   7.259  17.328  0.00  0.00    +0.000 C 
ENDBRANCH   5  21
BRANCH   6  25
ATOM     25  O   UNL     1       5.083   3.348  17.581  0.00  0.00    +0.000 OA
ATOM     26  H   UNL     1       4.824   2.697  18.249  0.00  0.00    +0.000 HD
ENDBRANCH   6  25
TORSDOF 4
ENDMDL
MODEL 6
REMARK VINA RESULT:      -7.9      1.038      1.436
REMARK  Name = 
REMARK  10 active torsions:
REMARK  status: ('A' for Active; 'I' for Inactive)
REMARK    1  A    between atoms: C_1  and  C_2
REMARK    2  A    between atoms: C_2  and  C_3
REMARK    3  A    between atoms: C_2  and  C_4
REMARK    4  A    between atoms: C_2  and  C_5
REMARK    5  A    between atoms: C_7  and  C_8
REMARK    6  A    between atoms: C_17  and  C_18
REMARK    7  A    between atoms: C_18  and  C_19
REMARK    8  A    between atoms: C_18  and  C_20
REMARK    9  A    between atoms: C_18  and  C_21
REMARK   10  A    between atoms: C_22  and  O_23
REMARK                            x       y       z     vdW  Elec       q    Type
REMARK                         _______ _______ _______ _____ _____    ______ ____
ROOT
ATOM      1  C   UNL     1       4.666   5.215  17.570  0.00  0.00    +0.000 A 
ATOM      2  C   UNL     1       3.995   6.450  17.523  0.00  0.00    +0.000 A 
ATOM      3  C   UNL     1       2.817   6.664  18.234  0.00  0.00    +0.000 A 
ATOM      4  C   UNL     1       2.236   5.611  18.941  0.00  0.00    +0.000 A 
ATOM      5  C   UNL     1       2.842   4.344  19.038  0.00  0.00    +0.000 A 
ATOM      6  C   UNL     1       4.093   4.205  18.389  0.00  0.00    +0.000 A 
ENDROOT
BRANCH   3   7
ATOM      7  C   UNL     1       2.202   7.992  18.277  0.00  0.00    +0.000 C 
ATOM      8  C   UNL     1       1.688   8.593  19.356  0.00  0.00    +0.000 C 
ATOM      9  S   UNL     1       1.606   7.982  20.972  0.00  0.00    +0.000 S 
ATOM     10  C   UNL     1       0.850   9.435  21.533  0.00  0.00    +0.000 C 
ATOM     11  N   UNL     1       0.508   9.657  22.738  0.00  0.00    +0.000 NA
ATOM     12  N   UNL     1       0.662  10.321  20.533  0.00  0.00    +0.000 N 
ATOM     13  C   UNL     1       1.101   9.953  19.297  0.00  0.00    +0.000 C 
ATOM     14  O   UNL     1       1.013  10.650  18.292  0.00  0.00    +0.000 OA
ATOM     15  H   UNL     1       0.760   8.835  23.295  0.00  0.00    +0.000 HD
ATOM     16  H   UNL     1       0.229  11.215  20.708  0.00  0.00    +0.000 HD
ENDBRANCH   3   7
BRANCH   1  18
ATOM     17  C   UNL     1       6.324   6.186  15.817  0.00  0.00    +0.000 C 
ATOM     18  C   UNL     1       5.944   4.983  16.724  0.00  0.00    +0.000 C 
ATOM     19  C   UNL     1       5.719   3.783  15.773  0.00  0.00    +0.000 C 
ATOM     20  C   UNL     1       7.173   4.720  17.617  0.00  0.00    +0.000 C 
ENDBRANCH   1  18
BRANCH   5  21
ATOM     21  C   UNL     1       2.127   3.194  19.795  0.00  0.00    +0.000 C 
ATOM     22  C   UNL     1       2.921   2.727  21.046  0.00  0.00    +0.000 C 
ATOM     23  C   UNL     1       0.747   3.665  20.310  0.00  0.00    +0.000 C 
ATOM     24  C   UNL     1       1.925   1.934  18.927  0.00  0.00    +0.000 C 
ENDBRANCH   5  21
BRANCH   6  25
ATOM     25  O   UNL     1       4.823   3.069  18.607  0.00  0.00    +0.000 OA
ATOM     26  H   UNL     1       4.197   2.335  18.690  0.00  0.00    +0.000 HD
ENDBRANCH   6  25
TORSDOF 4
ENDMDL
MODEL 7
REMARK VINA RESULT:      -7.8      1.198      1.618
REMARK  Name = 
REMARK  10 active torsions:
REMARK  status: ('A' for Active; 'I' for Inactive)
REMARK    1  A    between atoms: C_1  and  C_2
REMARK    2  A    between atoms: C_2  and  C_3
REMARK    3  A    between atoms: C_2  and  C_4
REMARK    4  A    between atoms: C_2  and  C_5
REMARK    5  A    between atoms: C_7  and  C_8
REMARK    6  A    between atoms: C_17  and  C_18
REMARK    7  A    between atoms: C_18  and  C_19
REMARK    8  A    between atoms: C_18  and  C_20
REMARK    9  A    between atoms: C_18  and  C_21
REMARK   10  A    between atoms: C_22  and  O_23
REMARK                            x       y       z     vdW  Elec       q    Type
REMARK                         _______ _______ _______ _____ _____    ______ ____
ROOT
ATOM      1  C   UNL     1       4.420   5.542  17.400  0.00  0.00    +0.000 A 
ATOM      2  C   UNL     1       3.727   6.765  17.461  0.00  0.00    +0.000 A 
ATOM      3  C   UNL     1       2.597   6.921  18.260  0.00  0.00    +0.000 A 
ATOM      4  C   UNL     1       2.083   5.823  18.951  0.00  0.00    +0.000 A 
ATOM      5  C   UNL     1       2.715   4.565  18.943  0.00  0.00    +0.000 A 
ATOM      6  C   UNL     1       3.920   4.483  18.205  0.00  0.00    +0.000 A 
ENDROOT
BRANCH   3   7
ATOM      7  C   UNL     1       1.966   8.233  18.411  0.00  0.00    +0.000 C 
ATOM      8  C   UNL     1       1.533   8.777  19.554  0.00  0.00    +0.000 C 
ATOM      9  S   UNL     1       1.595   8.097  21.143  0.00  0.00    +0.000 S 
ATOM     10  C   UNL     1       0.864   9.509  21.827  0.00  0.00    +0.000 C 
ATOM     11  N   UNL     1       0.618   9.673  23.065  0.00  0.00    +0.000 NA
ATOM     12  N   UNL     1       0.578  10.432  20.886  0.00  0.00    +0.000 N 
ATOM     13  C   UNL     1       0.920  10.126  19.603  0.00  0.00    +0.000 C 
ATOM     14  O   UNL     1       0.737  10.863  18.640  0.00  0.00    +0.000 OA
ATOM     15  H   UNL     1       0.929   8.834  23.563  0.00  0.00    +0.000 HD
ATOM     16  H   UNL     1       0.146  11.310  21.134  0.00  0.00    +0.000 HD
ENDBRANCH   3   7
BRANCH   1  18
ATOM     17  C   UNL     1       5.783   3.951  15.859  0.00  0.00    +0.000 C 
ATOM     18  C   UNL     1       5.640   5.377  16.460  0.00  0.00    +0.000 C 
ATOM     19  C   UNL     1       6.941   5.639  17.256  0.00  0.00    +0.000 C 
ATOM     20  C   UNL     1       5.561   6.338  15.256  0.00  0.00    +0.000 C 
ENDBRANCH   1  18
BRANCH   5  21
ATOM     21  C   UNL     1       2.073   3.366  19.688  0.00  0.00    +0.000 C 
ATOM     22  C   UNL     1       0.769   3.763  20.433  0.00  0.00    +0.000 C 
ATOM     23  C   UNL     1       1.676   2.258  18.684  0.00  0.00    +0.000 C 
ATOM     24  C   UNL     1       3.001   2.752  20.757  0.00  0.00    +0.000 C 
ENDBRANCH   5  21
BRANCH   6  25
ATOM     25  O   UNL     1       4.682   3.352  18.316  0.00  0.00    +0.000 OA
ATOM     26  H   UNL     1       4.109   2.597  18.117  0.00  0.00    +0.000 HD
ENDBRANCH   6  25
TORSDOF 4
ENDMDL
MODEL 8
REMARK VINA RESULT:      -6.9      1.748      2.517
REMARK  Name = 
REMARK  10 active torsions:
REMARK  status: ('A' for Active; 'I' for Inactive)
REMARK    1  A    between atoms: C_1  and  C_2
REMARK    2  A    between atoms: C_2  and  C_3
REMARK    3  A    between atoms: C_2  and  C_4
REMARK    4  A    between atoms: C_2  and  C_5
REMARK    5  A    between atoms: C_7  and  C_8
REMARK    6  A    between atoms: C_17  and  C_18
REMARK    7  A    between atoms: C_18  and  C_19
REMARK    8  A    between atoms: C_18  and  C_20
REMARK    9  A    between atoms: C_18  and  C_21
REMARK   10  A    between atoms: C_22  and  O_23
REMARK                            x       y       z     vdW  Elec       q    Type
REMARK                         _______ _______ _______ _____ _____    ______ ____
ROOT
ATOM      1  C   UNL     1       3.938   5.749  18.174  0.00  0.00    +0.000 A 
ATOM      2  C   UNL     1       3.361   6.853  18.827  0.00  0.00    +0.000 A 
ATOM      3  C   UNL     1       2.368   6.688  19.790  0.00  0.00    +0.000 A 
ATOM      4  C   UNL     1       1.868   5.413  20.056  0.00  0.00    +0.000 A 
ATOM      5  C   UNL     1       2.390   4.257  19.446  0.00  0.00    +0.000 A 
ATOM      6  C   UNL     1       3.472   4.463  18.556  0.00  0.00    +0.000 A 
ENDROOT
BRANCH   3   7
ATOM      7  C   UNL     1       1.869   7.836  20.552  0.00  0.00    +0.000 C 
ATOM      8  C   UNL     1       1.302   8.936  20.044  0.00  0.00    +0.000 C 
ATOM      9  S   UNL     1       1.003   9.306  18.382  0.00  0.00    +0.000 S 
ATOM     10  C   UNL     1       0.273  10.819  18.801  0.00  0.00    +0.000 C 
ATOM     11  N   UNL     1      -0.214  11.646  17.966  0.00  0.00    +0.000 NA
ATOM     12  N   UNL     1       0.277  11.026  20.134  0.00  0.00    +0.000 N 
ATOM     13  C   UNL     1       0.813  10.040  20.906  0.00  0.00    +0.000 C 
ATOM     14  O   UNL     1       0.880  10.073  22.130  0.00  0.00    +0.000 OA
ATOM     15  H   UNL     1      -0.095  11.256  17.027  0.00  0.00    +0.000 HD
ATOM     16  H   UNL     1      -0.114  11.868  20.529  0.00  0.00    +0.000 HD
ENDBRANCH   3   7
BRANCH   1  18
ATOM     17  C   UNL     1       5.054   4.815  16.018  0.00  0.00    +0.000 C 
ATOM     18  C   UNL     1       5.000   5.961  17.065  0.00  0.00    +0.000 C 
ATOM     19  C   UNL     1       6.407   6.021  17.708  0.00  0.00    +0.000 C 
ATOM     20  C   UNL     1       4.734   7.253  16.266  0.00  0.00    +0.000 C 
ENDBRANCH   1  18
BRANCH   5  21
ATOM     21  C   UNL     1       1.763   2.869  19.741  0.00  0.00    +0.000 C 
ATOM     22  C   UNL     1       2.774   1.709  19.538  0.00  0.00    +0.000 C 
ATOM     23  C   UNL     1       1.303   2.789  21.215  0.00  0.00    +0.000 C 
ATOM     24  C   UNL     1       0.559   2.546  18.831  0.00  0.00    +0.000 C 
ENDBRANCH   5  21
BRANCH   6  25
ATOM     25  O   UNL     1       4.149   3.372  18.083  0.00  0.00    +0.000 OA
ATOM     26  H   UNL     1       3.491   2.695  17.866  0.00  0.00    +0.000 HD
ENDBRANCH   6  25
TORSDOF 4
ENDMDL
