MODEL 1
REMARK VINA RESULT:      -7.4      0.000      0.000
REMARK  Name = 
REMARK  9 active torsions:
REMARK  status: ('A' for Active; 'I' for Inactive)
REMARK    1  A    between atoms: C_1  and  C_2
REMARK    2  A    between atoms: C_2  and  C_3
REMARK    3  A    between atoms: C_2  and  C_4
REMARK    4  A    between atoms: C_4  and  C_6
REMARK    5  A    between atoms: C_7  and  O_8
REMARK    6  A    between atoms: C_10  and  O_11
REMARK    7  A    between atoms: O_11  and  C_12
REMARK    8  A    between atoms: C_12  and  C_13
REMARK    9  A    between atoms: C_22  and  O_23
REMARK                            x       y       z     vdW  Elec       q    Type
REMARK                         _______ _______ _______ _____ _____    ______ ____
ROOT
ATOM      1  C   UNL     1       6.387   5.345  15.590  0.00  0.00    +0.000 A 
ATOM      2  C   UNL     1       6.781   4.695  16.770  0.00  0.00    +0.000 A 
ATOM      3  C   UNL     1       6.082   4.868  17.961  0.00  0.00    +0.000 A 
ATOM      4  C   UNL     1       5.019   5.765  18.019  0.00  0.00    +0.000 A 
ATOM      5  C   UNL     1       4.622   6.438  16.860  0.00  0.00    +0.000 A 
ATOM      6  C   UNL     1       5.307   6.235  15.654  0.00  0.00    +0.000 A 
ENDROOT
BRANCH   1   7
ATOM      7  C   UNL     1       7.163   5.067  14.347  0.00  0.00    +0.000 C 
ATOM      8  O   UNL     1       8.188   5.736  14.175  0.00  0.00    +0.000 OA
BRANCH   7  10
ATOM      9  C   UNL     1       5.227   3.758  13.433  0.00  0.00    +0.000 C 
ATOM     10  C   UNL     1       6.745   3.956  13.378  0.00  0.00    +0.000 C 
ATOM     11  C   UNL     1       7.165   4.275  11.944  0.00  0.00    +0.000 C 
ENDBRANCH   7  10
ENDBRANCH   1   7
BRANCH   2  12
ATOM     12  O   UNL     1       7.878   3.875  16.847  0.00  0.00    +0.000 OA
ATOM     13  H   UNL     1       7.601   2.984  16.532  0.00  0.00    +0.000 HD
ENDBRANCH   2  12
BRANCH   6  14
ATOM     14  O   UNL     1       4.930   6.959  14.558  0.00  0.00    +0.000 OA
ATOM     15  H   UNL     1       4.171   7.521  14.786  0.00  0.00    +0.000 HD
ENDBRANCH   6  14
BRANCH   4  16
ATOM     16  O   UNL     1       4.319   6.068  19.156  0.00  0.00    +0.000 OA
BRANCH  16  17
ATOM     17  C   UNL     1       2.894   5.974  19.023  0.00  0.00    +0.000 C 
BRANCH  17  18
ATOM     18  C   UNL     1       2.405   4.653  19.546  0.00  0.00    +0.000 A 
ATOM     19  C   UNL     1       2.066   4.535  20.899  0.00  0.00    +0.000 A 
ATOM     20  F   UNL     1       2.208   5.588  21.717  0.00  0.00    +0.000 F 
ATOM     21  C   UNL     1       1.555   3.353  21.429  0.00  0.00    +0.000 A 
ATOM     22  C   UNL     1       1.371   2.251  20.603  0.00  0.00    +0.000 A 
ATOM     23  C   UNL     1       1.692   2.343  19.248  0.00  0.00    +0.000 A 
ATOM     24  C   UNL     1       2.197   3.538  18.721  0.00  0.00    +0.000 A 
ATOM     25 CL   UNL     1       2.502   3.585  17.019  0.00  0.00    +0.000 Cl
ENDBRANCH  17  18
ENDBRANCH  16  17
ENDBRANCH   4  16
TORSDOF 7
ENDMDL
MODEL 2
REMARK VINA RESULT:      -7.2      2.472      3.966
REMARK  Name = 
REMARK  9 active torsions:
REMARK  status: ('A' for Active; 'I' for Inactive)
REMARK    1  A    between atoms: C_1  and  C_2
REMARK    2  A    between atoms: C_2  and  C_3
REMARK    3  A    between atoms: C_2  and  C_4
REMARK    4  A    between atoms: C_4  and  C_6
REMARK    5  A    between atoms: C_7  and  O_8
REMARK    6  A    between atoms: C_10  and  O_11
REMARK    7  A    between atoms: O_11  and  C_12
REMARK    8  A    between atoms: C_12  and  C_13
REMARK    9  A    between atoms: C_22  and  O_23
REMARK                            x       y       z     vdW  Elec       q    Type
REMARK                         _______ _______ _______ _____ _____    ______ ____
ROOT
ATOM      1  C   UNL     1       5.633   5.775  17.153  0.00  0.00    +0.000 A 
ATOM      2  C   UNL     1       4.313   6.131  17.473  0.00  0.00    +0.000 A 
ATOM      3  C   UNL     1       3.279   5.202  17.425  0.00  0.00    +0.000 A 
ATOM      4  C   UNL     1       3.527   3.909  16.973  0.00  0.00    +0.000 A 
ATOM      5  C   UNL     1       4.830   3.537  16.629  0.00  0.00    +0.000 A 
ATOM      6  C   UNL     1       5.875   4.467  16.711  0.00  0.00    +0.000 A 
ENDROOT
BRANCH   1   7
ATOM      7  C   UNL     1       6.689   6.821  17.275  0.00  0.00    +0.000 C 
ATOM      8  O   UNL     1       6.518   7.856  16.623  0.00  0.00    +0.000 OA
BRANCH   7  10
ATOM      9  C   UNL     1       8.428   8.013  18.637  0.00  0.00    +0.000 C 
ATOM     10  C   UNL     1       7.881   6.643  18.221  0.00  0.00    +0.000 C 
ATOM     11  C   UNL     1       7.495   5.850  19.469  0.00  0.00    +0.000 C 
ENDBRANCH   7  10
ENDBRANCH   1   7
BRANCH   2  12
ATOM     12  O   UNL     1       3.943   7.404  17.827  0.00  0.00    +0.000 OA
ATOM     13  H   UNL     1       4.667   8.009  17.543  0.00  0.00    +0.000 HD
ENDBRANCH   2  12
BRANCH   6  14
ATOM     14  O   UNL     1       7.123   4.086  16.306  0.00  0.00    +0.000 OA
ATOM     15  H   UNL     1       7.791   4.641  16.742  0.00  0.00    +0.000 HD
ENDBRANCH   6  14
BRANCH   4  16
ATOM     16  O   UNL     1       2.568   2.944  16.812  0.00  0.00    +0.000 OA
BRANCH  16  17
ATOM     17  C   UNL     1       2.652   1.858  17.743  0.00  0.00    +0.000 C 
BRANCH  17  18
ATOM     18  C   UNL     1       2.314   2.328  19.129  0.00  0.00    +0.000 A 
ATOM     19  C   UNL     1       0.991   2.669  19.432  0.00  0.00    +0.000 A 
ATOM     20  F   UNL     1       0.048   2.601  18.481  0.00  0.00    +0.000 F 
ATOM     21  C   UNL     1       0.607   3.058  20.714  0.00  0.00    +0.000 A 
ATOM     22  C   UNL     1       1.554   3.115  21.729  0.00  0.00    +0.000 A 
ATOM     23  C   UNL     1       2.879   2.772  21.457  0.00  0.00    +0.000 A 
ATOM     24  C   UNL     1       3.255   2.373  20.169  0.00  0.00    +0.000 A 
ATOM     25 CL   UNL     1       4.902   1.899  19.937  0.00  0.00    +0.000 Cl
ENDBRANCH  17  18
ENDBRANCH  16  17
ENDBRANCH   4  16
TORSDOF 7
ENDMDL
MODEL 3
REMARK VINA RESULT:      -7.1      1.591      1.792
REMARK  Name = 
REMARK  9 active torsions:
REMARK  status: ('A' for Active; 'I' for Inactive)
REMARK    1  A    between atoms: C_1  and  C_2
REMARK    2  A    between atoms: C_2  and  C_3
REMARK    3  A    between atoms: C_2  and  C_4
REMARK    4  A    between atoms: C_4  and  C_6
REMARK    5  A    between atoms: C_7  and  O_8
REMARK    6  A    between atoms: C_10  and  O_11
REMARK    7  A    between atoms: O_11  and  C_12
REMARK    8  A    between atoms: C_12  and  C_13
REMARK    9  A    between atoms: C_22  and  O_23
REMARK                            x       y       z     vdW  Elec       q    Type
REMARK                         _______ _______ _______ _____ _____    ______ ____
ROOT
ATOM      1  C   UNL     1       6.440   5.300  15.534  0.00  0.00    +0.000 A 
ATOM      2  C   UNL     1       6.860   4.636  16.698  0.00  0.00    +0.000 A 
ATOM      3  C   UNL     1       6.177   4.780  17.902  0.00  0.00    +0.000 A 
ATOM      4  C   UNL     1       5.103   5.662  17.990  0.00  0.00    +0.000 A 
ATOM      5  C   UNL     1       4.679   6.348  16.848  0.00  0.00    +0.000 A 
ATOM      6  C   UNL     1       5.350   6.174  15.630  0.00  0.00    +0.000 A 
ENDROOT
BRANCH   1   7
ATOM      7  C   UNL     1       7.202   5.053  14.276  0.00  0.00    +0.000 C 
ATOM      8  O   UNL     1       8.224   5.728  14.108  0.00  0.00    +0.000 OA
BRANCH   7  10
ATOM      9  C   UNL     1       5.258   3.756  13.362  0.00  0.00    +0.000 C 
ATOM     10  C   UNL     1       6.774   3.966  13.286  0.00  0.00    +0.000 C 
ATOM     11  C   UNL     1       7.166   4.324  11.854  0.00  0.00    +0.000 C 
ENDBRANCH   7  10
ENDBRANCH   1   7
BRANCH   2  12
ATOM     12  O   UNL     1       7.970   3.831  16.746  0.00  0.00    +0.000 OA
ATOM     13  H   UNL     1       8.695   4.302  16.273  0.00  0.00    +0.000 HD
ENDBRANCH   2  12
BRANCH   6  14
ATOM     14  O   UNL     1       4.947   6.911  14.551  0.00  0.00    +0.000 OA
ATOM     15  H   UNL     1       5.621   6.859  13.853  0.00  0.00    +0.000 HD
ENDBRANCH   6  14
BRANCH   4  16
ATOM     16  O   UNL     1       4.415   5.936  19.142  0.00  0.00    +0.000 OA
BRANCH  16  17
ATOM     17  C   UNL     1       4.300   4.829  20.046  0.00  0.00    +0.000 C 
BRANCH  17  18
ATOM     18  C   UNL     1       3.041   4.056  19.770  0.00  0.00    +0.000 A 
ATOM     19  C   UNL     1       3.135   2.762  19.246  0.00  0.00    +0.000 A 
ATOM     20  F   UNL     1       4.337   2.238  18.969  0.00  0.00    +0.000 F 
ATOM     21  C   UNL     1       2.006   1.976  19.022  0.00  0.00    +0.000 A 
ATOM     22  C   UNL     1       0.746   2.479  19.321  0.00  0.00    +0.000 A 
ATOM     23  C   UNL     1       0.625   3.763  19.854  0.00  0.00    +0.000 A 
ATOM     24  C   UNL     1       1.764   4.543  20.085  0.00  0.00    +0.000 A 
ATOM     25 CL   UNL     1       1.527   6.095  20.811  0.00  0.00    +0.000 Cl
ENDBRANCH  17  18
ENDBRANCH  16  17
ENDBRANCH   4  16
TORSDOF 7
ENDMDL
MODEL 4
REMARK VINA RESULT:      -7.1      4.392      7.247
REMARK  Name = 
REMARK  9 active torsions:
REMARK  status: ('A' for Active; 'I' for Inactive)
REMARK    1  A    between atoms: C_1  and  C_2
REMARK    2  A    between atoms: C_2  and  C_3
REMARK    3  A    between atoms: C_2  and  C_4
REMARK    4  A    between atoms: C_4  and  C_6
REMARK    5  A    between atoms: C_7  and  O_8
REMARK    6  A    between atoms: C_10  and  O_11
REMARK    7  A    between atoms: O_11  and  C_12
REMARK    8  A    between atoms: C_12  and  C_13
REMARK    9  A    between atoms: C_22  and  O_23
REMARK                            x       y       z     vdW  Elec       q    Type
REMARK                         _______ _______ _______ _____ _____    ______ ____
ROOT
ATOM      1  C   UNL     1       0.835  10.066  19.516  0.00  0.00    +0.000 A 
ATOM      2  C   UNL     1       1.603   9.415  18.537  0.00  0.00    +0.000 A 
ATOM      3  C   UNL     1       2.102   8.133  18.740  0.00  0.00    +0.000 A 
ATOM      4  C   UNL     1       1.916   7.501  19.966  0.00  0.00    +0.000 A 
ATOM      5  C   UNL     1       1.172   8.138  20.963  0.00  0.00    +0.000 A 
ATOM      6  C   UNL     1       0.642   9.416  20.742  0.00  0.00    +0.000 A 
ENDROOT
BRANCH   1   7
ATOM      7  C   UNL     1       0.300  11.420  19.199  0.00  0.00    +0.000 C 
ATOM      8  O   UNL     1       1.095  12.363  19.283  0.00  0.00    +0.000 OA
BRANCH   7  10
ATOM      9  C   UNL     1      -1.704  10.289  18.197  0.00  0.00    +0.000 C 
ATOM     10  C   UNL     1      -1.142  11.615  18.720  0.00  0.00    +0.000 C 
ATOM     11  C   UNL     1      -2.040  12.140  19.839  0.00  0.00    +0.000 C 
ENDBRANCH   7  10
ENDBRANCH   1   7
BRANCH   2  12
ATOM     12  O   UNL     1       1.935   9.992  17.337  0.00  0.00    +0.000 OA
ATOM     13  H   UNL     1       1.820   9.305  16.640  0.00  0.00    +0.000 HD
ENDBRANCH   2  12
BRANCH   6  14
ATOM     14  O   UNL     1      -0.025  10.033  21.763  0.00  0.00    +0.000 OA
ATOM     15  H   UNL     1      -0.690   9.426  22.130  0.00  0.00    +0.000 HD
ENDBRANCH   6  14
BRANCH   4  16
ATOM     16  O   UNL     1       2.434   6.276  20.296  0.00  0.00    +0.000 OA
BRANCH  16  17
ATOM     17  C   UNL     1       1.481   5.205  20.289  0.00  0.00    +0.000 C 
BRANCH  17  18
ATOM     18  C   UNL     1       1.985   4.060  19.456  0.00  0.00    +0.000 A 
ATOM     19  C   UNL     1       2.004   4.185  18.063  0.00  0.00    +0.000 A 
ATOM     20  F   UNL     1       1.549   5.306  17.485  0.00  0.00    +0.000 F 
ATOM     21  C   UNL     1       2.511   3.181  17.241  0.00  0.00    +0.000 A 
ATOM     22  C   UNL     1       3.015   2.016  17.808  0.00  0.00    +0.000 A 
ATOM     23  C   UNL     1       3.016   1.869  19.195  0.00  0.00    +0.000 A 
ATOM     24  C   UNL     1       2.513   2.887  20.014  0.00  0.00    +0.000 A 
ATOM     25 CL   UNL     1       2.618   2.650  21.725  0.00  0.00    +0.000 Cl
ENDBRANCH  17  18
ENDBRANCH  16  17
ENDBRANCH   4  16
TORSDOF 7
ENDMDL
MODEL 5
REMARK VINA RESULT:      -7.0      4.422      7.180
REMARK  Name = 
REMARK  9 active torsions:
REMARK  status: ('A' for Active; 'I' for Inactive)
REMARK    1  A    between atoms: C_1  and  C_2
REMARK    2  A    between atoms: C_2  and  C_3
REMARK    3  A    between atoms: C_2  and  C_4
REMARK    4  A    between atoms: C_4  and  C_6
REMARK    5  A    between atoms: C_7  and  O_8
REMARK    6  A    between atoms: C_10  and  O_11
REMARK    7  A    between atoms: O_11  and  C_12
REMARK    8  A    between atoms: C_12  and  C_13
REMARK    9  A    between atoms: C_22  and  O_23
REMARK                            x       y       z     vdW  Elec       q    Type
REMARK                         _______ _______ _______ _____ _____    ______ ____
ROOT
ATOM      1  C   UNL     1       0.847  10.031  19.468  0.00  0.00    +0.000 A 
ATOM      2  C   UNL     1       0.551   9.420  20.697  0.00  0.00    +0.000 A 
ATOM      3  C   UNL     1       1.088   8.184  21.040  0.00  0.00    +0.000 A 
ATOM      4  C   UNL     1       1.871   7.487  20.123  0.00  0.00    +0.000 A 
ATOM      5  C   UNL     1       2.163   8.068  18.886  0.00  0.00    +0.000 A 
ATOM      6  C   UNL     1       1.647   9.329  18.557  0.00  0.00    +0.000 A 
ENDROOT
BRANCH   1   7
ATOM      7  C   UNL     1       0.266  11.378  19.200  0.00  0.00    +0.000 C 
ATOM      8  O   UNL     1       0.934  12.351  19.566  0.00  0.00    +0.000 OA
BRANCH   7  10
ATOM      9  C   UNL     1      -1.514  10.182  17.896  0.00  0.00    +0.000 C 
ATOM     10  C   UNL     1      -1.055  11.539  18.441  0.00  0.00    +0.000 C 
ATOM     11  C   UNL     1      -2.148  12.124  19.333  0.00  0.00    +0.000 C 
ENDBRANCH   7  10
ENDBRANCH   1   7
BRANCH   2  12
ATOM     12  O   UNL     1      -0.295   9.971  21.627  0.00  0.00    +0.000 OA
ATOM     13  H   UNL     1      -0.455   9.288  22.319  0.00  0.00    +0.000 HD
ENDBRANCH   2  12
BRANCH   6  14
ATOM     14  O   UNL     1       1.901   9.835  17.314  0.00  0.00    +0.000 OA
ATOM     15  H   UNL     1       1.330   9.395  16.661  0.00  0.00    +0.000 HD
ENDBRANCH   6  14
BRANCH   4  16
ATOM     16  O   UNL     1       2.380   6.233  20.331  0.00  0.00    +0.000 OA
BRANCH  16  17
ATOM     17  C   UNL     1       1.409   5.179  20.286  0.00  0.00    +0.000 C 
BRANCH  17  18
ATOM     18  C   UNL     1       1.911   4.039  19.447  0.00  0.00    +0.000 A 
ATOM     19  C   UNL     1       1.907   4.161  18.053  0.00  0.00    +0.000 A 
ATOM     20  F   UNL     1       1.432   5.277  17.481  0.00  0.00    +0.000 F 
ATOM     21  C   UNL     1       2.411   3.160  17.226  0.00  0.00    +0.000 A 
ATOM     22  C   UNL     1       2.935   2.001  17.786  0.00  0.00    +0.000 A 
ATOM     23  C   UNL     1       2.959   1.857  19.174  0.00  0.00    +0.000 A 
ATOM     24  C   UNL     1       2.459   2.871  19.999  0.00  0.00    +0.000 A 
ATOM     25 CL   UNL     1       2.592   2.639  21.708  0.00  0.00    +0.000 Cl
ENDBRANCH  17  18
ENDBRANCH  16  17
ENDBRANCH   4  16
TORSDOF 7
ENDMDL
MODEL 6
REMARK VINA RESULT:      -6.9      4.312      5.918
REMARK  Name = 
REMARK  9 active torsions:
REMARK  status: ('A' for Active; 'I' for Inactive)
REMARK    1  A    between atoms: C_1  and  C_2
REMARK    2  A    between atoms: C_2  and  C_3
REMARK    3  A    between atoms: C_2  and  C_4
REMARK    4  A    between atoms: C_4  and  C_6
REMARK    5  A    between atoms: C_7  and  O_8
REMARK    6  A    between atoms: C_10  and  O_11
REMARK    7  A    between atoms: O_11  and  C_12
REMARK    8  A    between atoms: C_12  and  C_13
REMARK    9  A    between atoms: C_22  and  O_23
REMARK                            x       y       z     vdW  Elec       q    Type
REMARK                         _______ _______ _______ _____ _____    ______ ____
ROOT
ATOM      1  C   UNL     1       3.570   4.993  19.217  0.00  0.00    +0.000 A 
ATOM      2  C   UNL     1       2.806   4.485  20.280  0.00  0.00    +0.000 A 
ATOM      3  C   UNL     1       1.819   5.250  20.894  0.00  0.00    +0.000 A 
ATOM      4  C   UNL     1       1.630   6.575  20.513  0.00  0.00    +0.000 A 
ATOM      5  C   UNL     1       2.392   7.108  19.470  0.00  0.00    +0.000 A 
ATOM      6  C   UNL     1       3.362   6.324  18.831  0.00  0.00    +0.000 A 
ENDROOT
BRANCH   1   7
ATOM      7  C   UNL     1       4.575   4.091  18.585  0.00  0.00    +0.000 C 
ATOM      8  O   UNL     1       5.622   3.903  19.215  0.00  0.00    +0.000 OA
BRANCH   7  10
ATOM      9  C   UNL     1       2.772   3.278  17.040  0.00  0.00    +0.000 C 
ATOM     10  C   UNL     1       4.285   3.380  17.259  0.00  0.00    +0.000 C 
ATOM     11  C   UNL     1       4.922   4.111  16.078  0.00  0.00    +0.000 C 
ENDBRANCH   7  10
ENDBRANCH   1   7
BRANCH   2  12
ATOM     12  O   UNL     1       2.987   3.230  20.803  0.00  0.00    +0.000 OA
ATOM     13  H   UNL     1       2.129   2.753  20.724  0.00  0.00    +0.000 HD
ENDBRANCH   2  12
BRANCH   6  14
ATOM     14  O   UNL     1       4.132   6.900  17.860  0.00  0.00    +0.000 OA
ATOM     15  H   UNL     1       4.809   6.268  17.565  0.00  0.00    +0.000 HD
ENDBRANCH   6  14
BRANCH   4  16
ATOM     16  O   UNL     1       0.743   7.435  21.106  0.00  0.00    +0.000 OA
BRANCH  16  17
ATOM     17  C   UNL     1       1.324   8.653  21.589  0.00  0.00    +0.000 C 
BRANCH  17  18
ATOM     18  C   UNL     1       0.285   9.734  21.670  0.00  0.00    +0.000 A 
ATOM     19  C   UNL     1      -0.297  10.033  22.907  0.00  0.00    +0.000 A 
ATOM     20  F   UNL     1       0.056   9.337  23.997  0.00  0.00    +0.000 F 
ATOM     21  C   UNL     1      -1.224  11.062  23.054  0.00  0.00    +0.000 A 
ATOM     22  C   UNL     1      -1.594  11.820  21.949  0.00  0.00    +0.000 A 
ATOM     23  C   UNL     1      -1.022  11.549  20.705  0.00  0.00    +0.000 A 
ATOM     24  C   UNL     1      -0.084  10.520  20.567  0.00  0.00    +0.000 A 
ATOM     25 CL   UNL     1       0.624  10.298  19.005  0.00  0.00    +0.000 Cl
ENDBRANCH  17  18
ENDBRANCH  16  17
ENDBRANCH   4  16
TORSDOF 7
ENDMDL
MODEL 7
REMARK VINA RESULT:      -6.8      4.470      7.258
REMARK  Name = 
REMARK  9 active torsions:
REMARK  status: ('A' for Active; 'I' for Inactive)
REMARK    1  A    between atoms: C_1  and  C_2
REMARK    2  A    between atoms: C_2  and  C_3
REMARK    3  A    between atoms: C_2  and  C_4
REMARK    4  A    between atoms: C_4  and  C_6
REMARK    5  A    between atoms: C_7  and  O_8
REMARK    6  A    between atoms: C_10  and  O_11
REMARK    7  A    between atoms: O_11  and  C_12
REMARK    8  A    between atoms: C_12  and  C_13
REMARK    9  A    between atoms: C_22  and  O_23
REMARK                            x       y       z     vdW  Elec       q    Type
REMARK                         _______ _______ _______ _____ _____    ______ ____
ROOT
ATOM      1  C   UNL     1       0.972  10.101  19.509  0.00  0.00    +0.000 A 
ATOM      2  C   UNL     1       1.649   9.376  18.515  0.00  0.00    +0.000 A 
ATOM      3  C   UNL     1       2.087   8.075  18.739  0.00  0.00    +0.000 A 
ATOM      4  C   UNL     1       1.933   7.495  19.995  0.00  0.00    +0.000 A 
ATOM      5  C   UNL     1       1.279   8.206  21.006  0.00  0.00    +0.000 A 
ATOM      6  C   UNL     1       0.809   9.504  20.766  0.00  0.00    +0.000 A 
ENDROOT
BRANCH   1   7
ATOM      7  C   UNL     1       0.495  11.473  19.171  0.00  0.00    +0.000 C 
ATOM      8  O   UNL     1      -0.560  11.549  18.532  0.00  0.00    +0.000 OA
BRANCH   7  10
ATOM      9  C   UNL     1       2.275  13.152  18.614  0.00  0.00    +0.000 C 
ATOM     10  C   UNL     1       1.242  12.718  19.659  0.00  0.00    +0.000 C 
ATOM     11  C   UNL     1       0.283  13.875  19.936  0.00  0.00    +0.000 C 
ENDBRANCH   7  10
ENDBRANCH   1   7
BRANCH   2  12
ATOM     12  O   UNL     1       1.948   9.892  17.280  0.00  0.00    +0.000 OA
ATOM     13  H   UNL     1       1.793  10.864  17.323  0.00  0.00    +0.000 HD
ENDBRANCH   2  12
BRANCH   6  14
ATOM     14  O   UNL     1       0.233  10.192  21.797  0.00  0.00    +0.000 OA
ATOM     15  H   UNL     1      -0.059  11.064  21.483  0.00  0.00    +0.000 HD
ENDBRANCH   6  14
BRANCH   4  16
ATOM     16  O   UNL     1       2.399   6.255  20.342  0.00  0.00    +0.000 OA
BRANCH  16  17
ATOM     17  C   UNL     1       1.421   5.209  20.273  0.00  0.00    +0.000 C 
BRANCH  17  18
ATOM     18  C   UNL     1       1.935   4.064  19.448  0.00  0.00    +0.000 A 
ATOM     19  C   UNL     1       1.948   4.178  18.053  0.00  0.00    +0.000 A 
ATOM     20  F   UNL     1       1.478   5.289  17.468  0.00  0.00    +0.000 F 
ATOM     21  C   UNL     1       2.464   3.173  17.237  0.00  0.00    +0.000 A 
ATOM     22  C   UNL     1       2.982   2.018  17.812  0.00  0.00    +0.000 A 
ATOM     23  C   UNL     1       2.989   1.882  19.200  0.00  0.00    +0.000 A 
ATOM     24  C   UNL     1       2.478   2.901  20.013  0.00  0.00    +0.000 A 
ATOM     25 CL   UNL     1       2.590   2.679  21.725  0.00  0.00    +0.000 Cl
ENDBRANCH  17  18
ENDBRANCH  16  17
ENDBRANCH   4  16
TORSDOF 7
ENDMDL
MODEL 8
REMARK VINA RESULT:      -6.8      3.803      6.963
REMARK  Name = 
REMARK  9 active torsions:
REMARK  status: ('A' for Active; 'I' for Inactive)
REMARK    1  A    between atoms: C_1  and  C_2
REMARK    2  A    between atoms: C_2  and  C_3
REMARK    3  A    between atoms: C_2  and  C_4
REMARK    4  A    between atoms: C_4  and  C_6
REMARK    5  A    between atoms: C_7  and  O_8
REMARK    6  A    between atoms: C_10  and  O_11
REMARK    7  A    between atoms: O_11  and  C_12
REMARK    8  A    between atoms: C_12  and  C_13
REMARK    9  A    between atoms: C_22  and  O_23
REMARK                            x       y       z     vdW  Elec       q    Type
REMARK                         _______ _______ _______ _____ _____    ______ ____
ROOT
ATOM      1  C   UNL     1       1.302   9.026  19.500  0.00  0.00    +0.000 A 
ATOM      2  C   UNL     1       1.858   9.167  18.219  0.00  0.00    +0.000 A 
ATOM      3  C   UNL     1       2.738   8.222  17.702  0.00  0.00    +0.000 A 
ATOM      4  C   UNL     1       3.150   7.151  18.491  0.00  0.00    +0.000 A 
ATOM      5  C   UNL     1       2.624   7.001  19.777  0.00  0.00    +0.000 A 
ATOM      6  C   UNL     1       1.712   7.937  20.282  0.00  0.00    +0.000 A 
ENDROOT
BRANCH   1   7
ATOM      7  C   UNL     1       0.331  10.061  19.959  0.00  0.00    +0.000 C 
ATOM      8  O   UNL     1      -0.798  10.019  19.458  0.00  0.00    +0.000 OA
BRANCH   7  10
ATOM      9  C   UNL     1       1.059  12.419  20.414  0.00  0.00    +0.000 C 
ATOM     10  C   UNL     1       0.700  11.071  21.049  0.00  0.00    +0.000 C 
ATOM     11  C   UNL     1      -0.442  11.267  22.044  0.00  0.00    +0.000 C 
ENDBRANCH   7  10
ENDBRANCH   1   7
BRANCH   2  12
ATOM     12  O   UNL     1       1.603  10.240  17.403  0.00  0.00    +0.000 OA
ATOM     13  H   UNL     1       1.366   9.884  16.516  0.00  0.00    +0.000 HD
ENDBRANCH   2  12
BRANCH   6  14
ATOM     14  O   UNL     1       1.269   7.792  21.566  0.00  0.00    +0.000 OA
ATOM     15  H   UNL     1       0.311   7.952  21.600  0.00  0.00    +0.000 HD
ENDBRANCH   6  14
BRANCH   4  16
ATOM     16  O   UNL     1       4.071   6.213  18.108  0.00  0.00    +0.000 OA
BRANCH  16  17
ATOM     17  C   UNL     1       3.538   5.139  17.322  0.00  0.00    +0.000 C 
BRANCH  17  18
ATOM     18  C   UNL     1       2.851   4.135  18.204  0.00  0.00    +0.000 A 
ATOM     19  C   UNL     1       1.485   3.888  18.024  0.00  0.00    +0.000 A 
ATOM     20  F   UNL     1       0.800   4.565  17.091  0.00  0.00    +0.000 F 
ATOM     21  C   UNL     1       0.806   2.929  18.773  0.00  0.00    +0.000 A 
ATOM     22  C   UNL     1       1.491   2.192  19.731  0.00  0.00    +0.000 A 
ATOM     23  C   UNL     1       2.855   2.412  19.925  0.00  0.00    +0.000 A 
ATOM     24  C   UNL     1       3.532   3.371  19.162  0.00  0.00    +0.000 A 
ATOM     25 CL   UNL     1       5.235   3.529  19.421  0.00  0.00    +0.000 Cl
ENDBRANCH  17  18
ENDBRANCH  16  17
ENDBRANCH   4  16
TORSDOF 7
ENDMDL
MODEL 9
REMARK VINA RESULT:      -6.7      4.330      7.585
REMARK  Name = 
REMARK  9 active torsions:
REMARK  status: ('A' for Active; 'I' for Inactive)
REMARK    1  A    between atoms: C_1  and  C_2
REMARK    2  A    between atoms: C_2  and  C_3
REMARK    3  A    between atoms: C_2  and  C_4
REMARK    4  A    between atoms: C_4  and  C_6
REMARK    5  A    between atoms: C_7  and  O_8
REMARK    6  A    between atoms: C_10  and  O_11
REMARK    7  A    between atoms: O_11  and  C_12
REMARK    8  A    between atoms: C_12  and  C_13
REMARK    9  A    between atoms: C_22  and  O_23
REMARK                            x       y       z     vdW  Elec       q    Type
REMARK                         _______ _______ _______ _____ _____    ______ ____
ROOT
ATOM      1  C   UNL     1       0.603   9.870  20.028  0.00  0.00    +0.000 A 
ATOM      2  C   UNL     1       0.976   9.873  18.674  0.00  0.00    +0.000 A 
ATOM      3  C   UNL     1       1.726   8.838  18.126  0.00  0.00    +0.000 A 
ATOM      4  C   UNL     1       2.196   7.812  18.942  0.00  0.00    +0.000 A 
ATOM      5  C   UNL     1       1.854   7.799  20.297  0.00  0.00    +0.000 A 
ATOM      6  C   UNL     1       1.069   8.826  20.838  0.00  0.00    +0.000 A 
ENDROOT
BRANCH   1   7
ATOM      7  C   UNL     1      -0.241  10.995  20.523  0.00  0.00    +0.000 C 
ATOM      8  O   UNL     1      -1.396  11.052  20.086  0.00  0.00    +0.000 OA
BRANCH   7  10
ATOM      9  C   UNL     1       0.987  13.153  20.890  0.00  0.00    +0.000 C 
ATOM     10  C   UNL     1       0.280  11.978  21.575  0.00  0.00    +0.000 C 
ATOM     11  C   UNL     1      -0.849  12.510  22.456  0.00  0.00    +0.000 C 
ENDBRANCH   7  10
ENDBRANCH   1   7
BRANCH   2  12
ATOM     12  O   UNL     1       0.657  10.889  17.809  0.00  0.00    +0.000 OA
ATOM     13  H   UNL     1       0.255  11.613  18.343  0.00  0.00    +0.000 HD
ENDBRANCH   2  12
BRANCH   6  14
ATOM     14  O   UNL     1       0.809   8.813  22.180  0.00  0.00    +0.000 OA
ATOM     15  H   UNL     1       1.572   9.175  22.662  0.00  0.00    +0.000 HD
ENDBRANCH   6  14
BRANCH   4  16
ATOM     16  O   UNL     1       3.007   6.793  18.519  0.00  0.00    +0.000 OA
BRANCH  16  17
ATOM     17  C   UNL     1       3.293   5.804  19.517  0.00  0.00    +0.000 C 
BRANCH  17  18
ATOM     18  C   UNL     1       2.622   4.504  19.176  0.00  0.00    +0.000 A 
ATOM     19  C   UNL     1       1.483   4.114  19.890  0.00  0.00    +0.000 A 
ATOM     20  F   UNL     1       1.021   4.885  20.885  0.00  0.00    +0.000 F 
ATOM     21  C   UNL     1       0.786   2.948  19.582  0.00  0.00    +0.000 A 
ATOM     22  C   UNL     1       1.223   2.139  18.540  0.00  0.00    +0.000 A 
ATOM     23  C   UNL     1       2.350   2.509  17.806  0.00  0.00    +0.000 A 
ATOM     24  C   UNL     1       3.040   3.687  18.115  0.00  0.00    +0.000 A 
ATOM     25 CL   UNL     1       4.384   4.104  17.110  0.00  0.00    +0.000 Cl
ENDBRANCH  17  18
ENDBRANCH  16  17
ENDBRANCH   4  16
TORSDOF 7
ENDMDL
