MODEL 1
REMARK VINA RESULT:      -7.2      0.000      0.000
REMARK  Name = 
REMARK  7 active torsions:
REMARK  status: ('A' for Active; 'I' for Inactive)
REMARK    1  A    between atoms: C_1  and  C_2
REMARK    2  A    between atoms: C_2  and  N_3
REMARK    3  A    between atoms: N_6  and  C_7
REMARK    4  A    between atoms: C_10  and  N_11
REMARK    5  A    between atoms: C_12  and  C_14
REMARK    6  A    between atoms: C_14  and  C_15
REMARK    7  A    between atoms: C_15  and  C_16
REMARK                            x       y       z     vdW  Elec       q    Type
REMARK                         _______ _______ _______ _____ _____    ______ ____
ROOT
ATOM      1  C   UNL     1       1.021   9.662  19.466  0.00  0.00    +0.000 A 
ATOM      2  C   UNL     1       1.423   9.431  18.142  0.00  0.00    +0.000 A 
ATOM      3  C   UNL     1       2.159   8.309  17.760  0.00  0.00    +0.000 A 
ATOM      4  C   UNL     1       2.509   7.343  18.693  0.00  0.00    +0.000 A 
ATOM      5  C   UNL     1       2.068   7.493  20.006  0.00  0.00    +0.000 A 
ATOM      6  C   UNL     1       1.354   8.645  20.395  0.00  0.00    +0.000 A 
ATOM      7 CL   UNL     1       1.028   8.779  22.097  0.00  0.00    +0.000 Cl
ENDROOT
BRANCH   1  11
ATOM      8  N   UNL     1      -0.868  13.422  19.013  0.00  0.00    +0.000 NA
ATOM      9  C   UNL     1       0.599  13.194  18.977  0.00  0.00    +0.000 C 
ATOM     10  C   UNL     1       1.098  12.106  19.956  0.00  0.00    +0.000 C 
ATOM     11  N   UNL     1       0.360  10.842  19.775  0.00  0.00    +0.000 N 
ATOM     12  C   UNL     1      -1.105  10.956  19.676  0.00  0.00    +0.000 C 
ATOM     13  C   UNL     1      -1.515  12.117  18.738  0.00  0.00    +0.000 C 
BRANCH   8  15
ATOM     14  C   UNL     1      -2.723  13.807  20.670  0.00  0.00    +0.000 C 
ATOM     15  C   UNL     1      -1.258  14.009  20.306  0.00  0.00    +0.000 C 
ENDBRANCH   8  15
ENDBRANCH   1  11
BRANCH   4  16
ATOM     16  N   UNL     1       3.277   6.211  18.358  0.00  0.00    +0.000 N 
ATOM     17  C   UNL     1       2.773   4.996  17.919  0.00  0.00    +0.000 C 
ATOM     18  O   UNL     1       1.609   4.752  17.632  0.00  0.00    +0.000 OA
ATOM     19  H   UNL     1       4.284   6.331  18.341  0.00  0.00    +0.000 HD
BRANCH  17  20
ATOM     20  C   UNL     1       3.830   3.919  17.788  0.00  0.00    +0.000 C 
BRANCH  20  21
ATOM     21  C   UNL     1       4.676   4.066  16.524  0.00  0.00    +0.000 C 
BRANCH  21  22
ATOM     22  C   UNL     1       6.045   4.708  16.767  0.00  0.00    +0.000 C 
ATOM     23  C   UNL     1       6.091   6.212  16.513  0.00  0.00    +0.000 C 
ATOM     24  C   UNL     1       7.360   6.659  17.226  0.00  0.00    +0.000 C 
ATOM     25  C   UNL     1       7.538   5.697  18.400  0.00  0.00    +0.000 C 
ATOM     26  C   UNL     1       6.484   4.606  18.228  0.00  0.00    +0.000 C 
ENDBRANCH  21  22
ENDBRANCH  20  21
ENDBRANCH  17  20
ENDBRANCH   4  16
TORSDOF 6
ENDMDL
MODEL 2
REMARK VINA RESULT:      -7.2      0.901      1.347
REMARK  Name = 
REMARK  7 active torsions:
REMARK  status: ('A' for Active; 'I' for Inactive)
REMARK    1  A    between atoms: C_1  and  C_2
REMARK    2  A    between atoms: C_2  and  N_3
REMARK    3  A    between atoms: N_6  and  C_7
REMARK    4  A    between atoms: C_10  and  N_11
REMARK    5  A    between atoms: C_12  and  C_14
REMARK    6  A    between atoms: C_14  and  C_15
REMARK    7  A    between atoms: C_15  and  C_16
REMARK                            x       y       z     vdW  Elec       q    Type
REMARK                         _______ _______ _______ _____ _____    ______ ____
ROOT
ATOM      1  C   UNL     1       1.084   9.801  19.429  0.00  0.00    +0.000 A 
ATOM      2  C   UNL     1       1.630   9.388  18.204  0.00  0.00    +0.000 A 
ATOM      3  C   UNL     1       2.273   8.161  18.039  0.00  0.00    +0.000 A 
ATOM      4  C   UNL     1       2.380   7.271  19.099  0.00  0.00    +0.000 A 
ATOM      5  C   UNL     1       1.789   7.608  20.314  0.00  0.00    +0.000 A 
ATOM      6  C   UNL     1       1.169   8.862  20.487  0.00  0.00    +0.000 A 
ATOM      7 CL   UNL     1       0.637   9.213  22.104  0.00  0.00    +0.000 Cl
ENDROOT
BRANCH   1  11
ATOM      8  N   UNL     1      -0.410  13.606  18.335  0.00  0.00    +0.000 NA
ATOM      9  C   UNL     1       1.027  13.243  18.407  0.00  0.00    +0.000 C 
ATOM     10  C   UNL     1       1.382  12.274  19.559  0.00  0.00    +0.000 C 
ATOM     11  N   UNL     1       0.531  11.069  19.527  0.00  0.00    +0.000 N 
ATOM     12  C   UNL     1      -0.911  11.300  19.339  0.00  0.00    +0.000 C 
ATOM     13  C   UNL     1      -1.171  12.340  18.222  0.00  0.00    +0.000 C 
BRANCH   8  15
ATOM     14  C   UNL     1      -0.458  15.896  19.381  0.00  0.00    +0.000 C 
ATOM     15  C   UNL     1      -0.788  14.414  19.507  0.00  0.00    +0.000 C 
ENDBRANCH   8  15
ENDBRANCH   1  11
BRANCH   4  16
ATOM     16  N   UNL     1       3.048   6.037  18.985  0.00  0.00    +0.000 N 
ATOM     17  C   UNL     1       2.576   4.924  18.304  0.00  0.00    +0.000 C 
ATOM     18  O   UNL     1       1.580   4.874  17.595  0.00  0.00    +0.000 OA
ATOM     19  H   UNL     1       3.996   5.995  19.344  0.00  0.00    +0.000 HD
BRANCH  17  20
ATOM     20  C   UNL     1       3.441   3.695  18.488  0.00  0.00    +0.000 C 
BRANCH  20  21
ATOM     21  C   UNL     1       4.174   3.286  17.212  0.00  0.00    +0.000 C 
BRANCH  21  22
ATOM     22  C   UNL     1       5.087   4.377  16.644  0.00  0.00    +0.000 C 
ATOM     23  C   UNL     1       6.299   4.702  17.513  0.00  0.00    +0.000 C 
ATOM     24  C   UNL     1       7.234   5.440  16.563  0.00  0.00    +0.000 C 
ATOM     25  C   UNL     1       6.948   4.872  15.174  0.00  0.00    +0.000 C 
ATOM     26  C   UNL     1       5.731   3.964  15.320  0.00  0.00    +0.000 C 
ENDBRANCH  21  22
ENDBRANCH  20  21
ENDBRANCH  17  20
ENDBRANCH   4  16
TORSDOF 6
ENDMDL
MODEL 3
REMARK VINA RESULT:      -7.1      1.759      3.052
REMARK  Name = 
REMARK  7 active torsions:
REMARK  status: ('A' for Active; 'I' for Inactive)
REMARK    1  A    between atoms: C_1  and  C_2
REMARK    2  A    between atoms: C_2  and  N_3
REMARK    3  A    between atoms: N_6  and  C_7
REMARK    4  A    between atoms: C_10  and  N_11
REMARK    5  A    between atoms: C_12  and  C_14
REMARK    6  A    between atoms: C_14  and  C_15
REMARK    7  A    between atoms: C_15  and  C_16
REMARK                            x       y       z     vdW  Elec       q    Type
REMARK                         _______ _______ _______ _____ _____    ______ ____
ROOT
ATOM      1  C   UNL     1       1.118   9.837  19.434  0.00  0.00    +0.000 A 
ATOM      2  C   UNL     1       1.628   9.406  18.200  0.00  0.00    +0.000 A 
ATOM      3  C   UNL     1       2.248   8.168  18.029  0.00  0.00    +0.000 A 
ATOM      4  C   UNL     1       2.365   7.284  19.093  0.00  0.00    +0.000 A 
ATOM      5  C   UNL     1       1.807   7.638  20.319  0.00  0.00    +0.000 A 
ATOM      6  C   UNL     1       1.212   8.904  20.497  0.00  0.00    +0.000 A 
ATOM      7 CL   UNL     1       0.723   9.274  22.124  0.00  0.00    +0.000 Cl
ENDROOT
BRANCH   1  11
ATOM      8  N   UNL     1      -0.297  13.676  18.353  0.00  0.00    +0.000 NA
ATOM      9  C   UNL     1       1.133  13.286  18.435  0.00  0.00    +0.000 C 
ATOM     10  C   UNL     1       1.459  12.303  19.584  0.00  0.00    +0.000 C 
ATOM     11  N   UNL     1       0.587  11.114  19.537  0.00  0.00    +0.000 N 
ATOM     12  C   UNL     1      -0.849  11.373  19.337  0.00  0.00    +0.000 C 
ATOM     13  C   UNL     1      -1.080  12.424  18.225  0.00  0.00    +0.000 C 
BRANCH   8  15
ATOM     14  C   UNL     1      -0.064  15.881  19.547  0.00  0.00    +0.000 C 
ATOM     15  C   UNL     1      -0.670  14.483  19.527  0.00  0.00    +0.000 C 
ENDBRANCH   8  15
ENDBRANCH   1  11
BRANCH   4  16
ATOM     16  N   UNL     1       3.011   6.039  18.972  0.00  0.00    +0.000 N 
ATOM     17  C   UNL     1       3.801   5.640  17.904  0.00  0.00    +0.000 C 
ATOM     18  O   UNL     1       4.166   6.340  16.969  0.00  0.00    +0.000 OA
ATOM     19  H   UNL     1       2.977   5.425  19.780  0.00  0.00    +0.000 HD
BRANCH  17  20
ATOM     20  C   UNL     1       4.232   4.190  17.983  0.00  0.00    +0.000 C 
BRANCH  20  21
ATOM     21  C   UNL     1       3.075   3.213  17.787  0.00  0.00    +0.000 C 
BRANCH  21  22
ATOM     22  C   UNL     1       2.533   2.624  19.093  0.00  0.00    +0.000 C 
ATOM     23  C   UNL     1       3.470   2.772  20.289  0.00  0.00    +0.000 C 
ATOM     24  C   UNL     1       2.561   2.536  21.488  0.00  0.00    +0.000 C 
ATOM     25  C   UNL     1       1.175   3.017  21.061  0.00  0.00    +0.000 C 
ATOM     26  C   UNL     1       1.269   3.339  19.573  0.00  0.00    +0.000 C 
ENDBRANCH  21  22
ENDBRANCH  20  21
ENDBRANCH  17  20
ENDBRANCH   4  16
TORSDOF 6
ENDMDL
MODEL 4
REMARK VINA RESULT:      -7.1      0.697      1.098
REMARK  Name = 
REMARK  7 active torsions:
REMARK  status: ('A' for Active; 'I' for Inactive)
REMARK    1  A    between atoms: C_1  and  C_2
REMARK    2  A    between atoms: C_2  and  N_3
REMARK    3  A    between atoms: N_6  and  C_7
REMARK    4  A    between atoms: C_10  and  N_11
REMARK    5  A    between atoms: C_12  and  C_14
REMARK    6  A    between atoms: C_14  and  C_15
REMARK    7  A    between atoms: C_15  and  C_16
REMARK                            x       y       z     vdW  Elec       q    Type
REMARK                         _______ _______ _______ _____ _____    ______ ____
ROOT
ATOM      1  C   UNL     1       1.107   9.743  19.350  0.00  0.00    +0.000 A 
ATOM      2  C   UNL     1       1.590   9.418  18.073  0.00  0.00    +0.000 A 
ATOM      3  C   UNL     1       2.266   8.228  17.801  0.00  0.00    +0.000 A 
ATOM      4  C   UNL     1       2.471   7.287  18.801  0.00  0.00    +0.000 A 
ATOM      5  C   UNL     1       1.944   7.535  20.067  0.00  0.00    +0.000 A 
ATOM      6  C   UNL     1       1.292   8.752  20.347  0.00  0.00    +0.000 A 
ATOM      7 CL   UNL     1       0.849   8.994  22.010  0.00  0.00    +0.000 Cl
ENDROOT
BRANCH   1  11
ATOM      8  N   UNL     1      -0.447  13.604  18.584  0.00  0.00    +0.000 NA
ATOM      9  C   UNL     1       0.996  13.269  18.680  0.00  0.00    +0.000 C 
ATOM     10  C   UNL     1       1.331  12.196  19.742  0.00  0.00    +0.000 C 
ATOM     11  N   UNL     1       0.515  10.981  19.553  0.00  0.00    +0.000 N 
ATOM     12  C   UNL     1      -0.924  11.196  19.328  0.00  0.00    +0.000 C 
ATOM     13  C   UNL     1      -1.168  12.338  18.312  0.00  0.00    +0.000 C 
BRANCH   8  15
ATOM     14  C   UNL     1      -0.810  15.799  19.763  0.00  0.00    +0.000 C 
ATOM     15  C   UNL     1      -0.894  14.279  19.815  0.00  0.00    +0.000 C 
ENDBRANCH   8  15
ENDBRANCH   1  11
BRANCH   4  16
ATOM     16  N   UNL     1       3.175   6.089  18.578  0.00  0.00    +0.000 N 
ATOM     17  C   UNL     1       2.623   4.905  18.110  0.00  0.00    +0.000 C 
ATOM     18  O   UNL     1       1.482   4.747  17.698  0.00  0.00    +0.000 OA
ATOM     19  H   UNL     1       4.184   6.127  18.671  0.00  0.00    +0.000 HD
BRANCH  17  20
ATOM     20  C   UNL     1       3.595   3.743  18.120  0.00  0.00    +0.000 C 
BRANCH  20  21
ATOM     21  C   UNL     1       4.871   4.041  18.906  0.00  0.00    +0.000 C 
BRANCH  21  22
ATOM     22  C   UNL     1       6.071   4.403  18.027  0.00  0.00    +0.000 C 
ATOM     23  C   UNL     1       5.801   4.322  16.527  0.00  0.00    +0.000 C 
ATOM     24  C   UNL     1       6.940   5.127  15.914  0.00  0.00    +0.000 C 
ATOM     25  C   UNL     1       7.304   6.190  16.950  0.00  0.00    +0.000 C 
ATOM     26  C   UNL     1       6.505   5.858  18.207  0.00  0.00    +0.000 C 
ENDBRANCH  21  22
ENDBRANCH  20  21
ENDBRANCH  17  20
ENDBRANCH   4  16
TORSDOF 6
ENDMDL
MODEL 5
REMARK VINA RESULT:      -7.0      0.747      1.313
REMARK  Name = 
REMARK  7 active torsions:
REMARK  status: ('A' for Active; 'I' for Inactive)
REMARK    1  A    between atoms: C_1  and  C_2
REMARK    2  A    between atoms: C_2  and  N_3
REMARK    3  A    between atoms: N_6  and  C_7
REMARK    4  A    between atoms: C_10  and  N_11
REMARK    5  A    between atoms: C_12  and  C_14
REMARK    6  A    between atoms: C_14  and  C_15
REMARK    7  A    between atoms: C_15  and  C_16
REMARK                            x       y       z     vdW  Elec       q    Type
REMARK                         _______ _______ _______ _____ _____    ______ ____
ROOT
ATOM      1  C   UNL     1       0.968   9.919  19.359  0.00  0.00    +0.000 A 
ATOM      2  C   UNL     1       1.485   9.646  18.084  0.00  0.00    +0.000 A 
ATOM      3  C   UNL     1       2.219   8.495  17.796  0.00  0.00    +0.000 A 
ATOM      4  C   UNL     1       2.452   7.542  18.778  0.00  0.00    +0.000 A 
ATOM      5  C   UNL     1       1.896   7.736  20.040  0.00  0.00    +0.000 A 
ATOM      6  C   UNL     1       1.183   8.915  20.337  0.00  0.00    +0.000 A 
ATOM      7 CL   UNL     1       0.704   9.098  21.998  0.00  0.00    +0.000 Cl
ENDROOT
BRANCH   1  11
ATOM      8  N   UNL     1      -0.915  13.137  21.362  0.00  0.00    +0.000 NA
ATOM      9  C   UNL     1      -1.534  11.812  21.107  0.00  0.00    +0.000 C 
ATOM     10  C   UNL     1      -1.148  11.181  19.748  0.00  0.00    +0.000 C 
ATOM     11  N   UNL     1       0.316  11.124  19.580  0.00  0.00    +0.000 N 
ATOM     12  C   UNL     1       1.055  12.351  19.920  0.00  0.00    +0.000 C 
ATOM     13  C   UNL     1       0.552  12.957  21.253  0.00  0.00    +0.000 C 
BRANCH   8  15
ATOM     14  C   UNL     1      -2.668  14.895  20.946  0.00  0.00    +0.000 C 
ATOM     15  C   UNL     1      -1.454  14.137  20.425  0.00  0.00    +0.000 C 
ENDBRANCH   8  15
ENDBRANCH   1  11
BRANCH   4  16
ATOM     16  N   UNL     1       3.215   6.383  18.540  0.00  0.00    +0.000 N 
ATOM     17  C   UNL     1       2.718   5.172  18.079  0.00  0.00    +0.000 C 
ATOM     18  O   UNL     1       1.579   4.955  17.687  0.00  0.00    +0.000 OA
ATOM     19  H   UNL     1       4.222   6.474  18.615  0.00  0.00    +0.000 HD
BRANCH  17  20
ATOM     20  C   UNL     1       3.750   4.064  18.070  0.00  0.00    +0.000 C 
BRANCH  20  21
ATOM     21  C   UNL     1       4.595   4.047  16.797  0.00  0.00    +0.000 C 
BRANCH  21  22
ATOM     22  C   UNL     1       5.976   4.688  16.962  0.00  0.00    +0.000 C 
ATOM     23  C   UNL     1       6.043   6.157  16.554  0.00  0.00    +0.000 C 
ATOM     24  C   UNL     1       7.326   6.653  17.208  0.00  0.00    +0.000 C 
ATOM     25  C   UNL     1       7.500   5.814  18.473  0.00  0.00    +0.000 C 
ATOM     26  C   UNL     1       6.427   4.730  18.422  0.00  0.00    +0.000 C 
ENDBRANCH  21  22
ENDBRANCH  20  21
ENDBRANCH  17  20
ENDBRANCH   4  16
TORSDOF 6
ENDMDL
MODEL 6
REMARK VINA RESULT:      -7.0      1.927      3.283
REMARK  Name = 
REMARK  7 active torsions:
REMARK  status: ('A' for Active; 'I' for Inactive)
REMARK    1  A    between atoms: C_1  and  C_2
REMARK    2  A    between atoms: C_2  and  N_3
REMARK    3  A    between atoms: N_6  and  C_7
REMARK    4  A    between atoms: C_10  and  N_11
REMARK    5  A    between atoms: C_12  and  C_14
REMARK    6  A    between atoms: C_14  and  C_15
REMARK    7  A    between atoms: C_15  and  C_16
REMARK                            x       y       z     vdW  Elec       q    Type
REMARK                         _______ _______ _______ _____ _____    ______ ____
ROOT
ATOM      1  C   UNL     1       1.177   9.650  19.193  0.00  0.00    +0.000 A 
ATOM      2  C   UNL     1       1.603   9.338  17.893  0.00  0.00    +0.000 A 
ATOM      3  C   UNL     1       2.265   8.150  17.579  0.00  0.00    +0.000 A 
ATOM      4  C   UNL     1       2.510   7.198  18.559  0.00  0.00    +0.000 A 
ATOM      5  C   UNL     1       2.039   7.432  19.849  0.00  0.00    +0.000 A 
ATOM      6  C   UNL     1       1.403   8.648  20.170  0.00  0.00    +0.000 A 
ATOM      7 CL   UNL     1       1.032   8.872  21.854  0.00  0.00    +0.000 Cl
ENDROOT
BRANCH   1  11
ATOM      8  N   UNL     1      -0.406  12.988  21.258  0.00  0.00    +0.000 NA
ATOM      9  C   UNL     1      -1.100  11.688  21.080  0.00  0.00    +0.000 C 
ATOM     10  C   UNL     1      -0.846  11.013  19.711  0.00  0.00    +0.000 C 
ATOM     11  N   UNL     1       0.597  10.887  19.435  0.00  0.00    +0.000 N 
ATOM     12  C   UNL     1       1.413  12.086  19.691  0.00  0.00    +0.000 C 
ATOM     13  C   UNL     1       1.040  12.740  21.043  0.00  0.00    +0.000 C 
BRANCH   8  15
ATOM     14  C   UNL     1      -0.286  15.353  20.404  0.00  0.00    +0.000 C 
ATOM     15  C   UNL     1      -0.970  13.993  20.342  0.00  0.00    +0.000 C 
ENDBRANCH   8  15
ENDBRANCH   1  11
BRANCH   4  16
ATOM     16  N   UNL     1       3.201   6.001  18.293  0.00  0.00    +0.000 N 
ATOM     17  C   UNL     1       2.641   4.847  17.764  0.00  0.00    +0.000 C 
ATOM     18  O   UNL     1       1.504   4.724  17.328  0.00  0.00    +0.000 OA
ATOM     19  H   UNL     1       4.209   6.020  18.403  0.00  0.00    +0.000 HD
BRANCH  17  20
ATOM     20  C   UNL     1       3.597   3.672  17.736  0.00  0.00    +0.000 C 
BRANCH  20  21
ATOM     21  C   UNL     1       2.897   2.330  17.945  0.00  0.00    +0.000 C 
BRANCH  21  22
ATOM     22  C   UNL     1       2.531   2.042  19.404  0.00  0.00    +0.000 C 
ATOM     23  C   UNL     1       3.457   2.692  20.428  0.00  0.00    +0.000 C 
ATOM     24  C   UNL     1       2.656   2.638  21.722  0.00  0.00    +0.000 C 
ATOM     25  C   UNL     1       1.188   2.714  21.306  0.00  0.00    +0.000 C 
ATOM     26  C   UNL     1       1.165   2.617  19.784  0.00  0.00    +0.000 C 
ENDBRANCH  21  22
ENDBRANCH  20  21
ENDBRANCH  17  20
ENDBRANCH   4  16
TORSDOF 6
ENDMDL
MODEL 7
REMARK VINA RESULT:      -6.9      1.044      1.890
REMARK  Name = 
REMARK  7 active torsions:
REMARK  status: ('A' for Active; 'I' for Inactive)
REMARK    1  A    between atoms: C_1  and  C_2
REMARK    2  A    between atoms: C_2  and  N_3
REMARK    3  A    between atoms: N_6  and  C_7
REMARK    4  A    between atoms: C_10  and  N_11
REMARK    5  A    between atoms: C_12  and  C_14
REMARK    6  A    between atoms: C_14  and  C_15
REMARK    7  A    between atoms: C_15  and  C_16
REMARK                            x       y       z     vdW  Elec       q    Type
REMARK                         _______ _______ _______ _____ _____    ______ ____
ROOT
ATOM      1  C   UNL     1       1.140   9.750  19.274  0.00  0.00    +0.000 A 
ATOM      2  C   UNL     1       1.711   9.383  18.047  0.00  0.00    +0.000 A 
ATOM      3  C   UNL     1       2.405   8.186  17.864  0.00  0.00    +0.000 A 
ATOM      4  C   UNL     1       2.539   7.281  18.908  0.00  0.00    +0.000 A 
ATOM      5  C   UNL     1       1.925   7.571  20.124  0.00  0.00    +0.000 A 
ATOM      6  C   UNL     1       1.254   8.796  20.316  0.00  0.00    +0.000 A 
ATOM      7 CL   UNL     1       0.696   9.094  21.934  0.00  0.00    +0.000 Cl
ENDROOT
BRANCH   1  11
ATOM      8  N   UNL     1      -0.715  13.147  20.986  0.00  0.00    +0.000 NA
ATOM      9  C   UNL     1      -1.380  11.842  20.748  0.00  0.00    +0.000 C 
ATOM     10  C   UNL     1      -0.933  11.127  19.452  0.00  0.00    +0.000 C 
ATOM     11  N   UNL     1       0.535  10.993  19.392  0.00  0.00    +0.000 N 
ATOM     12  C   UNL     1       1.309  12.201  19.727  0.00  0.00    +0.000 C 
ATOM     13  C   UNL     1       0.746  12.895  20.990  0.00  0.00    +0.000 C 
BRANCH   8  15
ATOM     14  C   UNL     1      -0.576  15.526  20.170  0.00  0.00    +0.000 C 
ATOM     15  C   UNL     1      -1.137  14.124  19.968  0.00  0.00    +0.000 C 
ENDBRANCH   8  15
ENDBRANCH   1  11
BRANCH   4  16
ATOM     16  N   UNL     1       3.257   6.077  18.777  0.00  0.00    +0.000 N 
ATOM     17  C   UNL     1       2.767   4.902  18.224  0.00  0.00    +0.000 C 
ATOM     18  O   UNL     1       1.695   4.759  17.652  0.00  0.00    +0.000 OA
ATOM     19  H   UNL     1       4.243   6.104  19.014  0.00  0.00    +0.000 HD
BRANCH  17  20
ATOM     20  C   UNL     1       3.717   3.731  18.363  0.00  0.00    +0.000 C 
BRANCH  20  21
ATOM     21  C   UNL     1       5.184   4.135  18.227  0.00  0.00    +0.000 C 
BRANCH  21  22
ATOM     22  C   UNL     1       5.559   4.651  16.835  0.00  0.00    +0.000 C 
ATOM     23  C   UNL     1       7.061   4.766  16.587  0.00  0.00    +0.000 C 
ATOM     24  C   UNL     1       7.169   4.854  15.070  0.00  0.00    +0.000 C 
ATOM     25  C   UNL     1       5.982   4.063  14.522  0.00  0.00    +0.000 C 
ATOM     26  C   UNL     1       5.113   3.701  15.723  0.00  0.00    +0.000 C 
ENDBRANCH  21  22
ENDBRANCH  20  21
ENDBRANCH  17  20
ENDBRANCH   4  16
TORSDOF 6
ENDMDL
MODEL 8
REMARK VINA RESULT:      -6.9      1.597      2.911
REMARK  Name = 
REMARK  7 active torsions:
REMARK  status: ('A' for Active; 'I' for Inactive)
REMARK    1  A    between atoms: C_1  and  C_2
REMARK    2  A    between atoms: C_2  and  N_3
REMARK    3  A    between atoms: N_6  and  C_7
REMARK    4  A    between atoms: C_10  and  N_11
REMARK    5  A    between atoms: C_12  and  C_14
REMARK    6  A    between atoms: C_14  and  C_15
REMARK    7  A    between atoms: C_15  and  C_16
REMARK                            x       y       z     vdW  Elec       q    Type
REMARK                         _______ _______ _______ _____ _____    ______ ____
ROOT
ATOM      1  C   UNL     1       1.136   9.966  19.431  0.00  0.00    +0.000 A 
ATOM      2  C   UNL     1       1.443   9.653  18.098  0.00  0.00    +0.000 A 
ATOM      3  C   UNL     1       1.982   8.424  17.715  0.00  0.00    +0.000 A 
ATOM      4  C   UNL     1       2.218   7.432  18.656  0.00  0.00    +0.000 A 
ATOM      5  C   UNL     1       1.860   7.672  19.981  0.00  0.00    +0.000 A 
ATOM      6  C   UNL     1       1.349   8.926  20.371  0.00  0.00    +0.000 A 
ATOM      7 CL   UNL     1       1.118   9.138  22.080  0.00  0.00    +0.000 Cl
ENDROOT
BRANCH   1  11
ATOM      8  N   UNL     1      -0.422  13.873  18.965  0.00  0.00    +0.000 NA
ATOM      9  C   UNL     1       0.972  13.468  18.656  0.00  0.00    +0.000 C 
ATOM     10  C   UNL     1       1.559  12.416  19.626  0.00  0.00    +0.000 C 
ATOM     11  N   UNL     1       0.678  11.239  19.737  0.00  0.00    +0.000 N 
ATOM     12  C   UNL     1      -0.755  11.519  19.927  0.00  0.00    +0.000 C 
ATOM     13  C   UNL     1      -1.240  12.636  18.972  0.00  0.00    +0.000 C 
BRANCH   8  15
ATOM     14  C   UNL     1      -1.861  15.051  20.662  0.00  0.00    +0.000 C 
ATOM     15  C   UNL     1      -0.466  14.611  20.238  0.00  0.00    +0.000 C 
ENDBRANCH   8  15
ENDBRANCH   1  11
BRANCH   4  16
ATOM     16  N   UNL     1       2.789   6.190  18.319  0.00  0.00    +0.000 N 
ATOM     17  C   UNL     1       4.029   6.009  17.724  0.00  0.00    +0.000 C 
ATOM     18  O   UNL     1       4.871   6.873  17.518  0.00  0.00    +0.000 OA
ATOM     19  H   UNL     1       2.296   5.360  18.629  0.00  0.00    +0.000 HD
BRANCH  17  20
ATOM     20  C   UNL     1       4.306   4.571  17.338  0.00  0.00    +0.000 C 
BRANCH  20  21
ATOM     21  C   UNL     1       4.645   3.687  18.537  0.00  0.00    +0.000 C 
BRANCH  21  22
ATOM     22  C   UNL     1       3.481   2.812  19.012  0.00  0.00    +0.000 C 
ATOM     23  C   UNL     1       2.739   3.357  20.230  0.00  0.00    +0.000 C 
ATOM     24  C   UNL     1       1.422   2.591  20.220  0.00  0.00    +0.000 C 
ATOM     25  C   UNL     1       1.130   2.285  18.752  0.00  0.00    +0.000 C 
ATOM     26  C   UNL     1       2.369   2.707  17.967  0.00  0.00    +0.000 C 
ENDBRANCH  21  22
ENDBRANCH  20  21
ENDBRANCH  17  20
ENDBRANCH   4  16
TORSDOF 6
ENDMDL
MODEL 9
REMARK VINA RESULT:      -6.9      1.807      2.275
REMARK  Name = 
REMARK  7 active torsions:
REMARK  status: ('A' for Active; 'I' for Inactive)
REMARK    1  A    between atoms: C_1  and  C_2
REMARK    2  A    between atoms: C_2  and  N_3
REMARK    3  A    between atoms: N_6  and  C_7
REMARK    4  A    between atoms: C_10  and  N_11
REMARK    5  A    between atoms: C_12  and  C_14
REMARK    6  A    between atoms: C_14  and  C_15
REMARK    7  A    between atoms: C_15  and  C_16
REMARK                            x       y       z     vdW  Elec       q    Type
REMARK                         _______ _______ _______ _____ _____    ______ ____
ROOT
ATOM      1  C   UNL     1       1.295   9.419  19.136  0.00  0.00    +0.000 A 
ATOM      2  C   UNL     1       1.780   9.216  17.835  0.00  0.00    +0.000 A 
ATOM      3  C   UNL     1       2.549   8.107  17.480  0.00  0.00    +0.000 A 
ATOM      4  C   UNL     1       2.852   7.128  18.416  0.00  0.00    +0.000 A 
ATOM      5  C   UNL     1       2.330   7.251  19.701  0.00  0.00    +0.000 A 
ATOM      6  C   UNL     1       1.582   8.389  20.066  0.00  0.00    +0.000 A 
ATOM      7 CL   UNL     1       1.151   8.489  21.747  0.00  0.00    +0.000 Cl
ENDROOT
BRANCH   1  11
ATOM      8  N   UNL     1      -0.635  13.150  18.628  0.00  0.00    +0.000 NA
ATOM      9  C   UNL     1       0.835  12.946  18.645  0.00  0.00    +0.000 C 
ATOM     10  C   UNL     1       1.315  11.862  19.638  0.00  0.00    +0.000 C 
ATOM     11  N   UNL     1       0.605  10.587  19.425  0.00  0.00    +0.000 N 
ATOM     12  C   UNL     1      -0.857  10.678  19.272  0.00  0.00    +0.000 C 
ATOM     13  C   UNL     1      -1.251  11.837  18.325  0.00  0.00    +0.000 C 
BRANCH   8  15
ATOM     14  C   UNL     1      -0.939  15.239  20.000  0.00  0.00    +0.000 C 
ATOM     15  C   UNL     1      -1.082  13.726  19.907  0.00  0.00    +0.000 C 
ENDBRANCH   8  15
ENDBRANCH   1  11
BRANCH   4  16
ATOM     16  N   UNL     1       3.651   6.010  18.108  0.00  0.00    +0.000 N 
ATOM     17  C   UNL     1       4.946   6.057  17.614  0.00  0.00    +0.000 C 
ATOM     18  O   UNL     1       5.642   7.056  17.490  0.00  0.00    +0.000 OA
ATOM     19  H   UNL     1       3.284   5.100  18.366  0.00  0.00    +0.000 HD
BRANCH  17  20
ATOM     20  C   UNL     1       5.494   4.697  17.233  0.00  0.00    +0.000 C 
BRANCH  20  21
ATOM     21  C   UNL     1       4.900   4.159  15.932  0.00  0.00    +0.000 C 
BRANCH  21  22
ATOM     22  C   UNL     1       5.591   4.685  14.671  0.00  0.00    +0.000 C 
ATOM     23  C   UNL     1       7.086   4.948  14.833  0.00  0.00    +0.000 C 
ATOM     24  C   UNL     1       7.596   5.018  13.399  0.00  0.00    +0.000 C 
ATOM     25  C   UNL     1       6.683   4.100  12.588  0.00  0.00    +0.000 C 
ATOM     26  C   UNL     1       5.556   3.673  13.524  0.00  0.00    +0.000 C 
ENDBRANCH  21  22
ENDBRANCH  20  21
ENDBRANCH  17  20
ENDBRANCH   4  16
TORSDOF 6
ENDMDL
