MODEL 1
REMARK VINA RESULT:      -7.2      0.000      0.000
REMARK  Name = 
REMARK  13 active torsions:
REMARK  status: ('A' for Active; 'I' for Inactive)
REMARK    1  A    between atoms: C_1  and  O_2
REMARK    2  A    between atoms: O_2  and  C_3
REMARK    3  A    between atoms: C_3  and  C_5
REMARK    4  A    between atoms: C_5  and  N_6
REMARK    5  A    between atoms: N_6  and  S_7
REMARK    6  A    between atoms: S_7  and  N_10
REMARK    7  A    between atoms: N_10  and  C_11
REMARK    8  A    between atoms: C_11  and  C_12
REMARK    9  A    between atoms: C_18  and  O_20
REMARK   10  A    between atoms: O_20  and  C_21
REMARK   11  A    between atoms: C_21  and  C_22
REMARK   12  A    between atoms: C_21  and  C_23
REMARK   13  A    between atoms: C_21  and  C_24
REMARK                            x       y       z     vdW  Elec       q    Type
REMARK                         _______ _______ _______ _____ _____    ______ ____
ROOT
ATOM      1  N   UNL     1       4.711   5.696  17.916  0.00  0.00    +0.000 N 
ATOM      2  C   UNL     1       5.114   4.833  18.946  0.00  0.00    +0.000 C 
ATOM      3  O   UNL     1       6.294   4.606  19.172  0.00  0.00    +0.000 OA
ENDROOT
BRANCH   1   4
ATOM      4  S   UNL     1       5.821   6.461  16.915  0.00  0.00    +0.000 S 
ATOM      5  O   UNL     1       6.525   7.439  17.718  0.00  0.00    +0.000 OA
ATOM      6  O   UNL     1       5.123   6.858  15.717  0.00  0.00    +0.000 OA
BRANCH   4   7
ATOM      7  N   UNL     1       6.924   5.316  16.453  0.00  0.00    +0.000 NA
ATOM      8  H   UNL     1       7.862   5.684  16.237  0.00  0.00    +0.000 HD
BRANCH   7   9
ATOM      9  C   UNL     1       6.501   4.180  15.623  0.00  0.00    +0.000 C 
BRANCH   9  10
ATOM     10  C   UNL     1       6.693   4.515  14.151  0.00  0.00    +0.000 C 
ATOM     11  O   UNL     1       7.505   5.326  13.718  0.00  0.00    +0.000 OA
BRANCH  10  13
ATOM     12  C   UNL     1       6.333   3.323  12.151  0.00  0.00    +0.000 C 
ATOM     13  O   UNL     1       5.802   3.820  13.383  0.00  0.00    +0.000 OA
ENDBRANCH  10  13
ENDBRANCH   9  10
ENDBRANCH   7   9
ENDBRANCH   4   7
ENDBRANCH   1   4
BRANCH   1  14
ATOM     14  C   UNL     1       3.293   6.024  17.633  0.00  0.00    +0.000 C 
BRANCH  14  15
ATOM     15  C   UNL     1       2.678   7.210  18.359  0.00  0.00    +0.000 A 
ATOM     16  C   UNL     1       2.377   8.397  17.668  0.00  0.00    +0.000 A 
ATOM     17  C   UNL     1       1.673   9.434  18.292  0.00  0.00    +0.000 A 
ATOM     18  C   UNL     1       1.272   9.311  19.619  0.00  0.00    +0.000 A 
ATOM     19  C   UNL     1       1.580   8.151  20.326  0.00  0.00    +0.000 A 
ATOM     20  C   UNL     1       2.273   7.109  19.698  0.00  0.00    +0.000 A 
ENDBRANCH  14  15
ENDBRANCH   1  14
BRANCH   2  21
ATOM     21  O   UNL     1       4.107   4.303  19.698  0.00  0.00    +0.000 OA
BRANCH  21  22
ATOM     22  C   UNL     1       3.727   2.916  19.459  0.00  0.00    +0.000 C 
ATOM     23  C   UNL     1       4.566   1.963  20.325  0.00  0.00    +0.000 C 
ATOM     24  C   UNL     1       2.260   2.796  19.901  0.00  0.00    +0.000 C 
ATOM     25  C   UNL     1       3.793   2.551  17.967  0.00  0.00    +0.000 C 
ENDBRANCH  21  22
ENDBRANCH   2  21
TORSDOF 9
ENDMDL
MODEL 2
REMARK VINA RESULT:      -7.0      1.342      1.958
REMARK  Name = 
REMARK  13 active torsions:
REMARK  status: ('A' for Active; 'I' for Inactive)
REMARK    1  A    between atoms: C_1  and  O_2
REMARK    2  A    between atoms: O_2  and  C_3
REMARK    3  A    between atoms: C_3  and  C_5
REMARK    4  A    between atoms: C_5  and  N_6
REMARK    5  A    between atoms: N_6  and  S_7
REMARK    6  A    between atoms: S_7  and  N_10
REMARK    7  A    between atoms: N_10  and  C_11
REMARK    8  A    between atoms: C_11  and  C_12
REMARK    9  A    between atoms: C_18  and  O_20
REMARK   10  A    between atoms: O_20  and  C_21
REMARK   11  A    between atoms: C_21  and  C_22
REMARK   12  A    between atoms: C_21  and  C_23
REMARK   13  A    between atoms: C_21  and  C_24
REMARK                            x       y       z     vdW  Elec       q    Type
REMARK                         _______ _______ _______ _____ _____    ______ ____
ROOT
ATOM      1  N   UNL     1       3.638   5.526  18.154  0.00  0.00    +0.000 N 
ATOM      2  C   UNL     1       2.780   4.513  17.701  0.00  0.00    +0.000 C 
ATOM      3  O   UNL     1       3.046   3.836  16.718  0.00  0.00    +0.000 OA
ENDROOT
BRANCH   1   4
ATOM      4  S   UNL     1       5.077   5.887  17.369  0.00  0.00    +0.000 S 
ATOM      5  O   UNL     1       5.971   6.466  18.350  0.00  0.00    +0.000 OA
ATOM      6  O   UNL     1       4.746   6.604  16.162  0.00  0.00    +0.000 OA
BRANCH   4   7
ATOM      7  N   UNL     1       5.739   4.448  16.888  0.00  0.00    +0.000 NA
ATOM      8  H   UNL     1       5.468   3.636  17.461  0.00  0.00    +0.000 HD
BRANCH   7   9
ATOM      9  C   UNL     1       7.113   4.406  16.370  0.00  0.00    +0.000 C 
BRANCH   9  10
ATOM     10  C   UNL     1       7.102   4.593  14.860  0.00  0.00    +0.000 C 
ATOM     11  O   UNL     1       7.742   5.448  14.256  0.00  0.00    +0.000 OA
BRANCH  10  13
ATOM     12  C   UNL     1       6.261   3.709  12.844  0.00  0.00    +0.000 C 
ATOM     13  O   UNL     1       6.245   3.704  14.275  0.00  0.00    +0.000 OA
ENDBRANCH  10  13
ENDBRANCH   9  10
ENDBRANCH   7   9
ENDBRANCH   4   7
ENDBRANCH   1   4
BRANCH   1  14
ATOM     14  C   UNL     1       3.368   6.345  19.361  0.00  0.00    +0.000 C 
BRANCH  14  15
ATOM     15  C   UNL     1       2.382   7.495  19.234  0.00  0.00    +0.000 A 
ATOM     16  C   UNL     1       1.711   7.994  20.366  0.00  0.00    +0.000 A 
ATOM     17  C   UNL     1       0.921   9.148  20.283  0.00  0.00    +0.000 A 
ATOM     18  C   UNL     1       0.774   9.812  19.070  0.00  0.00    +0.000 A 
ATOM     19  C   UNL     1       1.413   9.320  17.934  0.00  0.00    +0.000 A 
ATOM     20  C   UNL     1       2.213   8.175  18.019  0.00  0.00    +0.000 A 
ENDBRANCH  14  15
ENDBRANCH   1  14
BRANCH   2  21
ATOM     21  O   UNL     1       1.659   4.310  18.452  0.00  0.00    +0.000 OA
BRANCH  21  22
ATOM     22  C   UNL     1       1.624   3.153  19.338  0.00  0.00    +0.000 C 
ATOM     23  C   UNL     1       3.037   2.593  19.561  0.00  0.00    +0.000 C 
ATOM     24  C   UNL     1       1.095   3.667  20.686  0.00  0.00    +0.000 C 
ATOM     25  C   UNL     1       0.647   2.076  18.836  0.00  0.00    +0.000 C 
ENDBRANCH  21  22
ENDBRANCH   2  21
TORSDOF 9
ENDMDL
MODEL 3
REMARK VINA RESULT:      -6.8      1.452      1.974
REMARK  Name = 
REMARK  13 active torsions:
REMARK  status: ('A' for Active; 'I' for Inactive)
REMARK    1  A    between atoms: C_1  and  O_2
REMARK    2  A    between atoms: O_2  and  C_3
REMARK    3  A    between atoms: C_3  and  C_5
REMARK    4  A    between atoms: C_5  and  N_6
REMARK    5  A    between atoms: N_6  and  S_7
REMARK    6  A    between atoms: S_7  and  N_10
REMARK    7  A    between atoms: N_10  and  C_11
REMARK    8  A    between atoms: C_11  and  C_12
REMARK    9  A    between atoms: C_18  and  O_20
REMARK   10  A    between atoms: O_20  and  C_21
REMARK   11  A    between atoms: C_21  and  C_22
REMARK   12  A    between atoms: C_21  and  C_23
REMARK   13  A    between atoms: C_21  and  C_24
REMARK                            x       y       z     vdW  Elec       q    Type
REMARK                         _______ _______ _______ _____ _____    ______ ____
ROOT
ATOM      1  N   UNL     1       3.845   5.237  18.115  0.00  0.00    +0.000 N 
ATOM      2  C   UNL     1       2.874   4.327  17.671  0.00  0.00    +0.000 C 
ATOM      3  O   UNL     1       3.063   3.601  16.706  0.00  0.00    +0.000 OA
ENDROOT
BRANCH   1   4
ATOM      4  S   UNL     1       5.326   5.400  17.340  0.00  0.00    +0.000 S 
ATOM      5  O   UNL     1       6.110   4.224  17.653  0.00  0.00    +0.000 OA
ATOM      6  O   UNL     1       5.828   6.720  17.637  0.00  0.00    +0.000 OA
BRANCH   4   7
ATOM      7  N   UNL     1       5.025   5.374  15.712  0.00  0.00    +0.000 NA
ATOM      8  H   UNL     1       4.071   5.658  15.445  0.00  0.00    +0.000 HD
BRANCH   7   9
ATOM      9  C   UNL     1       5.612   4.321  14.872  0.00  0.00    +0.000 C 
BRANCH   9  10
ATOM     10  C   UNL     1       6.913   4.815  14.258  0.00  0.00    +0.000 C 
ATOM     11  O   UNL     1       7.782   5.434  14.864  0.00  0.00    +0.000 OA
BRANCH  10  13
ATOM     12  C   UNL     1       6.141   3.404  12.536  0.00  0.00    +0.000 C 
ATOM     13  O   UNL     1       6.958   4.512  12.926  0.00  0.00    +0.000 OA
ENDBRANCH  10  13
ENDBRANCH   9  10
ENDBRANCH   7   9
ENDBRANCH   4   7
ENDBRANCH   1   4
BRANCH   1  14
ATOM     14  C   UNL     1       3.667   6.109  19.301  0.00  0.00    +0.000 C 
BRANCH  14  15
ATOM     15  C   UNL     1       2.791   7.341  19.153  0.00  0.00    +0.000 A 
ATOM     16  C   UNL     1       2.698   8.014  17.921  0.00  0.00    +0.000 A 
ATOM     17  C   UNL     1       1.778   9.053  17.735  0.00  0.00    +0.000 A 
ATOM     18  C   UNL     1       0.948   9.450  18.779  0.00  0.00    +0.000 A 
ATOM     19  C   UNL     1       1.040   8.810  20.013  0.00  0.00    +0.000 A 
ATOM     20  C   UNL     1       1.950   7.762  20.195  0.00  0.00    +0.000 A 
ENDBRANCH  14  15
ENDBRANCH   1  14
BRANCH   2  21
ATOM     21  O   UNL     1       1.729   4.281  18.413  0.00  0.00    +0.000 OA
BRANCH  21  22
ATOM     22  C   UNL     1       1.599   3.228  19.413  0.00  0.00    +0.000 C 
ATOM     23  C   UNL     1       1.024   3.788  20.723  0.00  0.00    +0.000 C 
ATOM     24  C   UNL     1       0.589   2.222  18.840  0.00  0.00    +0.000 C 
ATOM     25  C   UNL     1       2.924   2.481  19.635  0.00  0.00    +0.000 C 
ENDBRANCH  21  22
ENDBRANCH   2  21
TORSDOF 9
ENDMDL
MODEL 4
REMARK VINA RESULT:      -6.7      1.373      1.960
REMARK  Name = 
REMARK  13 active torsions:
REMARK  status: ('A' for Active; 'I' for Inactive)
REMARK    1  A    between atoms: C_1  and  O_2
REMARK    2  A    between atoms: O_2  and  C_3
REMARK    3  A    between atoms: C_3  and  C_5
REMARK    4  A    between atoms: C_5  and  N_6
REMARK    5  A    between atoms: N_6  and  S_7
REMARK    6  A    between atoms: S_7  and  N_10
REMARK    7  A    between atoms: N_10  and  C_11
REMARK    8  A    between atoms: C_11  and  C_12
REMARK    9  A    between atoms: C_18  and  O_20
REMARK   10  A    between atoms: O_20  and  C_21
REMARK   11  A    between atoms: C_21  and  C_22
REMARK   12  A    between atoms: C_21  and  C_23
REMARK   13  A    between atoms: C_21  and  C_24
REMARK                            x       y       z     vdW  Elec       q    Type
REMARK                         _______ _______ _______ _____ _____    ______ ____
ROOT
ATOM      1  N   UNL     1       3.573   5.460  18.170  0.00  0.00    +0.000 N 
ATOM      2  C   UNL     1       2.699   4.471  17.694  0.00  0.00    +0.000 C 
ATOM      3  O   UNL     1       2.951   3.813  16.696  0.00  0.00    +0.000 OA
ENDROOT
BRANCH   1   4
ATOM      4  S   UNL     1       5.017   5.816  17.389  0.00  0.00    +0.000 S 
ATOM      5  O   UNL     1       5.923   6.354  18.381  0.00  0.00    +0.000 OA
ATOM      6  O   UNL     1       4.695   6.567  16.201  0.00  0.00    +0.000 OA
BRANCH   4   7
ATOM      7  N   UNL     1       5.653   4.377  16.871  0.00  0.00    +0.000 NA
ATOM      8  H   UNL     1       5.372   3.557  17.426  0.00  0.00    +0.000 HD
BRANCH   7   9
ATOM      9  C   UNL     1       7.024   4.326  16.345  0.00  0.00    +0.000 C 
BRANCH   9  10
ATOM     10  C   UNL     1       7.015   4.612  14.850  0.00  0.00    +0.000 C 
ATOM     11  O   UNL     1       7.734   5.434  14.291  0.00  0.00    +0.000 OA
BRANCH  10  13
ATOM     12  C   UNL     1       6.281   3.656  12.825  0.00  0.00    +0.000 C 
ATOM     13  O   UNL     1       6.062   3.860  14.225  0.00  0.00    +0.000 OA
ENDBRANCH  10  13
ENDBRANCH   9  10
ENDBRANCH   7   9
ENDBRANCH   4   7
ENDBRANCH   1   4
BRANCH   1  14
ATOM     14  C   UNL     1       3.320   6.255  19.396  0.00  0.00    +0.000 C 
BRANCH  14  15
ATOM     15  C   UNL     1       2.481   7.515  19.265  0.00  0.00    +0.000 A 
ATOM     16  C   UNL     1       2.310   8.139  18.016  0.00  0.00    +0.000 A 
ATOM     17  C   UNL     1       1.418   9.207  17.860  0.00  0.00    +0.000 A 
ATOM     18  C   UNL     1       0.694   9.681  18.950  0.00  0.00    +0.000 A 
ATOM     19  C   UNL     1       0.866   9.090  20.200  0.00  0.00    +0.000 A 
ATOM     20  C   UNL     1       1.748   8.014  20.353  0.00  0.00    +0.000 A 
ENDBRANCH  14  15
ENDBRANCH   1  14
BRANCH   2  21
ATOM     21  O   UNL     1       1.576   4.270  18.443  0.00  0.00    +0.000 OA
BRANCH  21  22
ATOM     22  C   UNL     1       1.549   3.128  19.350  0.00  0.00    +0.000 C 
ATOM     23  C   UNL     1       0.612   2.031  18.820  0.00  0.00    +0.000 C 
ATOM     24  C   UNL     1       2.980   2.568  19.368  0.00  0.00    +0.000 C 
ATOM     25  C   UNL     1       1.196   3.546  20.787  0.00  0.00    +0.000 C 
ENDBRANCH  21  22
ENDBRANCH   2  21
TORSDOF 9
ENDMDL
MODEL 5
REMARK VINA RESULT:      -6.7      1.400      2.153
REMARK  Name = 
REMARK  13 active torsions:
REMARK  status: ('A' for Active; 'I' for Inactive)
REMARK    1  A    between atoms: C_1  and  O_2
REMARK    2  A    between atoms: O_2  and  C_3
REMARK    3  A    between atoms: C_3  and  C_5
REMARK    4  A    between atoms: C_5  and  N_6
REMARK    5  A    between atoms: N_6  and  S_7
REMARK    6  A    between atoms: S_7  and  N_10
REMARK    7  A    between atoms: N_10  and  C_11
REMARK    8  A    between atoms: C_11  and  C_12
REMARK    9  A    between atoms: C_18  and  O_20
REMARK   10  A    between atoms: O_20  and  C_21
REMARK   11  A    between atoms: C_21  and  C_22
REMARK   12  A    between atoms: C_21  and  C_23
REMARK   13  A    between atoms: C_21  and  C_24
REMARK                            x       y       z     vdW  Elec       q    Type
REMARK                         _______ _______ _______ _____ _____    ______ ____
ROOT
ATOM      1  N   UNL     1       4.051   5.138  18.691  0.00  0.00    +0.000 N 
ATOM      2  C   UNL     1       3.311   4.203  17.951  0.00  0.00    +0.000 C 
ATOM      3  O   UNL     1       3.830   3.507  17.091  0.00  0.00    +0.000 OA
ENDROOT
BRANCH   1   4
ATOM      4  S   UNL     1       5.693   5.374  18.434  0.00  0.00    +0.000 S 
ATOM      5  O   UNL     1       6.370   5.104  19.685  0.00  0.00    +0.000 OA
ATOM      6  O   UNL     1       5.851   6.645  17.770  0.00  0.00    +0.000 OA
BRANCH   4   7
ATOM      7  N   UNL     1       6.182   4.220  17.351  0.00  0.00    +0.000 NA
ATOM      8  H   UNL     1       6.247   3.267  17.736  0.00  0.00    +0.000 HD
BRANCH   7   9
ATOM      9  C   UNL     1       7.194   4.546  16.337  0.00  0.00    +0.000 C 
BRANCH   9  10
ATOM     10  C   UNL     1       6.519   4.812  14.999  0.00  0.00    +0.000 C 
ATOM     11  O   UNL     1       5.894   5.830  14.722  0.00  0.00    +0.000 OA
BRANCH  10  13
ATOM     12  C   UNL     1       5.727   3.681  13.089  0.00  0.00    +0.000 C 
ATOM     13  O   UNL     1       6.667   3.738  14.167  0.00  0.00    +0.000 OA
ENDBRANCH  10  13
ENDBRANCH   9  10
ENDBRANCH   7   9
ENDBRANCH   4   7
ENDBRANCH   1   4
BRANCH   1  14
ATOM     14  C   UNL     1       3.466   5.976  19.766  0.00  0.00    +0.000 C 
BRANCH  14  15
ATOM     15  C   UNL     1       2.589   7.148  19.356  0.00  0.00    +0.000 A 
ATOM     16  C   UNL     1       1.787   7.811  20.303  0.00  0.00    +0.000 A 
ATOM     17  C   UNL     1       1.097   8.983  19.967  0.00  0.00    +0.000 A 
ATOM     18  C   UNL     1       1.182   9.503  18.680  0.00  0.00    +0.000 A 
ATOM     19  C   UNL     1       1.954   8.848  17.723  0.00  0.00    +0.000 A 
ATOM     20  C   UNL     1       2.654   7.684  18.061  0.00  0.00    +0.000 A 
ENDBRANCH  14  15
ENDBRANCH   1  14
BRANCH   2  21
ATOM     21  O   UNL     1       1.993   4.099  18.286  0.00  0.00    +0.000 OA
BRANCH  21  22
ATOM     22  C   UNL     1       1.620   3.148  19.327  0.00  0.00    +0.000 C 
ATOM     23  C   UNL     1       0.917   3.862  20.492  0.00  0.00    +0.000 C 
ATOM     24  C   UNL     1       0.614   2.184  18.680  0.00  0.00    +0.000 C 
ATOM     25  C   UNL     1       2.823   2.316  19.801  0.00  0.00    +0.000 C 
ENDBRANCH  21  22
ENDBRANCH   2  21
TORSDOF 9
ENDMDL
MODEL 6
REMARK VINA RESULT:      -6.6      2.399      5.007
REMARK  Name = 
REMARK  13 active torsions:
REMARK  status: ('A' for Active; 'I' for Inactive)
REMARK    1  A    between atoms: C_1  and  O_2
REMARK    2  A    between atoms: O_2  and  C_3
REMARK    3  A    between atoms: C_3  and  C_5
REMARK    4  A    between atoms: C_5  and  N_6
REMARK    5  A    between atoms: N_6  and  S_7
REMARK    6  A    between atoms: S_7  and  N_10
REMARK    7  A    between atoms: N_10  and  C_11
REMARK    8  A    between atoms: C_11  and  C_12
REMARK    9  A    between atoms: C_18  and  O_20
REMARK   10  A    between atoms: O_20  and  C_21
REMARK   11  A    between atoms: C_21  and  C_22
REMARK   12  A    between atoms: C_21  and  C_23
REMARK   13  A    between atoms: C_21  and  C_24
REMARK                            x       y       z     vdW  Elec       q    Type
REMARK                         _______ _______ _______ _____ _____    ______ ____
ROOT
ATOM      1  N   UNL     1       3.166   5.325  18.344  0.00  0.00    +0.000 N 
ATOM      2  C   UNL     1       4.205   5.323  17.402  0.00  0.00    +0.000 C 
ATOM      3  O   UNL     1       4.236   4.522  16.478  0.00  0.00    +0.000 OA
ENDROOT
BRANCH   1   4
ATOM      4  S   UNL     1       1.905   4.219  18.276  0.00  0.00    +0.000 S 
ATOM      5  O   UNL     1       1.165   4.481  17.059  0.00  0.00    +0.000 OA
ATOM      6  O   UNL     1       1.243   4.235  19.558  0.00  0.00    +0.000 OA
BRANCH   4   7
ATOM      7  N   UNL     1       2.587   2.718  18.124  0.00  0.00    +0.000 NA
ATOM      8  H   UNL     1       2.353   2.224  17.251  0.00  0.00    +0.000 HD
BRANCH   7   9
ATOM      9  C   UNL     1       2.730   1.852  19.303  0.00  0.00    +0.000 C 
BRANCH   9  10
ATOM     10  C   UNL     1       3.882   2.342  20.167  0.00  0.00    +0.000 C 
ATOM     11  O   UNL     1       4.953   2.755  19.737  0.00  0.00    +0.000 OA
BRANCH  10  13
ATOM     12  C   UNL     1       2.271   2.685  21.853  0.00  0.00    +0.000 C 
ATOM     13  O   UNL     1       3.573   2.213  21.492  0.00  0.00    +0.000 OA
ENDBRANCH  10  13
ENDBRANCH   9  10
ENDBRANCH   7   9
ENDBRANCH   4   7
ENDBRANCH   1   4
BRANCH   1  14
ATOM     14  C   UNL     1       3.074   6.301  19.457  0.00  0.00    +0.000 C 
BRANCH  14  15
ATOM     15  C   UNL     1       2.216   7.538  19.249  0.00  0.00    +0.000 A 
ATOM     16  C   UNL     1       1.542   8.135  20.330  0.00  0.00    +0.000 A 
ATOM     17  C   UNL     1       0.878   9.359  20.177  0.00  0.00    +0.000 A 
ATOM     18  C   UNL     1       0.860   9.997  18.941  0.00  0.00    +0.000 A 
ATOM     19  C   UNL     1       1.503   9.410  17.854  0.00  0.00    +0.000 A 
ATOM     20  C   UNL     1       2.179   8.195  18.010  0.00  0.00    +0.000 A 
ENDBRANCH  14  15
ENDBRANCH   1  14
BRANCH   2  21
ATOM     21  O   UNL     1       5.148   6.296  17.563  0.00  0.00    +0.000 OA
BRANCH  21  22
ATOM     22  C   UNL     1       6.531   5.886  17.770  0.00  0.00    +0.000 C 
ATOM     23  C   UNL     1       7.495   7.044  17.467  0.00  0.00    +0.000 C 
ATOM     24  C   UNL     1       6.653   5.540  19.262  0.00  0.00    +0.000 C 
ATOM     25  C   UNL     1       6.880   4.619  16.971  0.00  0.00    +0.000 C 
ENDBRANCH  21  22
ENDBRANCH   2  21
TORSDOF 9
ENDMDL
MODEL 7
REMARK VINA RESULT:      -6.6      1.409      2.048
REMARK  Name = 
REMARK  13 active torsions:
REMARK  status: ('A' for Active; 'I' for Inactive)
REMARK    1  A    between atoms: C_1  and  O_2
REMARK    2  A    between atoms: O_2  and  C_3
REMARK    3  A    between atoms: C_3  and  C_5
REMARK    4  A    between atoms: C_5  and  N_6
REMARK    5  A    between atoms: N_6  and  S_7
REMARK    6  A    between atoms: S_7  and  N_10
REMARK    7  A    between atoms: N_10  and  C_11
REMARK    8  A    between atoms: C_11  and  C_12
REMARK    9  A    between atoms: C_18  and  O_20
REMARK   10  A    between atoms: O_20  and  C_21
REMARK   11  A    between atoms: C_21  and  C_22
REMARK   12  A    between atoms: C_21  and  C_23
REMARK   13  A    between atoms: C_21  and  C_24
REMARK                            x       y       z     vdW  Elec       q    Type
REMARK                         _______ _______ _______ _____ _____    ______ ____
ROOT
ATOM      1  N   UNL     1       3.728   5.349  17.967  0.00  0.00    +0.000 N 
ATOM      2  C   UNL     1       2.778   4.369  17.642  0.00  0.00    +0.000 C 
ATOM      3  O   UNL     1       2.914   3.635  16.674  0.00  0.00    +0.000 OA
ENDROOT
BRANCH   1   4
ATOM      4  S   UNL     1       5.107   5.589  17.040  0.00  0.00    +0.000 S 
ATOM      5  O   UNL     1       6.241   5.572  17.939  0.00  0.00    +0.000 OA
ATOM      6  O   UNL     1       4.863   6.724  16.184  0.00  0.00    +0.000 OA
BRANCH   4   7
ATOM      7  N   UNL     1       5.251   4.277  16.040  0.00  0.00    +0.000 NA
ATOM      8  H   UNL     1       5.855   3.524  16.401  0.00  0.00    +0.000 HD
BRANCH   7   9
ATOM      9  C   UNL     1       5.302   4.463  14.584  0.00  0.00    +0.000 C 
BRANCH   9  10
ATOM     10  C   UNL     1       6.749   4.574  14.127  0.00  0.00    +0.000 C 
ATOM     11  O   UNL     1       7.586   5.317  14.629  0.00  0.00    +0.000 OA
BRANCH  10  13
ATOM     12  C   UNL     1       5.793   3.350  12.355  0.00  0.00    +0.000 C 
ATOM     13  O   UNL     1       6.973   3.765  13.049  0.00  0.00    +0.000 OA
ENDBRANCH  10  13
ENDBRANCH   9  10
ENDBRANCH   7   9
ENDBRANCH   4   7
ENDBRANCH   1   4
BRANCH   1  14
ATOM     14  C   UNL     1       3.616   6.235  19.151  0.00  0.00    +0.000 C 
BRANCH  14  15
ATOM     15  C   UNL     1       2.588   7.353  19.107  0.00  0.00    +0.000 A 
ATOM     16  C   UNL     1       1.873   7.718  20.263  0.00  0.00    +0.000 A 
ATOM     17  C   UNL     1       1.040   8.844  20.269  0.00  0.00    +0.000 A 
ATOM     18  C   UNL     1       0.893   9.614  19.120  0.00  0.00    +0.000 A 
ATOM     19  C   UNL     1       1.576   9.256  17.960  0.00  0.00    +0.000 A 
ATOM     20  C   UNL     1       2.419   8.139  17.957  0.00  0.00    +0.000 A 
ENDBRANCH  14  15
ENDBRANCH   1  14
BRANCH   2  21
ATOM     21  O   UNL     1       1.721   4.267  18.499  0.00  0.00    +0.000 OA
BRANCH  21  22
ATOM     22  C   UNL     1       1.709   3.161  19.448  0.00  0.00    +0.000 C 
ATOM     23  C   UNL     1       1.187   3.622  20.818  0.00  0.00    +0.000 C 
ATOM     24  C   UNL     1       0.721   2.128  18.884  0.00  0.00    +0.000 C 
ATOM     25  C   UNL     1       3.084   2.479  19.552  0.00  0.00    +0.000 C 
ENDBRANCH  21  22
ENDBRANCH   2  21
TORSDOF 9
ENDMDL
MODEL 8
REMARK VINA RESULT:      -6.6      2.413      5.329
REMARK  Name = 
REMARK  13 active torsions:
REMARK  status: ('A' for Active; 'I' for Inactive)
REMARK    1  A    between atoms: C_1  and  O_2
REMARK    2  A    between atoms: O_2  and  C_3
REMARK    3  A    between atoms: C_3  and  C_5
REMARK    4  A    between atoms: C_5  and  N_6
REMARK    5  A    between atoms: N_6  and  S_7
REMARK    6  A    between atoms: S_7  and  N_10
REMARK    7  A    between atoms: N_10  and  C_11
REMARK    8  A    between atoms: C_11  and  C_12
REMARK    9  A    between atoms: C_18  and  O_20
REMARK   10  A    between atoms: O_20  and  C_21
REMARK   11  A    between atoms: C_21  and  C_22
REMARK   12  A    between atoms: C_21  and  C_23
REMARK   13  A    between atoms: C_21  and  C_24
REMARK                            x       y       z     vdW  Elec       q    Type
REMARK                         _______ _______ _______ _____ _____    ______ ____
ROOT
ATOM      1  N   UNL     1       3.301   4.635  18.392  0.00  0.00    +0.000 N 
ATOM      2  C   UNL     1       4.402   4.408  17.552  0.00  0.00    +0.000 C 
ATOM      3  O   UNL     1       4.348   3.622  16.617  0.00  0.00    +0.000 OA
ENDROOT
BRANCH   1   4
ATOM      4  S   UNL     1       1.843   3.832  18.180  0.00  0.00    +0.000 S 
ATOM      5  O   UNL     1       2.149   2.439  17.928  0.00  0.00    +0.000 OA
ATOM      6  O   UNL     1       1.059   4.595  17.239  0.00  0.00    +0.000 OA
BRANCH   4   7
ATOM      7  N   UNL     1       1.036   3.905  19.624  0.00  0.00    +0.000 NA
ATOM      8  H   UNL     1       1.093   4.814  20.104  0.00  0.00    +0.000 HD
BRANCH   7   9
ATOM      9  C   UNL     1       1.015   2.738  20.515  0.00  0.00    +0.000 C 
BRANCH   9  10
ATOM     10  C   UNL     1       2.256   2.736  21.395  0.00  0.00    +0.000 C 
ATOM     11  O   UNL     1       2.450   3.502  22.332  0.00  0.00    +0.000 OA
BRANCH  10  13
ATOM     12  C   UNL     1       4.449   2.293  20.654  0.00  0.00    +0.000 C 
ATOM     13  O   UNL     1       3.145   1.792  20.964  0.00  0.00    +0.000 OA
ENDBRANCH  10  13
ENDBRANCH   9  10
ENDBRANCH   7   9
ENDBRANCH   4   7
ENDBRANCH   1   4
BRANCH   1  14
ATOM     14  C   UNL     1       3.316   5.605  19.514  0.00  0.00    +0.000 C 
BRANCH  14  15
ATOM     15  C   UNL     1       2.694   6.972  19.281  0.00  0.00    +0.000 A 
ATOM     16  C   UNL     1       2.789   7.600  18.026  0.00  0.00    +0.000 A 
ATOM     17  C   UNL     1       2.090   8.784  17.759  0.00  0.00    +0.000 A 
ATOM     18  C   UNL     1       1.299   9.369  18.743  0.00  0.00    +0.000 A 
ATOM     19  C   UNL     1       1.209   8.772  19.998  0.00  0.00    +0.000 A 
ATOM     20  C   UNL     1       1.897   7.582  20.262  0.00  0.00    +0.000 A 
ENDBRANCH  14  15
ENDBRANCH   1  14
BRANCH   2  21
ATOM     21  O   UNL     1       5.513   5.151  17.825  0.00  0.00    +0.000 OA
BRANCH  21  22
ATOM     22  C   UNL     1       6.206   5.787  16.711  0.00  0.00    +0.000 C 
ATOM     23  C   UNL     1       5.209   6.499  15.783  0.00  0.00    +0.000 C 
ATOM     24  C   UNL     1       7.123   6.852  17.334  0.00  0.00    +0.000 C 
ATOM     25  C   UNL     1       7.099   4.795  15.948  0.00  0.00    +0.000 C 
ENDBRANCH  21  22
ENDBRANCH   2  21
TORSDOF 9
ENDMDL
MODEL 9
REMARK VINA RESULT:      -6.5      1.215      1.741
REMARK  Name = 
REMARK  13 active torsions:
REMARK  status: ('A' for Active; 'I' for Inactive)
REMARK    1  A    between atoms: C_1  and  O_2
REMARK    2  A    between atoms: O_2  and  C_3
REMARK    3  A    between atoms: C_3  and  C_5
REMARK    4  A    between atoms: C_5  and  N_6
REMARK    5  A    between atoms: N_6  and  S_7
REMARK    6  A    between atoms: S_7  and  N_10
REMARK    7  A    between atoms: N_10  and  C_11
REMARK    8  A    between atoms: C_11  and  C_12
REMARK    9  A    between atoms: C_18  and  O_20
REMARK   10  A    between atoms: O_20  and  C_21
REMARK   11  A    between atoms: C_21  and  C_22
REMARK   12  A    between atoms: C_21  and  C_23
REMARK   13  A    between atoms: C_21  and  C_24
REMARK                            x       y       z     vdW  Elec       q    Type
REMARK                         _______ _______ _______ _____ _____    ______ ____
ROOT
ATOM      1  N   UNL     1       4.623   4.958  18.324  0.00  0.00    +0.000 N 
ATOM      2  C   UNL     1       4.164   3.753  18.878  0.00  0.00    +0.000 C 
ATOM      3  O   UNL     1       4.896   3.023  19.531  0.00  0.00    +0.000 OA
ENDROOT
BRANCH   1   4
ATOM      4  S   UNL     1       6.212   5.469  18.508  0.00  0.00    +0.000 S 
ATOM      5  O   UNL     1       6.542   5.359  19.913  0.00  0.00    +0.000 OA
ATOM      6  O   UNL     1       6.346   6.728  17.816  0.00  0.00    +0.000 OA
BRANCH   4   7
ATOM      7  N   UNL     1       7.164   4.388  17.692  0.00  0.00    +0.000 NA
ATOM      8  H   UNL     1       7.895   3.940  18.264  0.00  0.00    +0.000 HD
BRANCH   7   9
ATOM      9  C   UNL     1       7.546   4.649  16.298  0.00  0.00    +0.000 C 
BRANCH   9  10
ATOM     10  C   UNL     1       6.498   4.072  15.358  0.00  0.00    +0.000 C 
ATOM     11  O   UNL     1       5.671   3.222  15.669  0.00  0.00    +0.000 OA
BRANCH  10  13
ATOM     12  C   UNL     1       6.291   3.713  13.038  0.00  0.00    +0.000 C 
ATOM     13  O   UNL     1       6.637   4.601  14.105  0.00  0.00    +0.000 OA
ENDBRANCH  10  13
ENDBRANCH   9  10
ENDBRANCH   7   9
ENDBRANCH   4   7
ENDBRANCH   1   4
BRANCH   1  14
ATOM     14  C   UNL     1       3.759   5.886  17.556  0.00  0.00    +0.000 C 
BRANCH  14  15
ATOM     15  C   UNL     1       3.021   6.970  18.325  0.00  0.00    +0.000 A 
ATOM     16  C   UNL     1       2.617   8.157  17.685  0.00  0.00    +0.000 A 
ATOM     17  C   UNL     1       1.806   9.089  18.343  0.00  0.00    +0.000 A 
ATOM     18  C   UNL     1       1.397   8.863  19.653  0.00  0.00    +0.000 A 
ATOM     19  C   UNL     1       1.804   7.704  20.310  0.00  0.00    +0.000 A 
ATOM     20  C   UNL     1       2.604   6.765  19.649  0.00  0.00    +0.000 A 
ENDBRANCH  14  15
ENDBRANCH   1  14
BRANCH   2  21
ATOM     21  O   UNL     1       2.844   3.477  18.673  0.00  0.00    +0.000 OA
BRANCH  21  22
ATOM     22  C   UNL     1       2.044   3.053  19.816  0.00  0.00    +0.000 C 
ATOM     23  C   UNL     1       2.652   3.568  21.130  0.00  0.00    +0.000 C 
ATOM     24  C   UNL     1       0.667   3.711  19.637  0.00  0.00    +0.000 C 
ATOM     25  C   UNL     1       1.831   1.530  19.834  0.00  0.00    +0.000 C 
ENDBRANCH  21  22
ENDBRANCH   2  21
TORSDOF 9
ENDMDL
