MODEL 1
REMARK VINA RESULT:      -8.1      0.000      0.000
REMARK  Name = 
REMARK  4 active torsions:
REMARK  status: ('A' for Active; 'I' for Inactive)
REMARK    1  A    between atoms: C_1  and  C_2
REMARK    2  A    between atoms: C_13  and  S_14
REMARK    3  A    between atoms: S_14  and  N_17
REMARK    4  A    between atoms: N_20  and  C_21
REMARK                            x       y       z     vdW  Elec       q    Type
REMARK                         _______ _______ _______ _____ _____    ______ ____
ROOT
ATOM      1  S   UNL     1       1.866   3.517  20.577  0.00  0.00    +0.000 S 
ATOM      2  O   UNL     1       2.089   3.582  22.009  0.00  0.00    +0.000 OA
ATOM      3  O   UNL     1       0.674   2.894  20.047  0.00  0.00    +0.000 OA
ENDROOT
BRANCH   1  16
ATOM      4  C   UNL     1       1.572   4.588  17.550  0.00  0.00    +0.000 C 
ATOM      5  C   UNL     1       1.988   5.542  18.631  0.00  0.00    +0.000 A 
ATOM      6  C   UNL     1       2.178   6.872  18.254  0.00  0.00    +0.000 A 
ATOM      7  C   UNL     1       1.907   7.894  19.155  0.00  0.00    +0.000 A 
ATOM      8  N   UNL     1       1.900   9.208  18.688  0.00  0.00    +0.000 N 
ATOM      9  C   UNL     1       1.401  10.262  19.417  0.00  0.00    +0.000 A 
ATOM     10  O   UNL     1       1.349  11.392  18.954  0.00  0.00    +0.000 OA
ATOM     11  C   UNL     1       0.876   9.929  20.837  0.00  0.00    +0.000 A 
ATOM     12  O   UNL     1       0.346  10.788  21.528  0.00  0.00    +0.000 OA
ATOM     13  N   UNL     1       1.022   8.622  21.272  0.00  0.00    +0.000 N 
ATOM     14  C   UNL     1       1.520   7.592  20.460  0.00  0.00    +0.000 A 
ATOM     15  C   UNL     1       1.574   6.267  20.910  0.00  0.00    +0.000 A 
ATOM     16  C   UNL     1       1.862   5.225  20.000  0.00  0.00    +0.000 A 
ATOM     17  H   UNL     1       2.186   9.426  17.743  0.00  0.00    +0.000 HD
ATOM     18  H   UNL     1       0.636   8.427  22.186  0.00  0.00    +0.000 HD
ENDBRANCH   1  16
BRANCH   1  19
ATOM     19  N   UNL     1       3.205   2.744  19.922  0.00  0.00    +0.000 NA
ATOM     20  C   UNL     1       3.179   1.816  18.774  0.00  0.00    +0.000 C 
ATOM     21  C   UNL     1       3.917   2.366  17.524  0.00  0.00    +0.000 C 
ATOM     22  N   UNL     1       5.130   3.184  17.796  0.00  0.00    +0.000 N 
ATOM     23  C   UNL     1       5.205   3.896  19.094  0.00  0.00    +0.000 C 
ATOM     24  C   UNL     1       4.583   3.125  20.257  0.00  0.00    +0.000 C 
BRANCH  22  25
ATOM     25  C   UNL     1       5.729   3.818  16.682  0.00  0.00    +0.000 A 
ATOM     26  C   UNL     1       6.533   4.965  16.827  0.00  0.00    +0.000 A 
ATOM     27  C   UNL     1       7.093   5.633  15.722  0.00  0.00    +0.000 A 
ATOM     28  C   UNL     1       6.860   5.171  14.433  0.00  0.00    +0.000 A 
ATOM     29  C   UNL     1       6.075   4.042  14.259  0.00  0.00    +0.000 A 
ATOM     30 CL   UNL     1       5.773   3.450  12.669  0.00  0.00    +0.000 Cl
ATOM     31  C   UNL     1       5.518   3.380  15.360  0.00  0.00    +0.000 A 
ENDBRANCH  22  25
ENDBRANCH   1  19
TORSDOF 3
ENDMDL
MODEL 2
REMARK VINA RESULT:      -8.0      4.072      7.934
REMARK  Name = 
REMARK  4 active torsions:
REMARK  status: ('A' for Active; 'I' for Inactive)
REMARK    1  A    between atoms: C_1  and  C_2
REMARK    2  A    between atoms: C_13  and  S_14
REMARK    3  A    between atoms: S_14  and  N_17
REMARK    4  A    between atoms: N_20  and  C_21
REMARK                            x       y       z     vdW  Elec       q    Type
REMARK                         _______ _______ _______ _____ _____    ______ ____
ROOT
ATOM      1  S   UNL     1       4.941   4.314  19.127  0.00  0.00    +0.000 S 
ATOM      2  O   UNL     1       4.965   2.874  19.308  0.00  0.00    +0.000 OA
ATOM      3  O   UNL     1       5.605   5.184  20.071  0.00  0.00    +0.000 OA
ENDROOT
BRANCH   1  16
ATOM      4  C   UNL     1       7.850   5.555  18.499  0.00  0.00    +0.000 C 
ATOM      5  C   UNL     1       6.857   5.405  17.384  0.00  0.00    +0.000 A 
ATOM      6  C   UNL     1       7.286   5.778  16.109  0.00  0.00    +0.000 A 
ATOM      7  C   UNL     1       6.792   5.119  14.991  0.00  0.00    +0.000 A 
ATOM      8  N   UNL     1       7.392   5.363  13.756  0.00  0.00    +0.000 N 
ATOM      9  C   UNL     1       7.162   4.590  12.642  0.00  0.00    +0.000 A 
ATOM     10  O   UNL     1       7.753   4.791  11.591  0.00  0.00    +0.000 OA
ATOM     11  C   UNL     1       6.144   3.433  12.807  0.00  0.00    +0.000 A 
ATOM     12  O   UNL     1       5.932   2.647  11.893  0.00  0.00    +0.000 OA
ATOM     13  N   UNL     1       5.504   3.325  14.031  0.00  0.00    +0.000 N 
ATOM     14  C   UNL     1       5.811   4.139  15.132  0.00  0.00    +0.000 A 
ATOM     15  C   UNL     1       5.201   3.943  16.378  0.00  0.00    +0.000 A 
ATOM     16  C   UNL     1       5.692   4.621  17.517  0.00  0.00    +0.000 A 
ATOM     17  H   UNL     1       8.100   6.079  13.653  0.00  0.00    +0.000 HD
ATOM     18  H   UNL     1       4.876   2.538  14.121  0.00  0.00    +0.000 HD
ENDBRANCH   1  16
BRANCH   1  19
ATOM     19  N   UNL     1       3.323   4.756  19.044  0.00  0.00    +0.000 NA
ATOM     20  C   UNL     1       2.333   4.582  20.125  0.00  0.00    +0.000 C 
ATOM     21  C   UNL     1       1.816   5.925  20.706  0.00  0.00    +0.000 C 
ATOM     22  N   UNL     1       1.668   7.039  19.731  0.00  0.00    +0.000 N 
ATOM     23  C   UNL     1       2.527   7.016  18.523  0.00  0.00    +0.000 C 
ATOM     24  C   UNL     1       2.789   5.613  17.978  0.00  0.00    +0.000 C 
BRANCH  22  25
ATOM     25  C   UNL     1       1.344   8.308  20.263  0.00  0.00    +0.000 A 
ATOM     26  C   UNL     1       1.129   8.502  21.641  0.00  0.00    +0.000 A 
ATOM     27  C   UNL     1       0.757   9.750  22.175  0.00  0.00    +0.000 A 
ATOM     28  C   UNL     1       0.586  10.845  21.339  0.00  0.00    +0.000 A 
ATOM     29  C   UNL     1       0.794  10.687  19.978  0.00  0.00    +0.000 A 
ATOM     30 CL   UNL     1       0.588  12.033  18.921  0.00  0.00    +0.000 Cl
ATOM     31  C   UNL     1       1.163   9.444  19.449  0.00  0.00    +0.000 A 
ENDBRANCH  22  25
ENDBRANCH   1  19
TORSDOF 3
ENDMDL
MODEL 3
REMARK VINA RESULT:      -7.8      4.294      7.991
REMARK  Name = 
REMARK  4 active torsions:
REMARK  status: ('A' for Active; 'I' for Inactive)
REMARK    1  A    between atoms: C_1  and  C_2
REMARK    2  A    between atoms: C_13  and  S_14
REMARK    3  A    between atoms: S_14  and  N_17
REMARK    4  A    between atoms: N_20  and  C_21
REMARK                            x       y       z     vdW  Elec       q    Type
REMARK                         _______ _______ _______ _____ _____    ______ ____
ROOT
ATOM      1  S   UNL     1       5.003   4.124  19.130  0.00  0.00    +0.000 S 
ATOM      2  O   UNL     1       5.087   2.683  19.278  0.00  0.00    +0.000 OA
ATOM      3  O   UNL     1       5.632   4.999  20.094  0.00  0.00    +0.000 OA
ENDROOT
BRANCH   1  16
ATOM      4  C   UNL     1       7.871   5.472  18.532  0.00  0.00    +0.000 C 
ATOM      5  C   UNL     1       6.881   5.322  17.415  0.00  0.00    +0.000 A 
ATOM      6  C   UNL     1       7.294   5.742  16.150  0.00  0.00    +0.000 A 
ATOM      7  C   UNL     1       6.819   5.099  15.015  0.00  0.00    +0.000 A 
ATOM      8  N   UNL     1       7.408   5.396  13.786  0.00  0.00    +0.000 N 
ATOM      9  C   UNL     1       7.199   4.646  12.651  0.00  0.00    +0.000 A 
ATOM     10  O   UNL     1       7.781   4.894  11.605  0.00  0.00    +0.000 OA
ATOM     11  C   UNL     1       6.218   3.454  12.787  0.00  0.00    +0.000 A 
ATOM     12  O   UNL     1       6.029   2.687  11.852  0.00  0.00    +0.000 OA
ATOM     13  N   UNL     1       5.586   3.293  14.008  0.00  0.00    +0.000 N 
ATOM     14  C   UNL     1       5.869   4.085  15.131  0.00  0.00    +0.000 A 
ATOM     15  C   UNL     1       5.269   3.837  16.372  0.00  0.00    +0.000 A 
ATOM     16  C   UNL     1       5.741   4.499  17.528  0.00  0.00    +0.000 A 
ATOM     17  H   UNL     1       8.092   6.136  13.702  0.00  0.00    +0.000 HD
ATOM     18  H   UNL     1       4.982   2.485  14.077  0.00  0.00    +0.000 HD
ENDBRANCH   1  16
BRANCH   1  19
ATOM     19  N   UNL     1       3.369   4.501  19.057  0.00  0.00    +0.000 NA
ATOM     20  C   UNL     1       2.407   4.350  20.166  0.00  0.00    +0.000 C 
ATOM     21  C   UNL     1       1.850   5.702  20.684  0.00  0.00    +0.000 C 
ATOM     22  N   UNL     1       1.641   6.755  19.653  0.00  0.00    +0.000 N 
ATOM     23  C   UNL     1       2.478   6.699  18.431  0.00  0.00    +0.000 C 
ATOM     24  C   UNL     1       2.784   5.279  17.957  0.00  0.00    +0.000 C 
BRANCH  22  25
ATOM     25  C   UNL     1       1.279   8.039  20.122  0.00  0.00    +0.000 A 
ATOM     26  C   UNL     1       1.415   9.187  19.318  0.00  0.00    +0.000 A 
ATOM     27  C   UNL     1       1.105  10.476  19.792  0.00  0.00    +0.000 A 
ATOM     28  C   UNL     1       0.651  10.653  21.092  0.00  0.00    +0.000 A 
ATOM     29  C   UNL     1       0.505   9.541  21.907  0.00  0.00    +0.000 A 
ATOM     30 CL   UNL     1      -0.058   9.736  23.524  0.00  0.00    +0.000 Cl
ATOM     31  C   UNL     1       0.814   8.260  21.434  0.00  0.00    +0.000 A 
ENDBRANCH  22  25
ENDBRANCH   1  19
TORSDOF 3
ENDMDL
MODEL 4
REMARK VINA RESULT:      -7.8      5.659     10.030
REMARK  Name = 
REMARK  4 active torsions:
REMARK  status: ('A' for Active; 'I' for Inactive)
REMARK    1  A    between atoms: C_1  and  C_2
REMARK    2  A    between atoms: C_13  and  S_14
REMARK    3  A    between atoms: S_14  and  N_17
REMARK    4  A    between atoms: N_20  and  C_21
REMARK                            x       y       z     vdW  Elec       q    Type
REMARK                         _______ _______ _______ _____ _____    ______ ____
ROOT
ATOM      1  S   UNL     1       0.320  10.289  20.531  0.00  0.00    +0.000 S 
ATOM      2  O   UNL     1      -0.655   9.494  21.255  0.00  0.00    +0.000 OA
ATOM      3  O   UNL     1       1.233  11.156  21.240  0.00  0.00    +0.000 OA
ENDROOT
BRANCH   1  16
ATOM      4  C   UNL     1       2.311  10.888  18.066  0.00  0.00    +0.000 C 
ATOM      5  C   UNL     1       1.949   9.469  18.392  0.00  0.00    +0.000 A 
ATOM      6  C   UNL     1       2.550   8.476  17.618  0.00  0.00    +0.000 A 
ATOM      7  C   UNL     1       2.837   7.238  18.178  0.00  0.00    +0.000 A 
ATOM      8  N   UNL     1       3.624   6.345  17.453  0.00  0.00    +0.000 N 
ATOM      9  C   UNL     1       4.178   5.212  18.002  0.00  0.00    +0.000 A 
ATOM     10  O   UNL     1       4.918   4.484  17.356  0.00  0.00    +0.000 OA
ATOM     11  C   UNL     1       3.842   4.935  19.489  0.00  0.00    +0.000 A 
ATOM     12  O   UNL     1       4.349   3.993  20.083  0.00  0.00    +0.000 OA
ATOM     13  N   UNL     1       2.961   5.805  20.109  0.00  0.00    +0.000 N 
ATOM     14  C   UNL     1       2.454   6.958  19.490  0.00  0.00    +0.000 A 
ATOM     15  C   UNL     1       1.632   7.858  20.179  0.00  0.00    +0.000 A 
ATOM     16  C   UNL     1       1.327   9.114  19.607  0.00  0.00    +0.000 A 
ATOM     17  H   UNL     1       3.896   6.546  16.499  0.00  0.00    +0.000 HD
ATOM     18  H   UNL     1       2.792   5.621  21.089  0.00  0.00    +0.000 HD
ENDBRANCH   1  16
BRANCH   1  19
ATOM     19  N   UNL     1      -0.546  11.217  19.431  0.00  0.00    +0.000 NA
ATOM     20  C   UNL     1      -1.192  10.708  18.205  0.00  0.00    +0.000 C 
ATOM     21  C   UNL     1      -2.740  10.800  18.244  0.00  0.00    +0.000 C 
ATOM     22  N   UNL     1      -3.302  11.986  18.947  0.00  0.00    +0.000 N 
ATOM     23  C   UNL     1      -2.479  12.611  20.010  0.00  0.00    +0.000 C 
ATOM     24  C   UNL     1      -0.978  12.590  19.720  0.00  0.00    +0.000 C 
BRANCH  22  25
ATOM     25  C   UNL     1      -4.704  12.012  19.126  0.00  0.00    +0.000 A 
ATOM     26  C   UNL     1      -5.592  11.791  18.055  0.00  0.00    +0.000 A 
ATOM     27  C   UNL     1      -6.989  11.864  18.210  0.00  0.00    +0.000 A 
ATOM     28  C   UNL     1      -7.540  12.165  19.449  0.00  0.00    +0.000 A 
ATOM     29  C   UNL     1      -6.692  12.384  20.523  0.00  0.00    +0.000 A 
ATOM     30 CL   UNL     1      -7.353  12.758  22.070  0.00  0.00    +0.000 Cl
ATOM     31  C   UNL     1      -5.302  12.312  20.366  0.00  0.00    +0.000 A 
ENDBRANCH  22  25
ENDBRANCH   1  19
TORSDOF 3
ENDMDL
MODEL 5
REMARK VINA RESULT:      -7.5      3.807      6.677
REMARK  Name = 
REMARK  4 active torsions:
REMARK  status: ('A' for Active; 'I' for Inactive)
REMARK    1  A    between atoms: C_1  and  C_2
REMARK    2  A    between atoms: C_13  and  S_14
REMARK    3  A    between atoms: S_14  and  N_17
REMARK    4  A    between atoms: N_20  and  C_21
REMARK                            x       y       z     vdW  Elec       q    Type
REMARK                         _______ _______ _______ _____ _____    ______ ____
ROOT
ATOM      1  S   UNL     1       0.161  10.061  18.888  0.00  0.00    +0.000 S 
ATOM      2  O   UNL     1      -0.815   9.979  19.959  0.00  0.00    +0.000 OA
ATOM      3  O   UNL     1      -0.191   9.665  17.543  0.00  0.00    +0.000 OA
ENDROOT
BRANCH   1  16
ATOM      4  C   UNL     1      -1.069  12.561  20.513  0.00  0.00    +0.000 C 
ATOM      5  C   UNL     1      -0.128  12.815  19.372  0.00  0.00    +0.000 A 
ATOM      6  C   UNL     1       0.198  14.147  19.114  0.00  0.00    +0.000 A 
ATOM      7  C   UNL     1       1.452  14.470  18.611  0.00  0.00    +0.000 A 
ATOM      8  N   UNL     1       1.825  15.812  18.565  0.00  0.00    +0.000 N 
ATOM      9  C   UNL     1       3.116  16.227  18.331  0.00  0.00    +0.000 A 
ATOM     10  O   UNL     1       3.423  17.410  18.362  0.00  0.00    +0.000 OA
ATOM     11  C   UNL     1       4.159  15.111  18.067  0.00  0.00    +0.000 A 
ATOM     12  O   UNL     1       5.344  15.379  17.924  0.00  0.00    +0.000 OA
ATOM     13  N   UNL     1       3.689  13.809  18.015  0.00  0.00    +0.000 N 
ATOM     14  C   UNL     1       2.358  13.460  18.289  0.00  0.00    +0.000 A 
ATOM     15  C   UNL     1       1.941  12.123  18.309  0.00  0.00    +0.000 A 
ATOM     16  C   UNL     1       0.662  11.791  18.808  0.00  0.00    +0.000 A 
ATOM     17  H   UNL     1       1.165  16.545  18.792  0.00  0.00    +0.000 HD
ATOM     18  H   UNL     1       4.398  13.101  17.880  0.00  0.00    +0.000 HD
ENDBRANCH   1  16
BRANCH   1  19
ATOM     19  N   UNL     1       1.484   9.153  19.380  0.00  0.00    +0.000 NA
ATOM     20  C   UNL     1       1.705   8.633  20.744  0.00  0.00    +0.000 C 
ATOM     21  C   UNL     1       1.656   7.084  20.825  0.00  0.00    +0.000 C 
ATOM     22  N   UNL     1       2.207   6.356  19.651  0.00  0.00    +0.000 N 
ATOM     23  C   UNL     1       2.186   7.046  18.339  0.00  0.00    +0.000 C 
ATOM     24  C   UNL     1       2.430   8.552  18.431  0.00  0.00    +0.000 C 
BRANCH  22  25
ATOM     25  C   UNL     1       2.036   4.952  19.638  0.00  0.00    +0.000 A 
ATOM     26  C   UNL     1       1.154   4.305  20.524  0.00  0.00    +0.000 A 
ATOM     27  C   UNL     1       1.013   2.905  20.554  0.00  0.00    +0.000 A 
ATOM     28  C   UNL     1       1.758   2.108  19.695  0.00  0.00    +0.000 A 
ATOM     29  C   UNL     1       2.633   2.716  18.809  0.00  0.00    +0.000 A 
ATOM     30 CL   UNL     1       3.568   1.748  17.732  0.00  0.00    +0.000 Cl
ATOM     31  C   UNL     1       2.772   4.109  18.781  0.00  0.00    +0.000 A 
ENDBRANCH  22  25
ENDBRANCH   1  19
TORSDOF 3
ENDMDL
MODEL 6
REMARK VINA RESULT:      -7.4      4.031      6.475
REMARK  Name = 
REMARK  4 active torsions:
REMARK  status: ('A' for Active; 'I' for Inactive)
REMARK    1  A    between atoms: C_1  and  C_2
REMARK    2  A    between atoms: C_13  and  S_14
REMARK    3  A    between atoms: S_14  and  N_17
REMARK    4  A    between atoms: N_20  and  C_21
REMARK                            x       y       z     vdW  Elec       q    Type
REMARK                         _______ _______ _______ _____ _____    ______ ____
ROOT
ATOM      1  S   UNL     1       0.005  10.163  19.047  0.00  0.00    +0.000 S 
ATOM      2  O   UNL     1      -0.787   9.936  20.241  0.00  0.00    +0.000 OA
ATOM      3  O   UNL     1      -0.507   9.795  17.746  0.00  0.00    +0.000 OA
ENDROOT
BRANCH   1  16
ATOM      4  C   UNL     1      -2.115  12.575  19.344  0.00  0.00    +0.000 C 
ATOM      5  C   UNL     1      -0.720  12.874  18.879  0.00  0.00    +0.000 A 
ATOM      6  C   UNL     1      -0.411  14.214  18.647  0.00  0.00    +0.000 A 
ATOM      7  C   UNL     1       0.879  14.678  18.868  0.00  0.00    +0.000 A 
ATOM      8  N   UNL     1       1.107  16.053  18.834  0.00  0.00    +0.000 N 
ATOM      9  C   UNL     1       2.271  16.634  19.284  0.00  0.00    +0.000 A 
ATOM     10  O   UNL     1       2.414  17.848  19.301  0.00  0.00    +0.000 OA
ATOM     11  C   UNL     1       3.366  15.667  19.801  0.00  0.00    +0.000 A 
ATOM     12  O   UNL     1       4.403  16.095  20.290  0.00  0.00    +0.000 OA
ATOM     13  N   UNL     1       3.110  14.310  19.695  0.00  0.00    +0.000 N 
ATOM     14  C   UNL     1       1.886  13.791  19.246  0.00  0.00    +0.000 A 
ATOM     15  C   UNL     1       1.636  12.413  19.234  0.00  0.00    +0.000 A 
ATOM     16  C   UNL     1       0.327  11.936  18.997  0.00  0.00    +0.000 A 
ATOM     17  H   UNL     1       0.378  16.695  18.553  0.00  0.00    +0.000 HD
ATOM     18  H   UNL     1       3.827  13.706  20.075  0.00  0.00    +0.000 HD
ENDBRANCH   1  16
BRANCH   1  19
ATOM     19  N   UNL     1       1.465   9.370  19.285  0.00  0.00    +0.000 NA
ATOM     20  C   UNL     1       1.800   8.528  20.451  0.00  0.00    +0.000 C 
ATOM     21  C   UNL     1       1.993   7.031  20.091  0.00  0.00    +0.000 C 
ATOM     22  N   UNL     1       2.617   6.757  18.769  0.00  0.00    +0.000 N 
ATOM     23  C   UNL     1       2.454   7.777  17.705  0.00  0.00    +0.000 C 
ATOM     24  C   UNL     1       2.466   9.214  18.222  0.00  0.00    +0.000 C 
BRANCH  22  25
ATOM     25  C   UNL     1       2.663   5.405  18.357  0.00  0.00    +0.000 A 
ATOM     26  C   UNL     1       3.660   4.930  17.483  0.00  0.00    +0.000 A 
ATOM     27  C   UNL     1       3.687   3.598  17.028  0.00  0.00    +0.000 A 
ATOM     28  C   UNL     1       2.709   2.700  17.434  0.00  0.00    +0.000 A 
ATOM     29  C   UNL     1       1.716   3.138  18.297  0.00  0.00    +0.000 A 
ATOM     30 CL   UNL     1       0.492   2.041  18.815  0.00  0.00    +0.000 Cl
ATOM     31  C   UNL     1       1.691   4.463  18.748  0.00  0.00    +0.000 A 
ENDBRANCH  22  25
ENDBRANCH   1  19
TORSDOF 3
ENDMDL
MODEL 7
REMARK VINA RESULT:      -7.4      7.608     11.593
REMARK  Name = 
REMARK  4 active torsions:
REMARK  status: ('A' for Active; 'I' for Inactive)
REMARK    1  A    between atoms: C_1  and  C_2
REMARK    2  A    between atoms: C_13  and  S_14
REMARK    3  A    between atoms: S_14  and  N_17
REMARK    4  A    between atoms: N_20  and  C_21
REMARK                            x       y       z     vdW  Elec       q    Type
REMARK                         _______ _______ _______ _____ _____    ______ ____
ROOT
ATOM      1  S   UNL     1      -0.286  12.241  21.956  0.00  0.00    +0.000 S 
ATOM      2  O   UNL     1      -0.222  11.052  22.785  0.00  0.00    +0.000 OA
ATOM      3  O   UNL     1       0.893  13.048  21.739  0.00  0.00    +0.000 OA
ENDROOT
BRANCH   1  16
ATOM      4  C   UNL     1       0.590   9.573  20.369  0.00  0.00    +0.000 C 
ATOM      5  C   UNL     1      -0.184  10.638  19.649  0.00  0.00    +0.000 A 
ATOM      6  C   UNL     1      -0.524  10.376  18.321  0.00  0.00    +0.000 A 
ATOM      7  C   UNL     1      -1.703  10.884  17.793  0.00  0.00    +0.000 A 
ATOM      8  N   UNL     1      -2.120  10.434  16.541  0.00  0.00    +0.000 N 
ATOM      9  C   UNL     1      -3.379  10.668  16.038  0.00  0.00    +0.000 A 
ATOM     10  O   UNL     1      -3.736  10.204  14.965  0.00  0.00    +0.000 OA
ATOM     11  C   UNL     1      -4.325  11.518  16.924  0.00  0.00    +0.000 A 
ATOM     12  O   UNL     1      -5.487  11.715  16.594  0.00  0.00    +0.000 OA
ATOM     13  N   UNL     1      -3.800  12.026  18.101  0.00  0.00    +0.000 N 
ATOM     14  C   UNL     1      -2.510  11.722  18.561  0.00  0.00    +0.000 A 
ATOM     15  C   UNL     1      -2.046  12.187  19.798  0.00  0.00    +0.000 A 
ATOM     16  C   UNL     1      -0.840  11.682  20.334  0.00  0.00    +0.000 A 
ATOM     17  H   UNL     1      -1.531   9.831  15.981  0.00  0.00    +0.000 HD
ATOM     18  H   UNL     1      -4.452  12.543  18.675  0.00  0.00    +0.000 HD
ENDBRANCH   1  16
BRANCH   1  19
ATOM     19  N   UNL     1      -1.483  13.216  22.613  0.00  0.00    +0.000 NA
ATOM     20  C   UNL     1      -1.757  14.614  22.224  0.00  0.00    +0.000 C 
ATOM     21  C   UNL     1      -3.136  14.801  21.537  0.00  0.00    +0.000 C 
ATOM     22  N   UNL     1      -4.236  13.939  22.048  0.00  0.00    +0.000 N 
ATOM     23  C   UNL     1      -3.867  12.643  22.666  0.00  0.00    +0.000 C 
ATOM     24  C   UNL     1      -2.562  12.687  23.458  0.00  0.00    +0.000 C 
BRANCH  22  25
ATOM     25  C   UNL     1      -5.459  13.984  21.338  0.00  0.00    +0.000 A 
ATOM     26  C   UNL     1      -6.651  13.471  21.882  0.00  0.00    +0.000 A 
ATOM     27  C   UNL     1      -7.863  13.465  21.165  0.00  0.00    +0.000 A 
ATOM     28  C   UNL     1      -7.913  13.974  19.874  0.00  0.00    +0.000 A 
ATOM     29  C   UNL     1      -6.756  14.489  19.312  0.00  0.00    +0.000 A 
ATOM     30 CL   UNL     1      -6.795  15.127  17.712  0.00  0.00    +0.000 Cl
ATOM     31  C   UNL     1      -5.552  14.493  20.027  0.00  0.00    +0.000 A 
ENDBRANCH  22  25
ENDBRANCH   1  19
TORSDOF 3
ENDMDL
MODEL 8
REMARK VINA RESULT:      -7.4      7.111     11.158
REMARK  Name = 
REMARK  4 active torsions:
REMARK  status: ('A' for Active; 'I' for Inactive)
REMARK    1  A    between atoms: C_1  and  C_2
REMARK    2  A    between atoms: C_13  and  S_14
REMARK    3  A    between atoms: S_14  and  N_17
REMARK    4  A    between atoms: N_20  and  C_21
REMARK                            x       y       z     vdW  Elec       q    Type
REMARK                         _______ _______ _______ _____ _____    ______ ____
ROOT
ATOM      1  S   UNL     1       0.360  11.857  21.541  0.00  0.00    +0.000 S 
ATOM      2  O   UNL     1       0.481  10.639  22.319  0.00  0.00    +0.000 OA
ATOM      3  O   UNL     1       1.529  12.644  21.221  0.00  0.00    +0.000 OA
ENDROOT
BRANCH   1  16
ATOM      4  C   UNL     1       0.965   9.217  19.792  0.00  0.00    +0.000 C 
ATOM      5  C   UNL     1       0.157  10.328  19.191  0.00  0.00    +0.000 A 
ATOM      6  C   UNL     1      -0.332  10.121  17.901  0.00  0.00    +0.000 A 
ATOM      7  C   UNL     1      -1.542  10.684  17.518  0.00  0.00    +0.000 A 
ATOM      8  N   UNL     1      -2.107  10.288  16.306  0.00  0.00    +0.000 N 
ATOM      9  C   UNL     1      -3.403  10.579  15.949  0.00  0.00    +0.000 A 
ATOM     10  O   UNL     1      -3.889  10.162  14.907  0.00  0.00    +0.000 OA
ATOM     11  C   UNL     1      -4.218  11.430  16.956  0.00  0.00    +0.000 A 
ATOM     12  O   UNL     1      -5.401  11.674  16.760  0.00  0.00    +0.000 OA
ATOM     13  N   UNL     1      -3.553  11.882  18.084  0.00  0.00    +0.000 N 
ATOM     14  C   UNL     1      -2.232  11.522  18.393  0.00  0.00    +0.000 A 
ATOM     15  C   UNL     1      -1.622  11.931  19.585  0.00  0.00    +0.000 A 
ATOM     16  C   UNL     1      -0.385  11.370  19.973  0.00  0.00    +0.000 A 
ATOM     17  H   UNL     1      -1.603   9.686  15.668  0.00  0.00    +0.000 HD
ATOM     18  H   UNL     1      -4.121  12.400  18.740  0.00  0.00    +0.000 HD
ENDBRANCH   1  16
BRANCH   1  19
ATOM     19  N   UNL     1      -0.731  12.837  22.358  0.00  0.00    +0.000 NA
ATOM     20  C   UNL     1      -1.068  14.228  21.997  0.00  0.00    +0.000 C 
ATOM     21  C   UNL     1      -2.535  14.401  21.522  0.00  0.00    +0.000 C 
ATOM     22  N   UNL     1      -3.542  13.542  22.204  0.00  0.00    +0.000 N 
ATOM     23  C   UNL     1      -3.077  12.256  22.776  0.00  0.00    +0.000 C 
ATOM     24  C   UNL     1      -1.668  12.316  23.362  0.00  0.00    +0.000 C 
BRANCH  22  25
ATOM     25  C   UNL     1      -4.857  13.574  21.685  0.00  0.00    +0.000 A 
ATOM     26  C   UNL     1      -5.635  14.747  21.708  0.00  0.00    +0.000 A 
ATOM     27  C   UNL     1      -6.962  14.777  21.241  0.00  0.00    +0.000 A 
ATOM     28  C   UNL     1      -7.553  13.626  20.737  0.00  0.00    +0.000 A 
ATOM     29  C   UNL     1      -6.811  12.456  20.698  0.00  0.00    +0.000 A 
ATOM     30 CL   UNL     1      -7.523  11.015  20.077  0.00  0.00    +0.000 Cl
ATOM     31  C   UNL     1      -5.491  12.428  21.165  0.00  0.00    +0.000 A 
ENDBRANCH  22  25
ENDBRANCH   1  19
TORSDOF 3
ENDMDL
MODEL 9
REMARK VINA RESULT:      -7.4      4.217      6.933
REMARK  Name = 
REMARK  4 active torsions:
REMARK  status: ('A' for Active; 'I' for Inactive)
REMARK    1  A    between atoms: C_1  and  C_2
REMARK    2  A    between atoms: C_13  and  S_14
REMARK    3  A    between atoms: S_14  and  N_17
REMARK    4  A    between atoms: N_20  and  C_21
REMARK                            x       y       z     vdW  Elec       q    Type
REMARK                         _______ _______ _______ _____ _____    ______ ____
ROOT
ATOM      1  S   UNL     1      -0.078  10.331  19.002  0.00  0.00    +0.000 S 
ATOM      2  O   UNL     1      -0.902  10.134  20.180  0.00  0.00    +0.000 OA
ATOM      3  O   UNL     1      -0.582   9.996  17.689  0.00  0.00    +0.000 OA
ENDROOT
BRANCH   1  16
ATOM      4  C   UNL     1      -2.042  12.831  19.540  0.00  0.00    +0.000 C 
ATOM      5  C   UNL     1      -0.677  13.077  18.967  0.00  0.00    +0.000 A 
ATOM      6  C   UNL     1      -0.321  14.407  18.744  0.00  0.00    +0.000 A 
ATOM      7  C   UNL     1       1.005  14.802  18.868  0.00  0.00    +0.000 A 
ATOM      8  N   UNL     1       1.298  16.165  18.851  0.00  0.00    +0.000 N 
ATOM      9  C   UNL     1       2.522  16.675  19.217  0.00  0.00    +0.000 A 
ATOM     10  O   UNL     1       2.728  17.880  19.253  0.00  0.00    +0.000 OA
ATOM     11  C   UNL     1       3.607  15.642  19.614  0.00  0.00    +0.000 A 
ATOM     12  O   UNL     1       4.701  16.005  20.025  0.00  0.00    +0.000 OA
ATOM     13  N   UNL     1       3.275  14.302  19.495  0.00  0.00    +0.000 N 
ATOM     14  C   UNL     1       1.994  13.856  19.137  0.00  0.00    +0.000 A 
ATOM     15  C   UNL     1       1.674  12.493  19.110  0.00  0.00    +0.000 A 
ATOM     16  C   UNL     1       0.328  12.087  18.972  0.00  0.00    +0.000 A 
ATOM     17  H   UNL     1       0.581  16.850  18.649  0.00  0.00    +0.000 HD
ATOM     18  H   UNL     1       3.989  13.653  19.797  0.00  0.00    +0.000 HD
ENDBRANCH   1  16
BRANCH   1  19
ATOM     19  N   UNL     1       1.339   9.468  19.262  0.00  0.00    +0.000 NA
ATOM     20  C   UNL     1       1.770   8.904  20.556  0.00  0.00    +0.000 C 
ATOM     21  C   UNL     1       1.799   7.352  20.569  0.00  0.00    +0.000 C 
ATOM     22  N   UNL     1       2.210   6.701  19.296  0.00  0.00    +0.000 N 
ATOM     23  C   UNL     1       1.977   7.443  18.035  0.00  0.00    +0.000 C 
ATOM     24  C   UNL     1       2.167   8.954  18.164  0.00  0.00    +0.000 C 
BRANCH  22  25
ATOM     25  C   UNL     1       2.099   5.292  19.240  0.00  0.00    +0.000 A 
ATOM     26  C   UNL     1       2.085   4.598  18.015  0.00  0.00    +0.000 A 
ATOM     27  C   UNL     1       1.925   3.202  17.945  0.00  0.00    +0.000 A 
ATOM     28  C   UNL     1       1.768   2.457  19.106  0.00  0.00    +0.000 A 
ATOM     29  C   UNL     1       1.780   3.111  20.328  0.00  0.00    +0.000 A 
ATOM     30 CL   UNL     1       1.588   2.207  21.782  0.00  0.00    +0.000 Cl
ATOM     31  C   UNL     1       1.939   4.501  20.395  0.00  0.00    +0.000 A 
ENDBRANCH  22  25
ENDBRANCH   1  19
TORSDOF 3
ENDMDL
