MODEL 1
REMARK VINA RESULT:      -8.6      0.000      0.000
REMARK  Name = 
REMARK  7 active torsions:
REMARK  status: ('A' for Active; 'I' for Inactive)
REMARK    1  A    between atoms: C_1  and  C_2
REMARK    2  A    between atoms: C_2  and  C_3
REMARK    3  A    between atoms: N_5  and  C_6
REMARK    4  A    between atoms: C_17  and  C_18
REMARK    5  A    between atoms: C_18  and  C_19
REMARK    6  A    between atoms: C_22  and  O_23
REMARK    7  A    between atoms: C_24  and  O_25
REMARK                            x       y       z     vdW  Elec       q    Type
REMARK                         _______ _______ _______ _____ _____    ______ ____
ROOT
ATOM      1  C   UNL     1       1.895   4.199  20.273  0.00  0.00    +0.000 A 
ATOM      2  N   UNL     1       1.366   5.423  20.207  0.00  0.00    +0.000 NA
ATOM      3  N   UNL     1       2.329   6.211  19.643  0.00  0.00    +0.000 N 
ATOM      4  C   UNL     1       3.474   5.475  19.403  0.00  0.00    +0.000 A 
ATOM      5  N   UNL     1       4.648   5.922  18.879  0.00  0.00    +0.000 NA
ATOM      6  C   UNL     1       5.526   4.994  18.636  0.00  0.00    +0.000 A 
ATOM      7  N   UNL     1       5.363   3.678  19.014  0.00  0.00    +0.000 N 
ATOM      8  C   UNL     1       4.220   3.184  19.629  0.00  0.00    +0.000 A 
ATOM      9  O   UNL     1       4.112   2.020  19.978  0.00  0.00    +0.000 OA
ATOM     10  C   UNL     1       3.207   4.182  19.787  0.00  0.00    +0.000 A 
ATOM     11  H   UNL     1       6.114   3.014  18.911  0.00  0.00    +0.000 HD
ENDROOT
BRANCH   3  12
ATOM     12  C   UNL     1       2.070   7.588  19.369  0.00  0.00    +0.000 A 
ATOM     13  C   UNL     1       2.503   8.164  18.152  0.00  0.00    +0.000 A 
ATOM     14 CL   UNL     1       3.256   7.310  16.836  0.00  0.00    +0.000 Cl
ATOM     15  C   UNL     1       2.248   9.513  17.875  0.00  0.00    +0.000 A 
ATOM     16  C   UNL     1       1.546  10.295  18.784  0.00  0.00    +0.000 A 
ATOM     17 CL   UNL     1       1.234  11.945  18.454  0.00  0.00    +0.000 Cl
ATOM     18  C   UNL     1       1.108   9.743  19.977  0.00  0.00    +0.000 A 
ATOM     19  C   UNL     1       1.384   8.414  20.290  0.00  0.00    +0.000 A 
ATOM     20 CL   UNL     1       0.962   8.045  21.934  0.00  0.00    +0.000 Cl
ENDBRANCH   3  12
BRANCH   1  22
ATOM     21  C   UNL     1       1.642   2.522  22.114  0.00  0.00    +0.000 C 
ATOM     22  C   UNL     1       1.092   3.057  20.802  0.00  0.00    +0.000 C 
ENDBRANCH   1  22
BRANCH   6  23
ATOM     23  C   UNL     1       6.799   5.332  17.873  0.00  0.00    +0.000 C 
BRANCH  23  24
ATOM     24  C   UNL     1       6.748   4.864  16.441  0.00  0.00    +0.000 A 
ATOM     25  C   UNL     1       5.811   3.899  16.028  0.00  0.00    +0.000 A 
ATOM     26  C   UNL     1       5.678   3.566  14.675  0.00  0.00    +0.000 A 
ATOM     27  C   UNL     1       6.505   4.177  13.742  0.00  0.00    +0.000 A 
ATOM     28  C   UNL     1       7.473   5.088  14.153  0.00  0.00    +0.000 A 
ATOM     29  C   UNL     1       7.609   5.429  15.490  0.00  0.00    +0.000 A 
BRANCH  27  30
ATOM     30  O   UNL     1       6.401   3.922  12.403  0.00  0.00    +0.000 OA
ATOM     31  H   UNL     1       5.490   3.634  12.219  0.00  0.00    +0.000 HD
ENDBRANCH  27  30
BRANCH  28  32
ATOM     32  O   UNL     1       8.289   5.684  13.234  0.00  0.00    +0.000 OA
ATOM     33  H   UNL     1       9.190   5.568  13.596  0.00  0.00    +0.000 HD
ENDBRANCH  28  32
ENDBRANCH  23  24
ENDBRANCH   6  23
TORSDOF 6
ENDMDL
MODEL 2
REMARK VINA RESULT:      -8.5      0.106      1.704
REMARK  Name = 
REMARK  7 active torsions:
REMARK  status: ('A' for Active; 'I' for Inactive)
REMARK    1  A    between atoms: C_1  and  C_2
REMARK    2  A    between atoms: C_2  and  C_3
REMARK    3  A    between atoms: N_5  and  C_6
REMARK    4  A    between atoms: C_17  and  C_18
REMARK    5  A    between atoms: C_18  and  C_19
REMARK    6  A    between atoms: C_22  and  O_23
REMARK    7  A    between atoms: C_24  and  O_25
REMARK                            x       y       z     vdW  Elec       q    Type
REMARK                         _______ _______ _______ _____ _____    ______ ____
ROOT
ATOM      1  C   UNL     1       1.966   4.124  20.247  0.00  0.00    +0.000 A 
ATOM      2  N   UNL     1       1.431   5.344  20.174  0.00  0.00    +0.000 NA
ATOM      3  N   UNL     1       2.391   6.135  19.607  0.00  0.00    +0.000 N 
ATOM      4  C   UNL     1       3.540   5.403  19.372  0.00  0.00    +0.000 A 
ATOM      5  N   UNL     1       4.712   5.854  18.847  0.00  0.00    +0.000 NA
ATOM      6  C   UNL     1       5.595   4.928  18.610  0.00  0.00    +0.000 A 
ATOM      7  N   UNL     1       5.438   3.614  18.995  0.00  0.00    +0.000 N 
ATOM      8  C   UNL     1       4.297   3.117  19.612  0.00  0.00    +0.000 A 
ATOM      9  O   UNL     1       4.195   1.954  19.967  0.00  0.00    +0.000 OA
ATOM     10  C   UNL     1       3.279   4.111  19.763  0.00  0.00    +0.000 A 
ATOM     11  H   UNL     1       6.193   2.953  18.897  0.00  0.00    +0.000 HD
ENDROOT
BRANCH   3  12
ATOM     12  C   UNL     1       2.124   7.508  19.325  0.00  0.00    +0.000 A 
ATOM     13  C   UNL     1       1.397   8.295  20.249  0.00  0.00    +0.000 A 
ATOM     14 CL   UNL     1       0.863   7.779  21.822  0.00  0.00    +0.000 Cl
ATOM     15  C   UNL     1       1.136   9.645  19.980  0.00  0.00    +0.000 A 
ATOM     16  C   UNL     1       1.606  10.231  18.812  0.00  0.00    +0.000 A 
ATOM     17 CL   UNL     1       1.287  11.879  18.475  0.00  0.00    +0.000 Cl
ATOM     18  C   UNL     1       2.326   9.476  17.900  0.00  0.00    +0.000 A 
ATOM     19  C   UNL     1       2.565   8.122  18.129  0.00  0.00    +0.000 A 
ATOM     20 CL   UNL     1       3.251   7.351  16.732  0.00  0.00    +0.000 Cl
ENDBRANCH   3  12
BRANCH   1  22
ATOM     21  C   UNL     1       1.655   2.525  22.148  0.00  0.00    +0.000 C 
ATOM     22  C   UNL     1       1.169   2.981  20.782  0.00  0.00    +0.000 C 
ENDBRANCH   1  22
BRANCH   6  23
ATOM     23  C   UNL     1       6.867   5.269  17.846  0.00  0.00    +0.000 C 
BRANCH  23  24
ATOM     24  C   UNL     1       6.804   4.828  16.406  0.00  0.00    +0.000 A 
ATOM     25  C   UNL     1       5.864   3.871  15.983  0.00  0.00    +0.000 A 
ATOM     26  C   UNL     1       5.719   3.564  14.625  0.00  0.00    +0.000 A 
ATOM     27  C   UNL     1       6.539   4.192  13.697  0.00  0.00    +0.000 A 
ATOM     28  C   UNL     1       7.511   5.095  14.117  0.00  0.00    +0.000 A 
ATOM     29  C   UNL     1       7.657   5.411  15.459  0.00  0.00    +0.000 A 
BRANCH  27  30
ATOM     30  O   UNL     1       6.424   3.962  12.355  0.00  0.00    +0.000 OA
ATOM     31  H   UNL     1       6.527   3.006  12.201  0.00  0.00    +0.000 HD
ENDBRANCH  27  30
BRANCH  28  32
ATOM     32  O   UNL     1       8.319   5.708  13.203  0.00  0.00    +0.000 OA
ATOM     33  H   UNL     1       8.336   6.645  13.482  0.00  0.00    +0.000 HD
ENDBRANCH  28  32
ENDBRANCH  23  24
ENDBRANCH   6  23
TORSDOF 6
ENDMDL
MODEL 3
REMARK VINA RESULT:      -8.3      5.139      8.058
REMARK  Name = 
REMARK  7 active torsions:
REMARK  status: ('A' for Active; 'I' for Inactive)
REMARK    1  A    between atoms: C_1  and  C_2
REMARK    2  A    between atoms: C_2  and  C_3
REMARK    3  A    between atoms: N_5  and  C_6
REMARK    4  A    between atoms: C_17  and  C_18
REMARK    5  A    between atoms: C_18  and  C_19
REMARK    6  A    between atoms: C_22  and  O_23
REMARK    7  A    between atoms: C_24  and  O_25
REMARK                            x       y       z     vdW  Elec       q    Type
REMARK                         _______ _______ _______ _____ _____    ______ ____
ROOT
ATOM      1  C   UNL     1      -3.578  11.664  18.850  0.00  0.00    +0.000 A 
ATOM      2  N   UNL     1      -3.411  12.561  19.825  0.00  0.00    +0.000 NA
ATOM      3  N   UNL     1      -2.071  12.567  20.096  0.00  0.00    +0.000 N 
ATOM      4  C   UNL     1      -1.417  11.635  19.312  0.00  0.00    +0.000 A 
ATOM      5  N   UNL     1      -0.090  11.336  19.321  0.00  0.00    +0.000 NA
ATOM      6  C   UNL     1       0.290  10.510  18.391  0.00  0.00    +0.000 A 
ATOM      7  N   UNL     1      -0.588   9.857  17.552  0.00  0.00    +0.000 N 
ATOM      8  C   UNL     1      -1.962  10.061  17.557  0.00  0.00    +0.000 A 
ATOM      9  O   UNL     1      -2.720   9.451  16.822  0.00  0.00    +0.000 OA
ATOM     10  C   UNL     1      -2.366  11.060  18.500  0.00  0.00    +0.000 A 
ATOM     11  H   UNL     1      -0.265   9.139  16.923  0.00  0.00    +0.000 HD
ENDROOT
BRANCH   3  12
ATOM     12  C   UNL     1      -1.533  13.469  21.063  0.00  0.00    +0.000 A 
ATOM     13  C   UNL     1      -0.793  14.600  20.644  0.00  0.00    +0.000 A 
ATOM     14 CL   UNL     1      -0.551  15.102  18.995  0.00  0.00    +0.000 Cl
ATOM     15  C   UNL     1      -0.265  15.492  21.587  0.00  0.00    +0.000 A 
ATOM     16  C   UNL     1      -0.481  15.286  22.943  0.00  0.00    +0.000 A 
ATOM     17 CL   UNL     1       0.165  16.368  24.102  0.00  0.00    +0.000 Cl
ATOM     18  C   UNL     1      -1.210  14.187  23.370  0.00  0.00    +0.000 A 
ATOM     19  C   UNL     1      -1.711  13.267  22.451  0.00  0.00    +0.000 A 
ATOM     20 CL   UNL     1      -2.352  11.860  23.243  0.00  0.00    +0.000 Cl
ENDBRANCH   3  12
BRANCH   1  22
ATOM     21  C   UNL     1      -5.073  12.020  16.876  0.00  0.00    +0.000 C 
ATOM     22  C   UNL     1      -4.930  11.426  18.267  0.00  0.00    +0.000 C 
ENDBRANCH   1  22
BRANCH   6  23
ATOM     23  C   UNL     1       1.772  10.245  18.168  0.00  0.00    +0.000 C 
BRANCH  23  24
ATOM     24  C   UNL     1       2.143   8.810  18.442  0.00  0.00    +0.000 A 
ATOM     25  C   UNL     1       2.915   8.074  17.525  0.00  0.00    +0.000 A 
ATOM     26  C   UNL     1       3.370   6.790  17.843  0.00  0.00    +0.000 A 
ATOM     27  C   UNL     1       3.024   6.231  19.066  0.00  0.00    +0.000 A 
ATOM     28  C   UNL     1       2.211   6.932  19.952  0.00  0.00    +0.000 A 
ATOM     29  C   UNL     1       1.761   8.208  19.649  0.00  0.00    +0.000 A 
BRANCH  27  30
ATOM     30  O   UNL     1       3.465   4.996  19.451  0.00  0.00    +0.000 OA
ATOM     31  H   UNL     1       3.744   4.512  18.654  0.00  0.00    +0.000 HD
ENDBRANCH  27  30
BRANCH  28  32
ATOM     32  O   UNL     1       1.868   6.379  21.152  0.00  0.00    +0.000 OA
ATOM     33  H   UNL     1       1.369   7.084  21.613  0.00  0.00    +0.000 HD
ENDBRANCH  28  32
ENDBRANCH  23  24
ENDBRANCH   6  23
TORSDOF 6
ENDMDL
MODEL 4
REMARK VINA RESULT:      -8.2      5.136      8.191
REMARK  Name = 
REMARK  7 active torsions:
REMARK  status: ('A' for Active; 'I' for Inactive)
REMARK    1  A    between atoms: C_1  and  C_2
REMARK    2  A    between atoms: C_2  and  C_3
REMARK    3  A    between atoms: N_5  and  C_6
REMARK    4  A    between atoms: C_17  and  C_18
REMARK    5  A    between atoms: C_18  and  C_19
REMARK    6  A    between atoms: C_22  and  O_23
REMARK    7  A    between atoms: C_24  and  O_25
REMARK                            x       y       z     vdW  Elec       q    Type
REMARK                         _______ _______ _______ _____ _____    ______ ____
ROOT
ATOM      1  C   UNL     1      -3.551  11.679  18.814  0.00  0.00    +0.000 A 
ATOM      2  N   UNL     1      -3.386  12.582  19.784  0.00  0.00    +0.000 NA
ATOM      3  N   UNL     1      -2.047  12.586  20.060  0.00  0.00    +0.000 N 
ATOM      4  C   UNL     1      -1.392  11.646  19.286  0.00  0.00    +0.000 A 
ATOM      5  N   UNL     1      -0.066  11.344  19.303  0.00  0.00    +0.000 NA
ATOM      6  C   UNL     1       0.315  10.509  18.381  0.00  0.00    +0.000 A 
ATOM      7  N   UNL     1      -0.561   9.853  17.542  0.00  0.00    +0.000 N 
ATOM      8  C   UNL     1      -1.934  10.061  17.540  0.00  0.00    +0.000 A 
ATOM      9  O   UNL     1      -2.691   9.448  16.805  0.00  0.00    +0.000 OA
ATOM     10  C   UNL     1      -2.339  11.068  18.474  0.00  0.00    +0.000 A 
ATOM     11  H   UNL     1      -0.237   9.130  16.920  0.00  0.00    +0.000 HD
ENDROOT
BRANCH   3  12
ATOM     12  C   UNL     1      -1.510  13.493  21.022  0.00  0.00    +0.000 A 
ATOM     13  C   UNL     1      -1.759  13.296  22.401  0.00  0.00    +0.000 A 
ATOM     14 CL   UNL     1      -2.595  11.939  23.098  0.00  0.00    +0.000 Cl
ATOM     15  C   UNL     1      -1.231  14.180  23.351  0.00  0.00    +0.000 A 
ATOM     16  C   UNL     1      -0.439  15.249  22.950  0.00  0.00    +0.000 A 
ATOM     17 CL   UNL     1       0.206  16.335  24.105  0.00  0.00    +0.000 Cl
ATOM     18  C   UNL     1      -0.179  15.451  21.604  0.00  0.00    +0.000 A 
ATOM     19  C   UNL     1      -0.726  14.606  20.639  0.00  0.00    +0.000 A 
ATOM     20 CL   UNL     1      -0.470  15.221  19.035  0.00  0.00    +0.000 Cl
ENDBRANCH   3  12
BRANCH   1  22
ATOM     21  C   UNL     1      -5.025  11.995  16.817  0.00  0.00    +0.000 C 
ATOM     22  C   UNL     1      -4.901  11.440  18.227  0.00  0.00    +0.000 C 
ENDBRANCH   1  22
BRANCH   6  23
ATOM     23  C   UNL     1       1.797  10.238  18.166  0.00  0.00    +0.000 C 
BRANCH  23  24
ATOM     24  C   UNL     1       2.163   8.804  18.451  0.00  0.00    +0.000 A 
ATOM     25  C   UNL     1       2.933   8.059  17.540  0.00  0.00    +0.000 A 
ATOM     26  C   UNL     1       3.382   6.774  17.867  0.00  0.00    +0.000 A 
ATOM     27  C   UNL     1       3.033   6.226  19.094  0.00  0.00    +0.000 A 
ATOM     28  C   UNL     1       2.222   6.936  19.974  0.00  0.00    +0.000 A 
ATOM     29  C   UNL     1       1.777   8.212  19.661  0.00  0.00    +0.000 A 
BRANCH  27  30
ATOM     30  O   UNL     1       3.468   4.992  19.488  0.00  0.00    +0.000 OA
ATOM     31  H   UNL     1       2.867   4.324  19.112  0.00  0.00    +0.000 HD
ENDBRANCH  27  30
BRANCH  28  32
ATOM     32  O   UNL     1       1.875   6.393  21.178  0.00  0.00    +0.000 OA
ATOM     33  H   UNL     1       2.664   6.525  21.742  0.00  0.00    +0.000 HD
ENDBRANCH  28  32
ENDBRANCH  23  24
ENDBRANCH   6  23
TORSDOF 6
ENDMDL
MODEL 5
REMARK VINA RESULT:      -8.1      5.293      8.227
REMARK  Name = 
REMARK  7 active torsions:
REMARK  status: ('A' for Active; 'I' for Inactive)
REMARK    1  A    between atoms: C_1  and  C_2
REMARK    2  A    between atoms: C_2  and  C_3
REMARK    3  A    between atoms: N_5  and  C_6
REMARK    4  A    between atoms: C_17  and  C_18
REMARK    5  A    between atoms: C_18  and  C_19
REMARK    6  A    between atoms: C_22  and  O_23
REMARK    7  A    between atoms: C_24  and  O_25
REMARK                            x       y       z     vdW  Elec       q    Type
REMARK                         _______ _______ _______ _____ _____    ______ ____
ROOT
ATOM      1  C   UNL     1      -3.862  11.878  18.705  0.00  0.00    +0.000 A 
ATOM      2  N   UNL     1      -3.673  12.749  19.699  0.00  0.00    +0.000 NA
ATOM      3  N   UNL     1      -2.346  12.665  20.016  0.00  0.00    +0.000 N 
ATOM      4  C   UNL     1      -1.726  11.703  19.241  0.00  0.00    +0.000 A 
ATOM      5  N   UNL     1      -0.422  11.319  19.291  0.00  0.00    +0.000 NA
ATOM      6  C   UNL     1      -0.063  10.482  18.361  0.00  0.00    +0.000 A 
ATOM      7  N   UNL     1      -0.951   9.899  17.482  0.00  0.00    +0.000 N 
ATOM      8  C   UNL     1      -2.308  10.191  17.443  0.00  0.00    +0.000 A 
ATOM      9  O   UNL     1      -3.078   9.641  16.672  0.00  0.00    +0.000 OA
ATOM     10  C   UNL     1      -2.680  11.201  18.387  0.00  0.00    +0.000 A 
ATOM     11  H   UNL     1      -0.653   9.170  16.854  0.00  0.00    +0.000 HD
ENDROOT
BRANCH   3  12
ATOM     12  C   UNL     1      -1.785  13.517  21.014  0.00  0.00    +0.000 A 
ATOM     13  C   UNL     1      -0.957  14.601  20.639  0.00  0.00    +0.000 A 
ATOM     14 CL   UNL     1      -0.621  15.105  19.008  0.00  0.00    +0.000 Cl
ATOM     15  C   UNL     1      -0.407  15.444  21.614  0.00  0.00    +0.000 A 
ATOM     16  C   UNL     1      -0.686  15.237  22.958  0.00  0.00    +0.000 A 
ATOM     17 CL   UNL     1      -0.013  16.259  24.155  0.00  0.00    +0.000 Cl
ATOM     18  C   UNL     1      -1.502  14.184  23.342  0.00  0.00    +0.000 A 
ATOM     19  C   UNL     1      -2.029  13.310  22.392  0.00  0.00    +0.000 A 
ATOM     20 CL   UNL     1      -2.791  11.940  23.140  0.00  0.00    +0.000 Cl
ENDBRANCH   3  12
BRANCH   1  22
ATOM     21  C   UNL     1      -6.023  10.616  18.694  0.00  0.00    +0.000 C 
ATOM     22  C   UNL     1      -5.206  11.736  18.071  0.00  0.00    +0.000 C 
ENDBRANCH   1  22
BRANCH   6  23
ATOM     23  C   UNL     1       1.406  10.125  18.185  0.00  0.00    +0.000 C 
BRANCH  23  24
ATOM     24  C   UNL     1       1.768   8.839  18.884  0.00  0.00    +0.000 A 
ATOM     25  C   UNL     1       1.423   8.626  20.231  0.00  0.00    +0.000 A 
ATOM     26  C   UNL     1       1.642   7.384  20.836  0.00  0.00    +0.000 A 
ATOM     27  C   UNL     1       2.235   6.366  20.101  0.00  0.00    +0.000 A 
ATOM     28  C   UNL     1       2.632   6.591  18.786  0.00  0.00    +0.000 A 
ATOM     29  C   UNL     1       2.414   7.816  18.176  0.00  0.00    +0.000 A 
BRANCH  27  30
ATOM     30  O   UNL     1       2.444   5.120  20.623  0.00  0.00    +0.000 OA
ATOM     31  H   UNL     1       1.975   4.475  20.065  0.00  0.00    +0.000 HD
ENDBRANCH  27  30
BRANCH  28  32
ATOM     32  O   UNL     1       3.219   5.590  18.066  0.00  0.00    +0.000 OA
ATOM     33  H   UNL     1       2.625   4.823  18.185  0.00  0.00    +0.000 HD
ENDBRANCH  28  32
ENDBRANCH  23  24
ENDBRANCH   6  23
TORSDOF 6
ENDMDL
MODEL 6
REMARK VINA RESULT:      -8.1      5.285      8.315
REMARK  Name = 
REMARK  7 active torsions:
REMARK  status: ('A' for Active; 'I' for Inactive)
REMARK    1  A    between atoms: C_1  and  C_2
REMARK    2  A    between atoms: C_2  and  C_3
REMARK    3  A    between atoms: N_5  and  C_6
REMARK    4  A    between atoms: C_17  and  C_18
REMARK    5  A    between atoms: C_18  and  C_19
REMARK    6  A    between atoms: C_22  and  O_23
REMARK    7  A    between atoms: C_24  and  O_25
REMARK                            x       y       z     vdW  Elec       q    Type
REMARK                         _______ _______ _______ _____ _____    ______ ____
ROOT
ATOM      1  C   UNL     1      -3.810  11.811  18.965  0.00  0.00    +0.000 A 
ATOM      2  N   UNL     1      -3.605  12.709  19.931  0.00  0.00    +0.000 NA
ATOM      3  N   UNL     1      -2.261  12.685  20.179  0.00  0.00    +0.000 N 
ATOM      4  C   UNL     1      -1.643  11.733  19.390  0.00  0.00    +0.000 A 
ATOM      5  N   UNL     1      -0.323  11.402  19.379  0.00  0.00    +0.000 NA
ATOM      6  C   UNL     1       0.020  10.562  18.447  0.00  0.00    +0.000 A 
ATOM      7  N   UNL     1      -0.888   9.926  17.627  0.00  0.00    +0.000 N 
ATOM      8  C   UNL     1      -2.255  10.162  17.654  0.00  0.00    +0.000 A 
ATOM      9  O   UNL     1      -3.041   9.566  16.935  0.00  0.00    +0.000 OA
ATOM     10  C   UNL     1      -2.619  11.175  18.598  0.00  0.00    +0.000 A 
ATOM     11  H   UNL     1      -0.592   9.197  16.997  0.00  0.00    +0.000 HD
ENDROOT
BRANCH   3  12
ATOM     12  C   UNL     1      -1.685  13.579  21.131  0.00  0.00    +0.000 A 
ATOM     13  C   UNL     1      -1.917  13.390  22.514  0.00  0.00    +0.000 A 
ATOM     14 CL   UNL     1      -2.778  12.057  23.226  0.00  0.00    +0.000 Cl
ATOM     15  C   UNL     1      -1.351  14.261  23.454  0.00  0.00    +0.000 A 
ATOM     16  C   UNL     1      -0.536  15.307  23.038  0.00  0.00    +0.000 A 
ATOM     17 CL   UNL     1       0.156  16.378  24.180  0.00  0.00    +0.000 Cl
ATOM     18  C   UNL     1      -0.293  15.500  21.687  0.00  0.00    +0.000 A 
ATOM     19  C   UNL     1      -0.877  14.669  20.734  0.00  0.00    +0.000 A 
ATOM     20 CL   UNL     1      -0.630  15.274  19.124  0.00  0.00    +0.000 Cl
ENDBRANCH   3  12
BRANCH   1  22
ATOM     21  C   UNL     1      -5.329  12.191  17.013  0.00  0.00    +0.000 C 
ATOM     22  C   UNL     1      -5.177  11.602  18.406  0.00  0.00    +0.000 C 
ENDBRANCH   1  22
BRANCH   6  23
ATOM     23  C   UNL     1       1.492  10.260  18.200  0.00  0.00    +0.000 C 
BRANCH  23  24
ATOM     24  C   UNL     1       1.896   8.911  18.740  0.00  0.00    +0.000 A 
ATOM     25  C   UNL     1       1.524   8.509  20.035  0.00  0.00    +0.000 A 
ATOM     26  C   UNL     1       1.785   7.209  20.482  0.00  0.00    +0.000 A 
ATOM     27  C   UNL     1       2.448   6.324  19.642  0.00  0.00    +0.000 A 
ATOM     28  C   UNL     1       2.870   6.736  18.382  0.00  0.00    +0.000 A 
ATOM     29  C   UNL     1       2.611   8.020  17.928  0.00  0.00    +0.000 A 
BRANCH  27  30
ATOM     30  O   UNL     1       2.702   5.031  20.006  0.00  0.00    +0.000 OA
ATOM     31  H   UNL     1       3.264   4.629  19.321  0.00  0.00    +0.000 HD
ENDBRANCH  27  30
BRANCH  28  32
ATOM     32  O   UNL     1       3.526   5.865  17.560  0.00  0.00    +0.000 OA
ATOM     33  H   UNL     1       4.385   6.298  17.380  0.00  0.00    +0.000 HD
ENDBRANCH  28  32
ENDBRANCH  23  24
ENDBRANCH   6  23
TORSDOF 6
ENDMDL
MODEL 7
REMARK VINA RESULT:      -8.0      4.098      7.520
REMARK  Name = 
REMARK  7 active torsions:
REMARK  status: ('A' for Active; 'I' for Inactive)
REMARK    1  A    between atoms: C_1  and  C_2
REMARK    2  A    between atoms: C_2  and  C_3
REMARK    3  A    between atoms: N_5  and  C_6
REMARK    4  A    between atoms: C_17  and  C_18
REMARK    5  A    between atoms: C_18  and  C_19
REMARK    6  A    between atoms: C_22  and  O_23
REMARK    7  A    between atoms: C_24  and  O_25
REMARK                            x       y       z     vdW  Elec       q    Type
REMARK                         _______ _______ _______ _____ _____    ______ ____
ROOT
ATOM      1  C   UNL     1       2.730   5.042  20.304  0.00  0.00    +0.000 A 
ATOM      2  N   UNL     1       3.501   4.500  19.358  0.00  0.00    +0.000 NA
ATOM      3  N   UNL     1       3.603   5.448  18.377  0.00  0.00    +0.000 N 
ATOM      4  C   UNL     1       2.852   6.562  18.705  0.00  0.00    +0.000 A 
ATOM      5  N   UNL     1       2.687   7.691  17.964  0.00  0.00    +0.000 NA
ATOM      6  C   UNL     1       2.034   8.645  18.561  0.00  0.00    +0.000 A 
ATOM      7  N   UNL     1       1.416   8.490  19.784  0.00  0.00    +0.000 N 
ATOM      8  C   UNL     1       1.481   7.330  20.544  0.00  0.00    +0.000 A 
ATOM      9  O   UNL     1       0.902   7.210  21.612  0.00  0.00    +0.000 OA
ATOM     10  C   UNL     1       2.300   6.323  19.941  0.00  0.00    +0.000 A 
ATOM     11  H   UNL     1       0.823   9.214  20.159  0.00  0.00    +0.000 HD
ENDROOT
BRANCH   3  12
ATOM     12  C   UNL     1       4.416   5.215  17.228  0.00  0.00    +0.000 A 
ATOM     13  C   UNL     1       4.189   4.079  16.416  0.00  0.00    +0.000 A 
ATOM     14 CL   UNL     1       2.891   2.937  16.607  0.00  0.00    +0.000 Cl
ATOM     15  C   UNL     1       4.981   3.847  15.283  0.00  0.00    +0.000 A 
ATOM     16  C   UNL     1       5.984   4.742  14.934  0.00  0.00    +0.000 A 
ATOM     17 CL   UNL     1       6.958   4.463  13.554  0.00  0.00    +0.000 Cl
ATOM     18  C   UNL     1       6.213   5.864  15.715  0.00  0.00    +0.000 A 
ATOM     19  C   UNL     1       5.463   6.094  16.867  0.00  0.00    +0.000 A 
ATOM     20 CL   UNL     1       6.114   7.408  17.799  0.00  0.00    +0.000 Cl
ENDBRANCH   3  12
BRANCH   1  22
ATOM     21  C   UNL     1       1.442   3.167  21.347  0.00  0.00    +0.000 C 
ATOM     22  C   UNL     1       2.440   4.293  21.561  0.00  0.00    +0.000 C 
ENDBRANCH   1  22
BRANCH   6  23
ATOM     23  C   UNL     1       1.948  10.023  17.923  0.00  0.00    +0.000 C 
BRANCH  23  24
ATOM     24  C   UNL     1       0.606  10.674  18.146  0.00  0.00    +0.000 A 
ATOM     25  C   UNL     1      -0.580  10.051  17.718  0.00  0.00    +0.000 A 
ATOM     26  C   UNL     1      -1.829  10.592  18.045  0.00  0.00    +0.000 A 
ATOM     27  C   UNL     1      -1.887  11.772  18.773  0.00  0.00    +0.000 A 
ATOM     28  C   UNL     1      -0.715  12.423  19.148  0.00  0.00    +0.000 A 
ATOM     29  C   UNL     1       0.526  11.892  18.834  0.00  0.00    +0.000 A 
BRANCH  27  30
ATOM     30  O   UNL     1      -3.074  12.332  19.154  0.00  0.00    +0.000 OA
ATOM     31  H   UNL     1      -3.761  11.645  19.110  0.00  0.00    +0.000 HD
ENDBRANCH  27  30
BRANCH  28  32
ATOM     32  O   UNL     1      -0.775  13.587  19.860  0.00  0.00    +0.000 OA
ATOM     33  H   UNL     1       0.110  13.988  19.747  0.00  0.00    +0.000 HD
ENDBRANCH  28  32
ENDBRANCH  23  24
ENDBRANCH   6  23
TORSDOF 6
ENDMDL
MODEL 8
REMARK VINA RESULT:      -8.0      6.351      9.390
REMARK  Name = 
REMARK  7 active torsions:
REMARK  status: ('A' for Active; 'I' for Inactive)
REMARK    1  A    between atoms: C_1  and  C_2
REMARK    2  A    between atoms: C_2  and  C_3
REMARK    3  A    between atoms: N_5  and  C_6
REMARK    4  A    between atoms: C_17  and  C_18
REMARK    5  A    between atoms: C_18  and  C_19
REMARK    6  A    between atoms: C_22  and  O_23
REMARK    7  A    between atoms: C_24  and  O_25
REMARK                            x       y       z     vdW  Elec       q    Type
REMARK                         _______ _______ _______ _____ _____    ______ ____
ROOT
ATOM      1  C   UNL     1      -5.012  12.134  19.115  0.00  0.00    +0.000 A 
ATOM      2  N   UNL     1      -5.069  12.900  20.207  0.00  0.00    +0.000 NA
ATOM      3  N   UNL     1      -3.777  13.043  20.627  0.00  0.00    +0.000 N 
ATOM      4  C   UNL     1      -2.923  12.322  19.812  0.00  0.00    +0.000 A 
ATOM      5  N   UNL     1      -1.574  12.200  19.934  0.00  0.00    +0.000 NA
ATOM      6  C   UNL     1      -0.992  11.568  18.957  0.00  0.00    +0.000 A 
ATOM      7  N   UNL     1      -1.684  10.930  17.949  0.00  0.00    +0.000 N 
ATOM      8  C   UNL     1      -3.067  10.951  17.824  0.00  0.00    +0.000 A 
ATOM      9  O   UNL     1      -3.656  10.356  16.936  0.00  0.00    +0.000 OA
ATOM     10  C   UNL     1      -3.698  11.747  18.832  0.00  0.00    +0.000 A 
ATOM     11  H   UNL     1      -1.202  10.355  17.276  0.00  0.00    +0.000 HD
ENDROOT
BRANCH   3  12
ATOM     12  C   UNL     1      -3.468  13.863  21.754  0.00  0.00    +0.000 A 
ATOM     13  C   UNL     1      -3.673  15.262  21.692  0.00  0.00    +0.000 A 
ATOM     14 CL   UNL     1      -4.405  16.122  20.368  0.00  0.00    +0.000 Cl
ATOM     15  C   UNL     1      -3.376  16.072  22.795  0.00  0.00    +0.000 A 
ATOM     16  C   UNL     1      -2.896  15.508  23.970  0.00  0.00    +0.000 A 
ATOM     17 CL   UNL     1      -2.527  16.492  25.321  0.00  0.00    +0.000 Cl
ATOM     18  C   UNL     1      -2.696  14.138  24.049  0.00  0.00    +0.000 A 
ATOM     19  C   UNL     1      -2.949  13.318  22.951  0.00  0.00    +0.000 A 
ATOM     20 CL   UNL     1      -2.376  11.701  23.219  0.00  0.00    +0.000 Cl
ENDBRANCH   3  12
BRANCH   1  22
ATOM     21  C   UNL     1      -6.893  10.510  18.826  0.00  0.00    +0.000 C 
ATOM     22  C   UNL     1      -6.254  11.806  18.357  0.00  0.00    +0.000 C 
ENDBRANCH   1  22
BRANCH   6  23
ATOM     23  C   UNL     1       0.527  11.531  18.872  0.00  0.00    +0.000 C 
BRANCH  23  24
ATOM     24  C   UNL     1       1.069  10.126  18.938  0.00  0.00    +0.000 A 
ATOM     25  C   UNL     1       1.657   9.524  17.811  0.00  0.00    +0.000 A 
ATOM     26  C   UNL     1       2.278   8.274  17.912  0.00  0.00    +0.000 A 
ATOM     27  C   UNL     1       2.281   7.614  19.134  0.00  0.00    +0.000 A 
ATOM     28  C   UNL     1       1.649   8.180  20.237  0.00  0.00    +0.000 A 
ATOM     29  C   UNL     1       1.036   9.421  20.149  0.00  0.00    +0.000 A 
BRANCH  27  30
ATOM     30  O   UNL     1       2.900   6.408  19.306  0.00  0.00    +0.000 OA
ATOM     31  H   UNL     1       2.785   6.139  20.235  0.00  0.00    +0.000 HD
ENDBRANCH  27  30
BRANCH  28  32
ATOM     32  O   UNL     1       1.649   7.528  21.437  0.00  0.00    +0.000 OA
ATOM     33  H   UNL     1       1.789   6.588  21.204  0.00  0.00    +0.000 HD
ENDBRANCH  28  32
ENDBRANCH  23  24
ENDBRANCH   6  23
TORSDOF 6
ENDMDL
MODEL 9
REMARK VINA RESULT:      -8.0      6.300      9.390
REMARK  Name = 
REMARK  7 active torsions:
REMARK  status: ('A' for Active; 'I' for Inactive)
REMARK    1  A    between atoms: C_1  and  C_2
REMARK    2  A    between atoms: C_2  and  C_3
REMARK    3  A    between atoms: N_5  and  C_6
REMARK    4  A    between atoms: C_17  and  C_18
REMARK    5  A    between atoms: C_18  and  C_19
REMARK    6  A    between atoms: C_22  and  O_23
REMARK    7  A    between atoms: C_24  and  O_25
REMARK                            x       y       z     vdW  Elec       q    Type
REMARK                         _______ _______ _______ _____ _____    ______ ____
ROOT
ATOM      1  C   UNL     1      -4.872  12.264  19.204  0.00  0.00    +0.000 A 
ATOM      2  N   UNL     1      -4.897  13.057  20.278  0.00  0.00    +0.000 NA
ATOM      3  N   UNL     1      -3.595  13.180  20.676  0.00  0.00    +0.000 N 
ATOM      4  C   UNL     1      -2.770  12.420  19.867  0.00  0.00    +0.000 A 
ATOM      5  N   UNL     1      -1.422  12.270  19.973  0.00  0.00    +0.000 NA
ATOM      6  C   UNL     1      -0.869  11.601  19.004  0.00  0.00    +0.000 A 
ATOM      7  N   UNL     1      -1.590  10.955  18.021  0.00  0.00    +0.000 N 
ATOM      8  C   UNL     1      -2.973  11.004  17.915  0.00  0.00    +0.000 A 
ATOM      9  O   UNL     1      -3.588  10.401  17.051  0.00  0.00    +0.000 OA
ATOM     10  C   UNL     1      -3.571  11.839  18.912  0.00  0.00    +0.000 A 
ATOM     11  H   UNL     1      -1.131  10.352  17.356  0.00  0.00    +0.000 HD
ENDROOT
BRANCH   3  12
ATOM     12  C   UNL     1      -3.251  14.020  21.777  0.00  0.00    +0.000 A 
ATOM     13  C   UNL     1      -2.887  13.450  23.019  0.00  0.00    +0.000 A 
ATOM     14 CL   UNL     1      -2.692  11.750  23.337  0.00  0.00    +0.000 Cl
ATOM     15  C   UNL     1      -2.544  14.269  24.103  0.00  0.00    +0.000 A 
ATOM     16  C   UNL     1      -2.537  15.651  23.963  0.00  0.00    +0.000 A 
ATOM     17 CL   UNL     1      -2.124  16.658  25.284  0.00  0.00    +0.000 Cl
ATOM     18  C   UNL     1      -2.884  16.225  22.750  0.00  0.00    +0.000 A 
ATOM     19  C   UNL     1      -3.266  15.430  21.670  0.00  0.00    +0.000 A 
ATOM     20 CL   UNL     1      -3.898  16.389  20.366  0.00  0.00    +0.000 Cl
ENDBRANCH   3  12
BRANCH   1  22
ATOM     21  C   UNL     1      -6.685  10.578  18.837  0.00  0.00    +0.000 C 
ATOM     22  C   UNL     1      -6.133  11.945  18.471  0.00  0.00    +0.000 C 
ENDBRANCH   1  22
BRANCH   6  23
ATOM     23  C   UNL     1       0.647  11.527  18.899  0.00  0.00    +0.000 C 
BRANCH  23  24
ATOM     24  C   UNL     1       1.155  10.108  18.943  0.00  0.00    +0.000 A 
ATOM     25  C   UNL     1       1.738   9.513  17.811  0.00  0.00    +0.000 A 
ATOM     26  C   UNL     1       2.328   8.247  17.893  0.00  0.00    +0.000 A 
ATOM     27  C   UNL     1       2.304   7.565  19.102  0.00  0.00    +0.000 A 
ATOM     28  C   UNL     1       1.676   8.126  20.211  0.00  0.00    +0.000 A 
ATOM     29  C   UNL     1       1.094   9.382  20.140  0.00  0.00    +0.000 A 
BRANCH  27  30
ATOM     30  O   UNL     1       2.892   6.341  19.258  0.00  0.00    +0.000 OA
ATOM     31  H   UNL     1       3.772   6.476  19.653  0.00  0.00    +0.000 HD
ENDBRANCH  27  30
BRANCH  28  32
ATOM     32  O   UNL     1       1.649   7.451  21.398  0.00  0.00    +0.000 OA
ATOM     33  H   UNL     1       1.405   8.130  22.059  0.00  0.00    +0.000 HD
ENDBRANCH  28  32
ENDBRANCH  23  24
ENDBRANCH   6  23
TORSDOF 6
ENDMDL
