MODEL 1
REMARK VINA RESULT:      -8.0      0.000      0.000
REMARK  Name = 
REMARK  6 active torsions:
REMARK  status: ('A' for Active; 'I' for Inactive)
REMARK    1  A    between atoms: C_1  and  C_2
REMARK    2  A    between atoms: C_7  and  C_8
REMARK    3  A    between atoms: N_10  and  C_11
REMARK    4  A    between atoms: C_11  and  N_13
REMARK    5  A    between atoms: N_13  and  C_14
REMARK    6  A    between atoms: C_19  and  N_20
REMARK                            x       y       z     vdW  Elec       q    Type
REMARK                         _______ _______ _______ _____ _____    ______ ____
ROOT
ATOM      1  C   UNL     1       6.723   4.791  18.117  0.00  0.00    +0.000 C 
ATOM      2  S   UNL     1       7.890   5.440  19.136  0.00  0.00    +0.000 S 
ENDROOT
BRANCH   1   5
ATOM      3  C   UNL     1       7.138   5.159  15.665  0.00  0.00    +0.000 C 
ATOM      4  O   UNL     1       7.561   6.312  15.718  0.00  0.00    +0.000 OA
ATOM      5  N   UNL     1       6.951   4.364  16.797  0.00  0.00    +0.000 N 
ATOM      6  H   UNL     1       6.648   3.414  16.654  0.00  0.00    +0.000 HD
BRANCH   3  13
ATOM      7  C   UNL     1       8.837   5.838  13.101  0.00  0.00    +0.000 C 
ATOM      8  C   UNL     1       7.645   4.923  13.132  0.00  0.00    +0.000 A 
ATOM      9  C   UNL     1       7.198   4.410  11.894  0.00  0.00    +0.000 A 
ATOM     10  C   UNL     1       6.075   3.586  11.803  0.00  0.00    +0.000 A 
ATOM     11  C   UNL     1       5.386   3.237  12.953  0.00  0.00    +0.000 A 
ATOM     12  C   UNL     1       5.814   3.728  14.188  0.00  0.00    +0.000 A 
ATOM     13  C   UNL     1       6.933   4.583  14.300  0.00  0.00    +0.000 A 
ENDBRANCH   3  13
ENDBRANCH   1   5
BRANCH   1  14
ATOM     14  N   UNL     1       5.389   4.558  18.474  0.00  0.00    +0.000 N 
ATOM     15  H   UNL     1       5.241   3.793  19.127  0.00  0.00    +0.000 HD
BRANCH  14  16
ATOM     16  C   UNL     1       4.339   5.516  18.507  0.00  0.00    +0.000 A 
ATOM     17  C   UNL     1       4.457   6.686  17.739  0.00  0.00    +0.000 A 
ATOM     18  C   UNL     1       3.418   7.605  17.670  0.00  0.00    +0.000 A 
ATOM     19  C   UNL     1       2.245   7.363  18.365  0.00  0.00    +0.000 A 
ATOM     20  C   UNL     1       2.111   6.192  19.124  0.00  0.00    +0.000 A 
ATOM     21  C   UNL     1       3.132   5.229  19.209  0.00  0.00    +0.000 A 
BRANCH  21  22
ATOM     22  N   UNL     1       2.993   4.046  19.976  0.00  0.00    +0.000 N 
ATOM     23  C   UNL     1       2.463   2.818  19.342  0.00  0.00    +0.000 C 
ATOM     24  C   UNL     1       1.162   2.505  20.070  0.00  0.00    +0.000 C 
ATOM     25  C   UNL     1       1.435   3.000  21.475  0.00  0.00    +0.000 C 
ATOM     26  C   UNL     1       2.285   4.255  21.263  0.00  0.00    +0.000 C 
ENDBRANCH  21  22
ENDBRANCH  14  16
ENDBRANCH   1  14
TORSDOF 5
ENDMDL
MODEL 2
REMARK VINA RESULT:      -7.9      3.212      4.656
REMARK  Name = 
REMARK  6 active torsions:
REMARK  status: ('A' for Active; 'I' for Inactive)
REMARK    1  A    between atoms: C_1  and  C_2
REMARK    2  A    between atoms: C_7  and  C_8
REMARK    3  A    between atoms: N_10  and  C_11
REMARK    4  A    between atoms: C_11  and  N_13
REMARK    5  A    between atoms: N_13  and  C_14
REMARK    6  A    between atoms: C_19  and  N_20
REMARK                            x       y       z     vdW  Elec       q    Type
REMARK                         _______ _______ _______ _____ _____    ______ ____
ROOT
ATOM      1  C   UNL     1       2.408   4.785  20.004  0.00  0.00    +0.000 C 
ATOM      2  S   UNL     1       1.403   3.621  20.680  0.00  0.00    +0.000 S 
ENDROOT
BRANCH   1   5
ATOM      3  C   UNL     1       4.531   4.063  18.869  0.00  0.00    +0.000 C 
ATOM      4  O   UNL     1       4.964   3.312  19.740  0.00  0.00    +0.000 OA
ATOM      5  N   UNL     1       3.237   4.585  18.886  0.00  0.00    +0.000 N 
ATOM      6  H   UNL     1       2.953   5.153  18.105  0.00  0.00    +0.000 HD
BRANCH   3  13
ATOM      7  C   UNL     1       7.262   5.633  18.937  0.00  0.00    +0.000 C 
ATOM      8  C   UNL     1       6.619   5.068  17.701  0.00  0.00    +0.000 A 
ATOM      9  C   UNL     1       7.244   5.352  16.466  0.00  0.00    +0.000 A 
ATOM     10  C   UNL     1       6.708   4.913  15.255  0.00  0.00    +0.000 A 
ATOM     11  C   UNL     1       5.546   4.157  15.252  0.00  0.00    +0.000 A 
ATOM     12  C   UNL     1       4.916   3.860  16.461  0.00  0.00    +0.000 A 
ATOM     13  C   UNL     1       5.427   4.315  17.698  0.00  0.00    +0.000 A 
ENDBRANCH   3  13
ENDBRANCH   1   5
BRANCH   1  14
ATOM     14  N   UNL     1       2.510   6.109  20.448  0.00  0.00    +0.000 N 
ATOM     15  H   UNL     1       3.163   6.263  21.211  0.00  0.00    +0.000 HD
BRANCH  14  16
ATOM     16  C   UNL     1       2.283   7.283  19.678  0.00  0.00    +0.000 A 
ATOM     17  C   UNL     1       2.827   7.368  18.385  0.00  0.00    +0.000 A 
ATOM     18  C   UNL     1       2.556   8.455  17.565  0.00  0.00    +0.000 A 
ATOM     19  C   UNL     1       1.733   9.469  18.024  0.00  0.00    +0.000 A 
ATOM     20  C   UNL     1       1.172   9.388  19.307  0.00  0.00    +0.000 A 
ATOM     21  C   UNL     1       1.409   8.298  20.164  0.00  0.00    +0.000 A 
BRANCH  21  22
ATOM     22  N   UNL     1       0.842   8.219  21.459  0.00  0.00    +0.000 N 
ATOM     23  C   UNL     1      -0.618   8.389  21.632  0.00  0.00    +0.000 C 
ATOM     24  C   UNL     1      -0.791   9.636  22.489  0.00  0.00    +0.000 C 
ATOM     25  C   UNL     1       0.436   9.608  23.376  0.00  0.00    +0.000 C 
ATOM     26  C   UNL     1       1.536   9.063  22.464  0.00  0.00    +0.000 C 
ENDBRANCH  21  22
ENDBRANCH  14  16
ENDBRANCH   1  14
TORSDOF 5
ENDMDL
MODEL 3
REMARK VINA RESULT:      -7.8      1.418      2.955
REMARK  Name = 
REMARK  6 active torsions:
REMARK  status: ('A' for Active; 'I' for Inactive)
REMARK    1  A    between atoms: C_1  and  C_2
REMARK    2  A    between atoms: C_7  and  C_8
REMARK    3  A    between atoms: N_10  and  C_11
REMARK    4  A    between atoms: C_11  and  N_13
REMARK    5  A    between atoms: N_13  and  C_14
REMARK    6  A    between atoms: C_19  and  N_20
REMARK                            x       y       z     vdW  Elec       q    Type
REMARK                         _______ _______ _______ _____ _____    ______ ____
ROOT
ATOM      1  C   UNL     1       6.774   4.754  18.326  0.00  0.00    +0.000 C 
ATOM      2  S   UNL     1       7.725   5.940  19.039  0.00  0.00    +0.000 S 
ENDROOT
BRANCH   1   5
ATOM      3  C   UNL     1       7.047   5.089  15.850  0.00  0.00    +0.000 C 
ATOM      4  O   UNL     1       7.522   6.223  15.866  0.00  0.00    +0.000 OA
ATOM      5  N   UNL     1       6.897   4.310  16.998  0.00  0.00    +0.000 N 
ATOM      6  H   UNL     1       6.545   3.374  16.883  0.00  0.00    +0.000 HD
BRANCH   3  13
ATOM      7  C   UNL     1       8.654   5.616  13.193  0.00  0.00    +0.000 C 
ATOM      8  C   UNL     1       7.402   4.791  13.298  0.00  0.00    +0.000 A 
ATOM      9  C   UNL     1       6.855   4.298  12.091  0.00  0.00    +0.000 A 
ATOM     10  C   UNL     1       5.673   3.558  12.070  0.00  0.00    +0.000 A 
ATOM     11  C   UNL     1       5.021   3.271  13.260  0.00  0.00    +0.000 A 
ATOM     12  C   UNL     1       5.547   3.743  14.463  0.00  0.00    +0.000 A 
ATOM     13  C   UNL     1       6.730   4.515  14.506  0.00  0.00    +0.000 A 
ENDBRANCH   3  13
ENDBRANCH   1   5
BRANCH   1  14
ATOM     14  N   UNL     1       5.769   4.033  18.982  0.00  0.00    +0.000 N 
ATOM     15  H   UNL     1       5.750   4.133  19.994  0.00  0.00    +0.000 HD
BRANCH  14  16
ATOM     16  C   UNL     1       4.505   3.658  18.448  0.00  0.00    +0.000 A 
ATOM     17  C   UNL     1       4.252   2.302  18.181  0.00  0.00    +0.000 A 
ATOM     18  C   UNL     1       3.003   1.881  17.745  0.00  0.00    +0.000 A 
ATOM     19  C   UNL     1       1.989   2.808  17.575  0.00  0.00    +0.000 A 
ATOM     20  C   UNL     1       2.226   4.162  17.852  0.00  0.00    +0.000 A 
ATOM     21  C   UNL     1       3.472   4.630  18.310  0.00  0.00    +0.000 A 
BRANCH  21  22
ATOM     22  N   UNL     1       3.709   5.998  18.588  0.00  0.00    +0.000 N 
ATOM     23  C   UNL     1       2.763   6.746  19.447  0.00  0.00    +0.000 C 
ATOM     24  C   UNL     1       2.177   7.839  18.562  0.00  0.00    +0.000 C 
ATOM     25  C   UNL     1       3.322   8.164  17.626  0.00  0.00    +0.000 C 
ATOM     26  C   UNL     1       3.990   6.810  17.378  0.00  0.00    +0.000 C 
ENDBRANCH  21  22
ENDBRANCH  14  16
ENDBRANCH   1  14
TORSDOF 5
ENDMDL
MODEL 4
REMARK VINA RESULT:      -7.7      0.559      1.517
REMARK  Name = 
REMARK  6 active torsions:
REMARK  status: ('A' for Active; 'I' for Inactive)
REMARK    1  A    between atoms: C_1  and  C_2
REMARK    2  A    between atoms: C_7  and  C_8
REMARK    3  A    between atoms: N_10  and  C_11
REMARK    4  A    between atoms: C_11  and  N_13
REMARK    5  A    between atoms: N_13  and  C_14
REMARK    6  A    between atoms: C_19  and  N_20
REMARK                            x       y       z     vdW  Elec       q    Type
REMARK                         _______ _______ _______ _____ _____    ______ ____
ROOT
ATOM      1  C   UNL     1       6.949   4.909  18.569  0.00  0.00    +0.000 C 
ATOM      2  S   UNL     1       8.203   5.505  19.514  0.00  0.00    +0.000 S 
ENDROOT
BRANCH   1   5
ATOM      3  C   UNL     1       7.182   5.397  16.114  0.00  0.00    +0.000 C 
ATOM      4  O   UNL     1       7.640   6.535  16.192  0.00  0.00    +0.000 OA
ATOM      5  N   UNL     1       7.061   4.547  17.214  0.00  0.00    +0.000 N 
ATOM      6  H   UNL     1       6.721   3.615  17.048  0.00  0.00    +0.000 HD
BRANCH   3  13
ATOM      7  C   UNL     1       4.803   3.472  15.367  0.00  0.00    +0.000 C 
ATOM      8  C   UNL     1       5.832   3.990  14.402  0.00  0.00    +0.000 A 
ATOM      9  C   UNL     1       5.781   3.493  13.080  0.00  0.00    +0.000 A 
ATOM     10  C   UNL     1       6.714   3.874  12.116  0.00  0.00    +0.000 A 
ATOM     11  C   UNL     1       7.709   4.782  12.444  0.00  0.00    +0.000 A 
ATOM     12  C   UNL     1       7.774   5.291  13.742  0.00  0.00    +0.000 A 
ATOM     13  C   UNL     1       6.854   4.900  14.741  0.00  0.00    +0.000 A 
ENDBRANCH   3  13
ENDBRANCH   1   5
BRANCH   1  14
ATOM     14  N   UNL     1       5.650   4.660  19.027  0.00  0.00    +0.000 N 
ATOM     15  H   UNL     1       5.587   4.103  19.875  0.00  0.00    +0.000 HD
BRANCH  14  16
ATOM     16  C   UNL     1       4.507   5.481  18.827  0.00  0.00    +0.000 A 
ATOM     17  C   UNL     1       4.615   6.615  18.004  0.00  0.00    +0.000 A 
ATOM     18  C   UNL     1       3.504   7.393  17.709  0.00  0.00    +0.000 A 
ATOM     19  C   UNL     1       2.268   7.045  18.227  0.00  0.00    +0.000 A 
ATOM     20  C   UNL     1       2.145   5.908  19.037  0.00  0.00    +0.000 A 
ATOM     21  C   UNL     1       3.242   5.084  19.350  0.00  0.00    +0.000 A 
BRANCH  21  22
ATOM     22  N   UNL     1       3.114   3.935  20.169  0.00  0.00    +0.000 N 
ATOM     23  C   UNL     1       2.845   2.619  19.549  0.00  0.00    +0.000 C 
ATOM     24  C   UNL     1       1.485   2.183  20.081  0.00  0.00    +0.000 C 
ATOM     25  C   UNL     1       1.459   2.781  21.471  0.00  0.00    +0.000 C 
ATOM     26  C   UNL     1       2.181   4.120  21.308  0.00  0.00    +0.000 C 
ENDBRANCH  21  22
ENDBRANCH  14  16
ENDBRANCH   1  14
TORSDOF 5
ENDMDL
MODEL 5
REMARK VINA RESULT:      -7.7      0.972      1.031
REMARK  Name = 
REMARK  6 active torsions:
REMARK  status: ('A' for Active; 'I' for Inactive)
REMARK    1  A    between atoms: C_1  and  C_2
REMARK    2  A    between atoms: C_7  and  C_8
REMARK    3  A    between atoms: N_10  and  C_11
REMARK    4  A    between atoms: C_11  and  N_13
REMARK    5  A    between atoms: N_13  and  C_14
REMARK    6  A    between atoms: C_19  and  N_20
REMARK                            x       y       z     vdW  Elec       q    Type
REMARK                         _______ _______ _______ _____ _____    ______ ____
ROOT
ATOM      1  C   UNL     1       5.640   5.087  17.645  0.00  0.00    +0.000 C 
ATOM      2  S   UNL     1       6.504   5.236  19.077  0.00  0.00    +0.000 S 
ENDROOT
BRANCH   1   5
ATOM      3  C   UNL     1       5.955   5.310  15.161  0.00  0.00    +0.000 C 
ATOM      4  O   UNL     1       5.591   6.476  15.030  0.00  0.00    +0.000 OA
ATOM      5  N   UNL     1       6.190   4.720  16.404  0.00  0.00    +0.000 N 
ATOM      6  H   UNL     1       6.534   3.774  16.413  0.00  0.00    +0.000 HD
BRANCH   3  13
ATOM      7  C   UNL     1       8.440   5.774  13.282  0.00  0.00    +0.000 C 
ATOM      8  C   UNL     1       7.330   4.795  13.022  0.00  0.00    +0.000 A 
ATOM      9  C   UNL     1       7.359   4.105  11.789  0.00  0.00    +0.000 A 
ATOM     10  C   UNL     1       6.354   3.206  11.428  0.00  0.00    +0.000 A 
ATOM     11  C   UNL     1       5.308   2.958  12.303  0.00  0.00    +0.000 A 
ATOM     12  C   UNL     1       5.263   3.624  13.528  0.00  0.00    +0.000 A 
ATOM     13  C   UNL     1       6.257   4.557  13.904  0.00  0.00    +0.000 A 
ENDBRANCH   3  13
ENDBRANCH   1   5
BRANCH   1  14
ATOM     14  N   UNL     1       4.257   5.270  17.522  0.00  0.00    +0.000 N 
ATOM     15  H   UNL     1       3.728   4.439  17.274  0.00  0.00    +0.000 HD
BRANCH  14  16
ATOM     16  C   UNL     1       3.465   6.240  18.197  0.00  0.00    +0.000 A 
ATOM     17  C   UNL     1       3.372   7.536  17.665  0.00  0.00    +0.000 A 
ATOM     18  C   UNL     1       2.540   8.487  18.239  0.00  0.00    +0.000 A 
ATOM     19  C   UNL     1       1.784   8.153  19.350  0.00  0.00    +0.000 A 
ATOM     20  C   UNL     1       1.858   6.857  19.881  0.00  0.00    +0.000 A 
ATOM     21  C   UNL     1       2.677   5.860  19.322  0.00  0.00    +0.000 A 
BRANCH  21  22
ATOM     22  N   UNL     1       2.749   4.552  19.860  0.00  0.00    +0.000 N 
ATOM     23  C   UNL     1       2.158   3.418  19.114  0.00  0.00    +0.000 C 
ATOM     24  C   UNL     1       1.046   2.874  20.002  0.00  0.00    +0.000 C 
ATOM     25  C   UNL     1       1.573   3.130  21.398  0.00  0.00    +0.000 C 
ATOM     26  C   UNL     1       2.305   4.468  21.274  0.00  0.00    +0.000 C 
ENDBRANCH  21  22
ENDBRANCH  14  16
ENDBRANCH   1  14
TORSDOF 5
ENDMDL
MODEL 6
REMARK VINA RESULT:      -7.6      2.488      6.902
REMARK  Name = 
REMARK  6 active torsions:
REMARK  status: ('A' for Active; 'I' for Inactive)
REMARK    1  A    between atoms: C_1  and  C_2
REMARK    2  A    between atoms: C_7  and  C_8
REMARK    3  A    between atoms: N_10  and  C_11
REMARK    4  A    between atoms: C_11  and  N_13
REMARK    5  A    between atoms: N_13  and  C_14
REMARK    6  A    between atoms: C_19  and  N_20
REMARK                            x       y       z     vdW  Elec       q    Type
REMARK                         _______ _______ _______ _____ _____    ______ ____
ROOT
ATOM      1  C   UNL     1       3.561   3.662  17.628  0.00  0.00    +0.000 C 
ATOM      2  S   UNL     1       2.575   2.304  17.563  0.00  0.00    +0.000 S 
ENDROOT
BRANCH   1   5
ATOM      3  C   UNL     1       3.295   5.697  19.081  0.00  0.00    +0.000 C 
ATOM      4  O   UNL     1       4.214   5.485  19.869  0.00  0.00    +0.000 OA
ATOM      5  N   UNL     1       3.119   4.969  17.903  0.00  0.00    +0.000 N 
ATOM      6  H   UNL     1       2.368   5.245  17.293  0.00  0.00    +0.000 HD
BRANCH   3  13
ATOM      7  C   UNL     1       2.919   8.234  17.252  0.00  0.00    +0.000 C 
ATOM      8  C   UNL     1       2.284   8.037  18.600  0.00  0.00    +0.000 A 
ATOM      9  C   UNL     1       1.542   9.119  19.124  0.00  0.00    +0.000 A 
ATOM     10  C   UNL     1       0.947   9.059  20.385  0.00  0.00    +0.000 A 
ATOM     11  C   UNL     1       1.060   7.904  21.143  0.00  0.00    +0.000 A 
ATOM     12  C   UNL     1       1.783   6.821  20.642  0.00  0.00    +0.000 A 
ATOM     13  C   UNL     1       2.415   6.869  19.378  0.00  0.00    +0.000 A 
ENDBRANCH   3  13
ENDBRANCH   1   5
BRANCH   1  14
ATOM     14  N   UNL     1       4.950   3.651  17.458  0.00  0.00    +0.000 N 
ATOM     15  H   UNL     1       5.451   2.963  18.013  0.00  0.00    +0.000 HD
BRANCH  14  16
ATOM     16  C   UNL     1       5.667   4.038  16.292  0.00  0.00    +0.000 A 
ATOM     17  C   UNL     1       5.531   3.273  15.122  0.00  0.00    +0.000 A 
ATOM     18  C   UNL     1       6.139   3.664  13.937  0.00  0.00    +0.000 A 
ATOM     19  C   UNL     1       6.887   4.829  13.904  0.00  0.00    +0.000 A 
ATOM     20  C   UNL     1       7.018   5.608  15.063  0.00  0.00    +0.000 A 
ATOM     21  C   UNL     1       6.407   5.256  16.280  0.00  0.00    +0.000 A 
BRANCH  21  22
ATOM     22  N   UNL     1       6.541   6.045  17.448  0.00  0.00    +0.000 N 
ATOM     23  C   UNL     1       6.531   7.521  17.341  0.00  0.00    +0.000 C 
ATOM     24  C   UNL     1       7.901   7.979  17.824  0.00  0.00    +0.000 C 
ATOM     25  C   UNL     1       8.252   6.945  18.872  0.00  0.00    +0.000 C 
ATOM     26  C   UNL     1       7.681   5.642  18.308  0.00  0.00    +0.000 C 
ENDBRANCH  21  22
ENDBRANCH  14  16
ENDBRANCH   1  14
TORSDOF 5
ENDMDL
MODEL 7
REMARK VINA RESULT:      -7.6      1.379      3.288
REMARK  Name = 
REMARK  6 active torsions:
REMARK  status: ('A' for Active; 'I' for Inactive)
REMARK    1  A    between atoms: C_1  and  C_2
REMARK    2  A    between atoms: C_7  and  C_8
REMARK    3  A    between atoms: N_10  and  C_11
REMARK    4  A    between atoms: C_11  and  N_13
REMARK    5  A    between atoms: N_13  and  C_14
REMARK    6  A    between atoms: C_19  and  N_20
REMARK                            x       y       z     vdW  Elec       q    Type
REMARK                         _______ _______ _______ _____ _____    ______ ____
ROOT
ATOM      1  C   UNL     1       6.651   4.739  18.454  0.00  0.00    +0.000 C 
ATOM      2  S   UNL     1       7.546   5.950  19.197  0.00  0.00    +0.000 S 
ENDROOT
BRANCH   1   5
ATOM      3  C   UNL     1       6.992   5.217  16.010  0.00  0.00    +0.000 C 
ATOM      4  O   UNL     1       7.580   6.292  16.110  0.00  0.00    +0.000 OA
ATOM      5  N   UNL     1       6.748   4.378  17.099  0.00  0.00    +0.000 N 
ATOM      6  H   UNL     1       6.303   3.494  16.915  0.00  0.00    +0.000 HD
BRANCH   3  13
ATOM      7  C   UNL     1       4.356   3.710  15.172  0.00  0.00    +0.000 C 
ATOM      8  C   UNL     1       5.492   4.045  14.248  0.00  0.00    +0.000 A 
ATOM      9  C   UNL     1       5.408   3.556  12.925  0.00  0.00    +0.000 A 
ATOM     10  C   UNL     1       6.427   3.773  11.996  0.00  0.00    +0.000 A 
ATOM     11  C   UNL     1       7.546   4.505  12.363  0.00  0.00    +0.000 A 
ATOM     12  C   UNL     1       7.647   5.002  13.663  0.00  0.00    +0.000 A 
ATOM     13  C   UNL     1       6.638   4.774  14.626  0.00  0.00    +0.000 A 
ENDBRANCH   3  13
ENDBRANCH   1   5
BRANCH   1  14
ATOM     14  N   UNL     1       5.728   3.912  19.106  0.00  0.00    +0.000 N 
ATOM     15  H   UNL     1       5.791   3.904  20.121  0.00  0.00    +0.000 HD
BRANCH  14  16
ATOM     16  C   UNL     1       4.436   3.546  18.638  0.00  0.00    +0.000 A 
ATOM     17  C   UNL     1       4.144   2.187  18.433  0.00  0.00    +0.000 A 
ATOM     18  C   UNL     1       2.870   1.777  18.064  0.00  0.00    +0.000 A 
ATOM     19  C   UNL     1       1.869   2.720  17.899  0.00  0.00    +0.000 A 
ATOM     20  C   UNL     1       2.145   4.078  18.115  0.00  0.00    +0.000 A 
ATOM     21  C   UNL     1       3.418   4.534  18.504  0.00  0.00    +0.000 A 
BRANCH  21  22
ATOM     22  N   UNL     1       3.694   5.906  18.721  0.00  0.00    +0.000 N 
ATOM     23  C   UNL     1       2.825   6.696  19.622  0.00  0.00    +0.000 C 
ATOM     24  C   UNL     1       2.191   7.770  18.748  0.00  0.00    +0.000 C 
ATOM     25  C   UNL     1       3.267   8.048  17.721  0.00  0.00    +0.000 C 
ATOM     26  C   UNL     1       3.896   6.676  17.468  0.00  0.00    +0.000 C 
ENDBRANCH  21  22
ENDBRANCH  14  16
ENDBRANCH   1  14
TORSDOF 5
ENDMDL
MODEL 8
REMARK VINA RESULT:      -7.3      5.380      7.502
REMARK  Name = 
REMARK  6 active torsions:
REMARK  status: ('A' for Active; 'I' for Inactive)
REMARK    1  A    between atoms: C_1  and  C_2
REMARK    2  A    between atoms: C_7  and  C_8
REMARK    3  A    between atoms: N_10  and  C_11
REMARK    4  A    between atoms: C_11  and  N_13
REMARK    5  A    between atoms: N_13  and  C_14
REMARK    6  A    between atoms: C_19  and  N_20
REMARK                            x       y       z     vdW  Elec       q    Type
REMARK                         _______ _______ _______ _____ _____    ______ ____
ROOT
ATOM      1  C   UNL     1       1.470   9.890  18.234  0.00  0.00    +0.000 C 
ATOM      2  S   UNL     1       2.305  11.336  18.048  0.00  0.00    +0.000 S 
ENDROOT
BRANCH   1   5
ATOM      3  C   UNL     1       2.456   7.591  18.480  0.00  0.00    +0.000 C 
ATOM      4  O   UNL     1       2.257   7.429  19.682  0.00  0.00    +0.000 OA
ATOM      5  N   UNL     1       1.899   8.642  17.750  0.00  0.00    +0.000 N 
ATOM      6  H   UNL     1       2.078   8.667  16.759  0.00  0.00    +0.000 HD
BRANCH   3  13
ATOM      7  C   UNL     1       1.737   4.526  18.368  0.00  0.00    +0.000 C 
ATOM      8  C   UNL     1       2.972   5.147  17.777  0.00  0.00    +0.000 A 
ATOM      9  C   UNL     1       3.926   4.269  17.217  0.00  0.00    +0.000 A 
ATOM     10  C   UNL     1       5.127   4.736  16.680  0.00  0.00    +0.000 A 
ATOM     11  C   UNL     1       5.391   6.097  16.670  0.00  0.00    +0.000 A 
ATOM     12  C   UNL     1       4.459   6.982  17.213  0.00  0.00    +0.000 A 
ATOM     13  C   UNL     1       3.248   6.530  17.784  0.00  0.00    +0.000 A 
ENDBRANCH   3  13
ENDBRANCH   1   5
BRANCH   1  14
ATOM     14  N   UNL     1       0.266   9.746  18.933  0.00  0.00    +0.000 N 
ATOM     15  H   UNL     1       0.357   9.480  19.910  0.00  0.00    +0.000 HD
BRANCH  14  16
ATOM     16  C   UNL     1      -0.958  10.419  18.663  0.00  0.00    +0.000 A 
ATOM     17  C   UNL     1      -1.742  10.000  17.575  0.00  0.00    +0.000 A 
ATOM     18  C   UNL     1      -2.986  10.566  17.330  0.00  0.00    +0.000 A 
ATOM     19  C   UNL     1      -3.465  11.556  18.171  0.00  0.00    +0.000 A 
ATOM     20  C   UNL     1      -2.697  11.972  19.269  0.00  0.00    +0.000 A 
ATOM     21  C   UNL     1      -1.439  11.415  19.562  0.00  0.00    +0.000 A 
BRANCH  21  22
ATOM     22  N   UNL     1      -0.666  11.837  20.671  0.00  0.00    +0.000 N 
ATOM     23  C   UNL     1      -0.754  11.098  21.951  0.00  0.00    +0.000 C 
ATOM     24  C   UNL     1      -1.313  12.090  22.963  0.00  0.00    +0.000 C 
ATOM     25  C   UNL     1      -0.756  13.413  22.481  0.00  0.00    +0.000 C 
ATOM     26  C   UNL     1      -0.782  13.289  20.956  0.00  0.00    +0.000 C 
ENDBRANCH  21  22
ENDBRANCH  14  16
ENDBRANCH   1  14
TORSDOF 5
ENDMDL
MODEL 9
REMARK VINA RESULT:      -7.3      1.874      3.109
REMARK  Name = 
REMARK  6 active torsions:
REMARK  status: ('A' for Active; 'I' for Inactive)
REMARK    1  A    between atoms: C_1  and  C_2
REMARK    2  A    between atoms: C_7  and  C_8
REMARK    3  A    between atoms: N_10  and  C_11
REMARK    4  A    between atoms: C_11  and  N_13
REMARK    5  A    between atoms: N_13  and  C_14
REMARK    6  A    between atoms: C_19  and  N_20
REMARK                            x       y       z     vdW  Elec       q    Type
REMARK                         _______ _______ _______ _____ _____    ______ ____
ROOT
ATOM      1  C   UNL     1       6.274   6.601  17.245  0.00  0.00    +0.000 C 
ATOM      2  S   UNL     1       7.390   7.838  17.457  0.00  0.00    +0.000 S 
ENDROOT
BRANCH   1   5
ATOM      3  C   UNL     1       7.012   4.898  15.550  0.00  0.00    +0.000 C 
ATOM      4  O   UNL     1       7.823   4.286  16.240  0.00  0.00    +0.000 OA
ATOM      5  N   UNL     1       6.124   5.841  16.072  0.00  0.00    +0.000 N 
ATOM      6  H   UNL     1       5.461   6.256  15.439  0.00  0.00    +0.000 HD
BRANCH   3  13
ATOM      7  C   UNL     1       8.862   5.966  13.235  0.00  0.00    +0.000 C 
ATOM      8  C   UNL     1       7.707   5.021  13.053  0.00  0.00    +0.000 A 
ATOM      9  C   UNL     1       7.370   4.667  11.728  0.00  0.00    +0.000 A 
ATOM     10  C   UNL     1       6.290   3.830  11.444  0.00  0.00    +0.000 A 
ATOM     11  C   UNL     1       5.534   3.309  12.482  0.00  0.00    +0.000 A 
ATOM     12  C   UNL     1       5.853   3.641  13.800  0.00  0.00    +0.000 A 
ATOM     13  C   UNL     1       6.928   4.506  14.109  0.00  0.00    +0.000 A 
ENDBRANCH   3  13
ENDBRANCH   1   5
BRANCH   1  14
ATOM     14  N   UNL     1       5.384   6.149  18.227  0.00  0.00    +0.000 N 
ATOM     15  H   UNL     1       5.396   6.672  19.099  0.00  0.00    +0.000 HD
BRANCH  14  16
ATOM     16  C   UNL     1       4.150   5.476  18.011  0.00  0.00    +0.000 A 
ATOM     17  C   UNL     1       4.167   4.121  17.641  0.00  0.00    +0.000 A 
ATOM     18  C   UNL     1       2.987   3.401  17.508  0.00  0.00    +0.000 A 
ATOM     19  C   UNL     1       1.774   4.025  17.749  0.00  0.00    +0.000 A 
ATOM     20  C   UNL     1       1.746   5.374  18.132  0.00  0.00    +0.000 A 
ATOM     21  C   UNL     1       2.918   6.135  18.292  0.00  0.00    +0.000 A 
BRANCH  21  22
ATOM     22  N   UNL     1       2.886   7.497  18.680  0.00  0.00    +0.000 N 
ATOM     23  C   UNL     1       2.016   7.921  19.799  0.00  0.00    +0.000 C 
ATOM     24  C   UNL     1       1.003   8.885  19.193  0.00  0.00    +0.000 C 
ATOM     25  C   UNL     1       1.793   9.552  18.088  0.00  0.00    +0.000 C 
ATOM     26  C   UNL     1       2.683   8.432  17.545  0.00  0.00    +0.000 C 
ENDBRANCH  21  22
ENDBRANCH  14  16
ENDBRANCH   1  14
TORSDOF 5
ENDMDL
