MODEL 1
REMARK VINA RESULT:      -7.4      0.000      0.000
REMARK  Name = 
REMARK  14 active torsions:
REMARK  status: ('A' for Active; 'I' for Inactive)
REMARK    1  A    between atoms: C_1  and  C_2
REMARK    2  A    between atoms: C_2  and  N_3
REMARK    3  A    between atoms: N_3  and  C_4
REMARK    4  A    between atoms: N_3  and  C_6
REMARK    5  A    between atoms: C_4  and  C_5
REMARK    6  A    between atoms: C_6  and  C_7
REMARK    7  A    between atoms: C_7  and  N_8
REMARK    8  A    between atoms: N_8  and  C_9
REMARK    9  A    between atoms: C_9  and  C_10
REMARK   10  A    between atoms: C_16  and  O_17
REMARK   11  A    between atoms: O_17  and  C_18
REMARK   12  A    between atoms: C_18  and  C_19
REMARK   13  A    between atoms: N_21  and  C_22
REMARK   14  A    between atoms: C_22  and  C_23
REMARK                            x       y       z     vdW  Elec       q    Type
REMARK                         _______ _______ _______ _____ _____    ______ ____
ROOT
ATOM      1  C   UNL     1       5.093   5.431  16.894  0.00  0.00    +0.000 A 
ATOM      2  C   UNL     1       4.809   4.978  15.587  0.00  0.00    +0.000 A 
ATOM      3  C   UNL     1       5.749   4.264  14.853  0.00  0.00    +0.000 A 
ATOM      4 BR   UNL     1       5.326   3.656  13.115  0.00  0.00    +0.000 Br
ATOM      5  C   UNL     1       6.999   4.004  15.389  0.00  0.00    +0.000 A 
ATOM      6  C   UNL     1       7.310   4.463  16.670  0.00  0.00    +0.000 A 
ATOM      7  C   UNL     1       6.371   5.173  17.435  0.00  0.00    +0.000 A 
ENDROOT
BRANCH   1   8
ATOM      8  C   UNL     1       4.017   6.223  17.618  0.00  0.00    +0.000 C 
BRANCH   8   9
ATOM      9  N   UNL     1       2.759   5.468  17.747  0.00  0.00    +0.000 NA
ATOM     10  H   UNL     1       2.011   5.990  17.288  0.00  0.00    +0.000 HD
BRANCH   9  11
ATOM     11  C   UNL     1       2.347   5.305  19.148  0.00  0.00    +0.000 C 
BRANCH  11  12
ATOM     12  C   UNL     1       3.416   4.684  20.088  0.00  0.00    +0.000 C 
BRANCH  12  13
ATOM     13  N   UNL     1       3.377   3.205  20.217  0.00  0.00    +0.000 NA
BRANCH  13  15
ATOM     14  C   UNL     1       1.336   2.684  21.630  0.00  0.00    +0.000 C 
ATOM     15  C   UNL     1       1.985   2.715  20.248  0.00  0.00    +0.000 C 
ENDBRANCH  13  15
BRANCH  13  16
ATOM     16  C   UNL     1       4.204   2.565  19.173  0.00  0.00    +0.000 C 
ATOM     17  C   UNL     1       3.456   1.794  18.087  0.00  0.00    +0.000 C 
ENDBRANCH  13  16
ENDBRANCH  12  13
ENDBRANCH  11  12
ENDBRANCH   9  11
ENDBRANCH   8   9
ENDBRANCH   1   8
BRANCH   7  18
ATOM     18  O   UNL     1       6.676   5.690  18.672  0.00  0.00    +0.000 OA
BRANCH  18  19
ATOM     19  C   UNL     1       7.877   6.461  18.754  0.00  0.00    +0.000 C 
BRANCH  19  20
ATOM     20  C   UNL     1       7.891   7.808  18.012  0.00  0.00    +0.000 C 
ATOM     21  O   UNL     1       7.336   7.949  16.924  0.00  0.00    +0.000 OA
ATOM     22  N   UNL     1       8.581   8.816  18.641  0.00  0.00    +0.000 N 
ATOM     23  H   UNL     1       8.979   8.634  19.559  0.00  0.00    +0.000 HD
BRANCH  22  24
ATOM     24  C   UNL     1       8.667  10.159  18.100  0.00  0.00    +0.000 C 
BRANCH  24  25
ATOM     25  C   UNL     1       9.790  10.942  18.735  0.00  0.00    +0.000 A 
ATOM     26  C   UNL     1      10.859  11.415  17.962  0.00  0.00    +0.000 A 
ATOM     27  C   UNL     1      11.883  12.161  18.549  0.00  0.00    +0.000 A 
ATOM     28  C   UNL     1      11.848  12.447  19.913  0.00  0.00    +0.000 A 
ATOM     29  C   UNL     1      10.787  11.985  20.691  0.00  0.00    +0.000 A 
ATOM     30  C   UNL     1       9.764  11.241  20.105  0.00  0.00    +0.000 A 
ENDBRANCH  24  25
ENDBRANCH  22  24
ENDBRANCH  19  20
ENDBRANCH  18  19
ENDBRANCH   7  18
TORSDOF 12
ENDMDL
MODEL 2
REMARK VINA RESULT:      -7.1      4.691      6.296
REMARK  Name = 
REMARK  14 active torsions:
REMARK  status: ('A' for Active; 'I' for Inactive)
REMARK    1  A    between atoms: C_1  and  C_2
REMARK    2  A    between atoms: C_2  and  N_3
REMARK    3  A    between atoms: N_3  and  C_4
REMARK    4  A    between atoms: N_3  and  C_6
REMARK    5  A    between atoms: C_4  and  C_5
REMARK    6  A    between atoms: C_6  and  C_7
REMARK    7  A    between atoms: C_7  and  N_8
REMARK    8  A    between atoms: N_8  and  C_9
REMARK    9  A    between atoms: C_9  and  C_10
REMARK   10  A    between atoms: C_16  and  O_17
REMARK   11  A    between atoms: O_17  and  C_18
REMARK   12  A    between atoms: C_18  and  C_19
REMARK   13  A    between atoms: N_21  and  C_22
REMARK   14  A    between atoms: C_22  and  C_23
REMARK                            x       y       z     vdW  Elec       q    Type
REMARK                         _______ _______ _______ _____ _____    ______ ____
ROOT
ATOM      1  C   UNL     1       4.620   4.215  16.918  0.00  0.00    +0.000 A 
ATOM      2  C   UNL     1       5.122   3.699  15.703  0.00  0.00    +0.000 A 
ATOM      3  C   UNL     1       5.582   4.543  14.699  0.00  0.00    +0.000 A 
ATOM      4 BR   UNL     1       6.266   3.817  13.095  0.00  0.00    +0.000 Br
ATOM      5  C   UNL     1       5.533   5.918  14.868  0.00  0.00    +0.000 A 
ATOM      6  C   UNL     1       5.018   6.449  16.051  0.00  0.00    +0.000 A 
ATOM      7  C   UNL     1       4.561   5.615  17.084  0.00  0.00    +0.000 A 
ENDROOT
BRANCH   1   8
ATOM      8  C   UNL     1       4.117   3.222  17.952  0.00  0.00    +0.000 C 
BRANCH   8   9
ATOM      9  N   UNL     1       4.928   3.237  19.182  0.00  0.00    +0.000 NA
ATOM     10  H   UNL     1       5.853   2.860  18.972  0.00  0.00    +0.000 HD
BRANCH   9  11
ATOM     11  C   UNL     1       4.363   2.380  20.233  0.00  0.00    +0.000 C 
BRANCH  11  12
ATOM     12  C   UNL     1       2.904   1.904  19.992  0.00  0.00    +0.000 C 
BRANCH  12  13
ATOM     13  N   UNL     1       1.857   2.625  20.758  0.00  0.00    +0.000 NA
BRANCH  13  15
ATOM     14  C   UNL     1       2.090   5.116  21.181  0.00  0.00    +0.000 C 
ATOM     15  C   UNL     1       2.453   3.690  21.590  0.00  0.00    +0.000 C 
ENDBRANCH  13  15
BRANCH  13  16
ATOM     16  C   UNL     1       0.788   3.108  19.860  0.00  0.00    +0.000 C 
ATOM     17  C   UNL     1       0.569   2.316  18.572  0.00  0.00    +0.000 C 
ENDBRANCH  13  16
ENDBRANCH  12  13
ENDBRANCH  11  12
ENDBRANCH   9  11
ENDBRANCH   8   9
ENDBRANCH   1   8
BRANCH   7  18
ATOM     18  O   UNL     1       3.991   6.116  18.231  0.00  0.00    +0.000 OA
BRANCH  18  19
ATOM     19  C   UNL     1       2.613   6.483  18.141  0.00  0.00    +0.000 C 
BRANCH  19  20
ATOM     20  C   UNL     1       2.291   7.987  18.144  0.00  0.00    +0.000 C 
ATOM     21  O   UNL     1       2.666   8.726  17.236  0.00  0.00    +0.000 OA
ATOM     22  N   UNL     1       1.583   8.432  19.234  0.00  0.00    +0.000 N 
ATOM     23  H   UNL     1       1.272   7.752  19.923  0.00  0.00    +0.000 HD
BRANCH  22  24
ATOM     24  C   UNL     1       1.165   9.813  19.381  0.00  0.00    +0.000 C 
BRANCH  24  25
ATOM     25  C   UNL     1       0.421  10.032  20.676  0.00  0.00    +0.000 A 
ATOM     26  C   UNL     1       0.326   9.008  21.629  0.00  0.00    +0.000 A 
ATOM     27  C   UNL     1      -0.340   9.224  22.837  0.00  0.00    +0.000 A 
ATOM     28  C   UNL     1      -0.915  10.464  23.108  0.00  0.00    +0.000 A 
ATOM     29  C   UNL     1      -0.823  11.491  22.170  0.00  0.00    +0.000 A 
ATOM     30  C   UNL     1      -0.157  11.277  20.963  0.00  0.00    +0.000 A 
ENDBRANCH  24  25
ENDBRANCH  22  24
ENDBRANCH  19  20
ENDBRANCH  18  19
ENDBRANCH   7  18
TORSDOF 12
ENDMDL
MODEL 3
REMARK VINA RESULT:      -6.8      1.663      2.596
REMARK  Name = 
REMARK  14 active torsions:
REMARK  status: ('A' for Active; 'I' for Inactive)
REMARK    1  A    between atoms: C_1  and  C_2
REMARK    2  A    between atoms: C_2  and  N_3
REMARK    3  A    between atoms: N_3  and  C_4
REMARK    4  A    between atoms: N_3  and  C_6
REMARK    5  A    between atoms: C_4  and  C_5
REMARK    6  A    between atoms: C_6  and  C_7
REMARK    7  A    between atoms: C_7  and  N_8
REMARK    8  A    between atoms: N_8  and  C_9
REMARK    9  A    between atoms: C_9  and  C_10
REMARK   10  A    between atoms: C_16  and  O_17
REMARK   11  A    between atoms: O_17  and  C_18
REMARK   12  A    between atoms: C_18  and  C_19
REMARK   13  A    between atoms: N_21  and  C_22
REMARK   14  A    between atoms: C_22  and  C_23
REMARK                            x       y       z     vdW  Elec       q    Type
REMARK                         _______ _______ _______ _____ _____    ______ ____
ROOT
ATOM      1  C   UNL     1       5.815   4.210  15.527  0.00  0.00    +0.000 A 
ATOM      2  C   UNL     1       5.129   3.704  14.400  0.00  0.00    +0.000 A 
ATOM      3  C   UNL     1       5.654   3.835  13.120  0.00  0.00    +0.000 A 
ATOM      4 BR   UNL     1       4.719   3.128  11.639  0.00  0.00    +0.000 Br
ATOM      5  C   UNL     1       6.860   4.490  12.926  0.00  0.00    +0.000 A 
ATOM      6  C   UNL     1       7.542   5.019  14.022  0.00  0.00    +0.000 A 
ATOM      7  C   UNL     1       7.038   4.886  15.325  0.00  0.00    +0.000 A 
ENDROOT
BRANCH   1   8
ATOM      8  C   UNL     1       5.159   4.045  16.887  0.00  0.00    +0.000 C 
BRANCH   8   9
ATOM      9  N   UNL     1       3.873   3.330  16.804  0.00  0.00    +0.000 NA
ATOM     10  H   UNL     1       3.593   3.265  15.825  0.00  0.00    +0.000 HD
BRANCH   9  11
ATOM     11  C   UNL     1       2.792   4.046  17.495  0.00  0.00    +0.000 C 
BRANCH  11  12
ATOM     12  C   UNL     1       3.249   5.191  18.439  0.00  0.00    +0.000 C 
BRANCH  12  13
ATOM     13  N   UNL     1       2.219   5.697  19.381  0.00  0.00    +0.000 NA
BRANCH  13  15
ATOM     14  C   UNL     1       1.150   3.869  20.778  0.00  0.00    +0.000 C 
ATOM     15  C   UNL     1       2.238   4.932  20.644  0.00  0.00    +0.000 C 
ENDBRANCH  13  15
BRANCH  13  16
ATOM     16  C   UNL     1       2.355   7.156  19.575  0.00  0.00    +0.000 C 
ATOM     17  C   UNL     1       2.248   8.024  18.322  0.00  0.00    +0.000 C 
ENDBRANCH  13  16
ENDBRANCH  12  13
ENDBRANCH  11  12
ENDBRANCH   9  11
ENDBRANCH   8   9
ENDBRANCH   1   8
BRANCH   7  18
ATOM     18  O   UNL     1       7.660   5.454  16.412  0.00  0.00    +0.000 OA
BRANCH  18  19
ATOM     19  C   UNL     1       7.239   6.775  16.760  0.00  0.00    +0.000 C 
BRANCH  19  20
ATOM     20  C   UNL     1       7.910   7.418  17.985  0.00  0.00    +0.000 C 
ATOM     21  O   UNL     1       8.155   6.770  19.000  0.00  0.00    +0.000 OA
ATOM     22  N   UNL     1       8.189   8.759  17.863  0.00  0.00    +0.000 N 
ATOM     23  H   UNL     1       7.995   9.217  16.975  0.00  0.00    +0.000 HD
BRANCH  22  24
ATOM     24  C   UNL     1       8.852   9.516  18.907  0.00  0.00    +0.000 C 
BRANCH  24  25
ATOM     25  C   UNL     1       9.383  10.830  18.386  0.00  0.00    +0.000 A 
ATOM     26  C   UNL     1       8.512  11.804  17.881  0.00  0.00    +0.000 A 
ATOM     27  C   UNL     1       9.006  13.028  17.425  0.00  0.00    +0.000 A 
ATOM     28  C   UNL     1      10.373  13.294  17.472  0.00  0.00    +0.000 A 
ATOM     29  C   UNL     1      11.249  12.333  17.976  0.00  0.00    +0.000 A 
ATOM     30  C   UNL     1      10.756  11.111  18.433  0.00  0.00    +0.000 A 
ENDBRANCH  24  25
ENDBRANCH  22  24
ENDBRANCH  19  20
ENDBRANCH  18  19
ENDBRANCH   7  18
TORSDOF 12
ENDMDL
MODEL 4
REMARK VINA RESULT:      -6.7      2.287      7.729
REMARK  Name = 
REMARK  14 active torsions:
REMARK  status: ('A' for Active; 'I' for Inactive)
REMARK    1  A    between atoms: C_1  and  C_2
REMARK    2  A    between atoms: C_2  and  N_3
REMARK    3  A    between atoms: N_3  and  C_4
REMARK    4  A    between atoms: N_3  and  C_6
REMARK    5  A    between atoms: C_4  and  C_5
REMARK    6  A    between atoms: C_6  and  C_7
REMARK    7  A    between atoms: C_7  and  N_8
REMARK    8  A    between atoms: N_8  and  C_9
REMARK    9  A    between atoms: C_9  and  C_10
REMARK   10  A    between atoms: C_16  and  O_17
REMARK   11  A    between atoms: O_17  and  C_18
REMARK   12  A    between atoms: C_18  and  C_19
REMARK   13  A    between atoms: N_21  and  C_22
REMARK   14  A    between atoms: C_22  and  C_23
REMARK                            x       y       z     vdW  Elec       q    Type
REMARK                         _______ _______ _______ _____ _____    ______ ____
ROOT
ATOM      1  C   UNL     1       6.762   5.688  17.210  0.00  0.00    +0.000 A 
ATOM      2  C   UNL     1       7.148   5.693  15.852  0.00  0.00    +0.000 A 
ATOM      3  C   UNL     1       6.636   4.764  14.954  0.00  0.00    +0.000 A 
ATOM      4 BR   UNL     1       7.161   4.815  13.140  0.00  0.00    +0.000 Br
ATOM      5  C   UNL     1       5.747   3.794  15.388  0.00  0.00    +0.000 A 
ATOM      6  C   UNL     1       5.370   3.756  16.730  0.00  0.00    +0.000 A 
ATOM      7  C   UNL     1       5.863   4.693  17.652  0.00  0.00    +0.000 A 
ENDROOT
BRANCH   1   8
ATOM      8  C   UNL     1       7.387   6.724  18.128  0.00  0.00    +0.000 C 
BRANCH   8   9
ATOM      9  N   UNL     1       7.726   7.969  17.416  0.00  0.00    +0.000 NA
ATOM     10  H   UNL     1       8.399   7.755  16.678  0.00  0.00    +0.000 HD
BRANCH   9  11
ATOM     11  C   UNL     1       8.376   8.953  18.292  0.00  0.00    +0.000 C 
BRANCH  11  12
ATOM     12  C   UNL     1       8.441  10.401  17.734  0.00  0.00    +0.000 C 
BRANCH  12  13
ATOM     13  N   UNL     1       9.291  11.348  18.499  0.00  0.00    +0.000 NA
BRANCH  13  15
ATOM     14  C   UNL     1      10.391  11.751  20.749  0.00  0.00    +0.000 C 
ATOM     15  C   UNL     1       9.460  10.894  19.894  0.00  0.00    +0.000 C 
ENDBRANCH  13  15
BRANCH  13  16
ATOM     16  C   UNL     1      10.569  11.591  17.799  0.00  0.00    +0.000 C 
ATOM     17  C   UNL     1      10.798  13.004  17.266  0.00  0.00    +0.000 C 
ENDBRANCH  13  16
ENDBRANCH  12  13
ENDBRANCH  11  12
ENDBRANCH   9  11
ENDBRANCH   8   9
ENDBRANCH   1   8
BRANCH   7  18
ATOM     18  O   UNL     1       5.556   4.635  18.991  0.00  0.00    +0.000 OA
BRANCH  18  19
ATOM     19  C   UNL     1       4.480   3.766  19.353  0.00  0.00    +0.000 C 
BRANCH  19  20
ATOM     20  C   UNL     1       3.116   4.423  19.626  0.00  0.00    +0.000 C 
ATOM     21  O   UNL     1       2.064   3.892  19.278  0.00  0.00    +0.000 OA
ATOM     22  N   UNL     1       3.170   5.642  20.260  0.00  0.00    +0.000 N 
ATOM     23  H   UNL     1       4.077   5.997  20.555  0.00  0.00    +0.000 HD
BRANCH  22  24
ATOM     24  C   UNL     1       1.979   6.384  20.627  0.00  0.00    +0.000 C 
BRANCH  24  25
ATOM     25  C   UNL     1       1.817   7.624  19.782  0.00  0.00    +0.000 A 
ATOM     26  C   UNL     1       1.122   8.738  20.272  0.00  0.00    +0.000 A 
ATOM     27  C   UNL     1       0.997   9.893  19.497  0.00  0.00    +0.000 A 
ATOM     28  C   UNL     1       1.569   9.949  18.227  0.00  0.00    +0.000 A 
ATOM     29  C   UNL     1       2.267   8.849  17.731  0.00  0.00    +0.000 A 
ATOM     30  C   UNL     1       2.393   7.696  18.505  0.00  0.00    +0.000 A 
ENDBRANCH  24  25
ENDBRANCH  22  24
ENDBRANCH  19  20
ENDBRANCH  18  19
ENDBRANCH   7  18
TORSDOF 12
ENDMDL
MODEL 5
REMARK VINA RESULT:      -6.7      3.859      7.297
REMARK  Name = 
REMARK  14 active torsions:
REMARK  status: ('A' for Active; 'I' for Inactive)
REMARK    1  A    between atoms: C_1  and  C_2
REMARK    2  A    between atoms: C_2  and  N_3
REMARK    3  A    between atoms: N_3  and  C_4
REMARK    4  A    between atoms: N_3  and  C_6
REMARK    5  A    between atoms: C_4  and  C_5
REMARK    6  A    between atoms: C_6  and  C_7
REMARK    7  A    between atoms: C_7  and  N_8
REMARK    8  A    between atoms: N_8  and  C_9
REMARK    9  A    between atoms: C_9  and  C_10
REMARK   10  A    between atoms: C_16  and  O_17
REMARK   11  A    between atoms: O_17  and  C_18
REMARK   12  A    between atoms: C_18  and  C_19
REMARK   13  A    between atoms: N_21  and  C_22
REMARK   14  A    between atoms: C_22  and  C_23
REMARK                            x       y       z     vdW  Elec       q    Type
REMARK                         _______ _______ _______ _____ _____    ______ ____
ROOT
ATOM      1  C   UNL     1       5.796   5.321  17.034  0.00  0.00    +0.000 A 
ATOM      2  C   UNL     1       6.520   6.531  16.947  0.00  0.00    +0.000 A 
ATOM      3  C   UNL     1       7.306   6.977  18.004  0.00  0.00    +0.000 A 
ATOM      4 BR   UNL     1       8.276   8.589  17.844  0.00  0.00    +0.000 Br
ATOM      5  C   UNL     1       7.373   6.245  19.178  0.00  0.00    +0.000 A 
ATOM      6  C   UNL     1       6.647   5.059  19.294  0.00  0.00    +0.000 A 
ATOM      7  C   UNL     1       5.858   4.582  18.235  0.00  0.00    +0.000 A 
ENDROOT
BRANCH   1   8
ATOM      8  C   UNL     1       4.945   4.919  15.842  0.00  0.00    +0.000 C 
BRANCH   8   9
ATOM      9  N   UNL     1       5.649   5.110  14.562  0.00  0.00    +0.000 NA
ATOM     10  H   UNL     1       5.014   5.556  13.898  0.00  0.00    +0.000 HD
BRANCH   9  11
ATOM     11  C   UNL     1       6.054   3.836  13.952  0.00  0.00    +0.000 C 
BRANCH  11  12
ATOM     12  C   UNL     1       6.777   3.953  12.582  0.00  0.00    +0.000 C 
BRANCH  12  13
ATOM     13  N   UNL     1       6.217   3.122  11.487  0.00  0.00    +0.000 NA
BRANCH  13  15
ATOM     14  C   UNL     1       6.277   0.607  11.158  0.00  0.00    +0.000 C 
ATOM     15  C   UNL     1       7.047   1.922  11.260  0.00  0.00    +0.000 C 
ENDBRANCH  13  15
BRANCH  13  16
ATOM     16  C   UNL     1       4.793   2.814  11.736  0.00  0.00    +0.000 C 
ATOM     17  C   UNL     1       3.779   3.473  10.801  0.00  0.00    +0.000 C 
ENDBRANCH  13  16
ENDBRANCH  12  13
ENDBRANCH  11  12
ENDBRANCH   9  11
ENDBRANCH   8   9
ENDBRANCH   1   8
BRANCH   7  18
ATOM     18  O   UNL     1       5.085   3.451  18.350  0.00  0.00    +0.000 OA
BRANCH  18  19
ATOM     19  C   UNL     1       4.394   3.283  19.590  0.00  0.00    +0.000 C 
BRANCH  19  20
ATOM     20  C   UNL     1       3.066   4.041  19.755  0.00  0.00    +0.000 C 
ATOM     21  O   UNL     1       2.000   3.560  19.378  0.00  0.00    +0.000 OA
ATOM     22  N   UNL     1       3.170   5.285  20.329  0.00  0.00    +0.000 N 
ATOM     23  H   UNL     1       4.082   5.596  20.654  0.00  0.00    +0.000 HD
BRANCH  22  24
ATOM     24  C   UNL     1       2.015   6.121  20.593  0.00  0.00    +0.000 C 
BRANCH  24  25
ATOM     25  C   UNL     1       1.975   7.318  19.673  0.00  0.00    +0.000 A 
ATOM     26  C   UNL     1       1.334   8.501  20.065  0.00  0.00    +0.000 A 
ATOM     27  C   UNL     1       1.323   9.614  19.222  0.00  0.00    +0.000 A 
ATOM     28  C   UNL     1       1.954   9.558  17.981  0.00  0.00    +0.000 A 
ATOM     29  C   UNL     1       2.598   8.388  17.582  0.00  0.00    +0.000 A 
ATOM     30  C   UNL     1       2.611   7.277  18.424  0.00  0.00    +0.000 A 
ENDBRANCH  24  25
ENDBRANCH  22  24
ENDBRANCH  19  20
ENDBRANCH  18  19
ENDBRANCH   7  18
TORSDOF 12
ENDMDL
MODEL 6
REMARK VINA RESULT:      -6.6      2.610      7.666
REMARK  Name = 
REMARK  14 active torsions:
REMARK  status: ('A' for Active; 'I' for Inactive)
REMARK    1  A    between atoms: C_1  and  C_2
REMARK    2  A    between atoms: C_2  and  N_3
REMARK    3  A    between atoms: N_3  and  C_4
REMARK    4  A    between atoms: N_3  and  C_6
REMARK    5  A    between atoms: C_4  and  C_5
REMARK    6  A    between atoms: C_6  and  C_7
REMARK    7  A    between atoms: C_7  and  N_8
REMARK    8  A    between atoms: N_8  and  C_9
REMARK    9  A    between atoms: C_9  and  C_10
REMARK   10  A    between atoms: C_16  and  O_17
REMARK   11  A    between atoms: O_17  and  C_18
REMARK   12  A    between atoms: C_18  and  C_19
REMARK   13  A    between atoms: N_21  and  C_22
REMARK   14  A    between atoms: C_22  and  C_23
REMARK                            x       y       z     vdW  Elec       q    Type
REMARK                         _______ _______ _______ _____ _____    ______ ____
ROOT
ATOM      1  C   UNL     1       6.615   5.514  17.133  0.00  0.00    +0.000 A 
ATOM      2  C   UNL     1       6.940   5.204  15.794  0.00  0.00    +0.000 A 
ATOM      3  C   UNL     1       6.130   4.372  15.031  0.00  0.00    +0.000 A 
ATOM      4 BR   UNL     1       6.586   3.996  13.237  0.00  0.00    +0.000 Br
ATOM      5  C   UNL     1       4.991   3.810  15.586  0.00  0.00    +0.000 A 
ATOM      6  C   UNL     1       4.664   4.084  16.914  0.00  0.00    +0.000 A 
ATOM      7  C   UNL     1       5.460   4.933  17.699  0.00  0.00    +0.000 A 
ENDROOT
BRANCH   1   8
ATOM      8  C   UNL     1       7.567   6.413  17.902  0.00  0.00    +0.000 C 
BRANCH   8   9
ATOM      9  N   UNL     1       7.615   7.779  17.352  0.00  0.00    +0.000 NA
ATOM     10  H   UNL     1       8.112   7.759  16.460  0.00  0.00    +0.000 HD
BRANCH   9  11
ATOM     11  C   UNL     1       8.359   8.704  18.218  0.00  0.00    +0.000 C 
BRANCH  11  12
ATOM     12  C   UNL     1       8.492  10.156  17.681  0.00  0.00    +0.000 C 
BRANCH  12  13
ATOM     13  N   UNL     1       9.467  11.018  18.396  0.00  0.00    +0.000 NA
BRANCH  13  15
ATOM     14  C   UNL     1       7.940  12.759  17.359  0.00  0.00    +0.000 C 
ATOM     15  C   UNL     1       9.261  12.440  18.057  0.00  0.00    +0.000 C 
ENDBRANCH  13  15
BRANCH  13  16
ATOM     16  C   UNL     1       9.439  10.750  19.849  0.00  0.00    +0.000 C 
ATOM     17  C   UNL     1      10.169  11.751  20.743  0.00  0.00    +0.000 C 
ENDBRANCH  13  16
ENDBRANCH  12  13
ENDBRANCH  11  12
ENDBRANCH   9  11
ENDBRANCH   8   9
ENDBRANCH   1   8
BRANCH   7  18
ATOM     18  O   UNL     1       5.192   5.166  19.028  0.00  0.00    +0.000 OA
BRANCH  18  19
ATOM     19  C   UNL     1       4.270   4.269  19.651  0.00  0.00    +0.000 C 
BRANCH  19  20
ATOM     20  C   UNL     1       3.045   4.897  20.338  0.00  0.00    +0.000 C 
ATOM     21  O   UNL     1       2.317   4.242  21.080  0.00  0.00    +0.000 OA
ATOM     22  N   UNL     1       2.824   6.221  20.043  0.00  0.00    +0.000 N 
ATOM     23  H   UNL     1       3.495   6.707  19.454  0.00  0.00    +0.000 HD
BRANCH  22  24
ATOM     24  C   UNL     1       1.736   6.980  20.630  0.00  0.00    +0.000 C 
BRANCH  24  25
ATOM     25  C   UNL     1       1.510   8.281  19.900  0.00  0.00    +0.000 A 
ATOM     26  C   UNL     1       2.053   8.490  18.625  0.00  0.00    +0.000 A 
ATOM     27  C   UNL     1       1.819   9.686  17.942  0.00  0.00    +0.000 A 
ATOM     28  C   UNL     1       1.038  10.683  18.523  0.00  0.00    +0.000 A 
ATOM     29  C   UNL     1       0.489  10.484  19.789  0.00  0.00    +0.000 A 
ATOM     30  C   UNL     1       0.722   9.290  20.471  0.00  0.00    +0.000 A 
ENDBRANCH  24  25
ENDBRANCH  22  24
ENDBRANCH  19  20
ENDBRANCH  18  19
ENDBRANCH   7  18
TORSDOF 12
ENDMDL
MODEL 7
REMARK VINA RESULT:      -6.6      7.830     11.005
REMARK  Name = 
REMARK  14 active torsions:
REMARK  status: ('A' for Active; 'I' for Inactive)
REMARK    1  A    between atoms: C_1  and  C_2
REMARK    2  A    between atoms: C_2  and  N_3
REMARK    3  A    between atoms: N_3  and  C_4
REMARK    4  A    between atoms: N_3  and  C_6
REMARK    5  A    between atoms: C_4  and  C_5
REMARK    6  A    between atoms: C_6  and  C_7
REMARK    7  A    between atoms: C_7  and  N_8
REMARK    8  A    between atoms: N_8  and  C_9
REMARK    9  A    between atoms: C_9  and  C_10
REMARK   10  A    between atoms: C_16  and  O_17
REMARK   11  A    between atoms: O_17  and  C_18
REMARK   12  A    between atoms: C_18  and  C_19
REMARK   13  A    between atoms: N_21  and  C_22
REMARK   14  A    between atoms: C_22  and  C_23
REMARK                            x       y       z     vdW  Elec       q    Type
REMARK                         _______ _______ _______ _____ _____    ______ ____
ROOT
ATOM      1  C   UNL     1      -1.649  11.988  18.999  0.00  0.00    +0.000 A 
ATOM      2  C   UNL     1      -3.044  12.023  18.779  0.00  0.00    +0.000 A 
ATOM      3  C   UNL     1      -3.671  11.070  17.985  0.00  0.00    +0.000 A 
ATOM      4 BR   UNL     1      -5.542  11.136  17.730  0.00  0.00    +0.000 Br
ATOM      5  C   UNL     1      -2.926  10.074  17.374  0.00  0.00    +0.000 A 
ATOM      6  C   UNL     1      -1.544  10.035  17.558  0.00  0.00    +0.000 A 
ATOM      7  C   UNL     1      -0.891  10.979  18.367  0.00  0.00    +0.000 A 
ENDROOT
BRANCH   1   8
ATOM      8  C   UNL     1      -1.042  13.082  19.861  0.00  0.00    +0.000 C 
BRANCH   8   9
ATOM      9  N   UNL     1      -2.062  13.830  20.616  0.00  0.00    +0.000 NA
ATOM     10  H   UNL     1      -1.836  14.825  20.581  0.00  0.00    +0.000 HD
BRANCH   9  11
ATOM     11  C   UNL     1      -2.083  13.463  22.039  0.00  0.00    +0.000 C 
BRANCH  11  12
ATOM     12  C   UNL     1      -3.269  12.560  22.476  0.00  0.00    +0.000 C 
BRANCH  12  13
ATOM     13  N   UNL     1      -4.609  13.200  22.446  0.00  0.00    +0.000 NA
BRANCH  13  15
ATOM     14  C   UNL     1      -6.897  12.424  21.674  0.00  0.00    +0.000 C 
ATOM     15  C   UNL     1      -5.426  12.659  21.342  0.00  0.00    +0.000 C 
ENDBRANCH  13  15
BRANCH  13  16
ATOM     16  C   UNL     1      -5.266  13.105  23.766  0.00  0.00    +0.000 C 
ATOM     17  C   UNL     1      -4.487  12.388  24.867  0.00  0.00    +0.000 C 
ENDBRANCH  13  16
ENDBRANCH  12  13
ENDBRANCH  11  12
ENDBRANCH   9  11
ENDBRANCH   8   9
ENDBRANCH   1   8
BRANCH   7  18
ATOM     18  O   UNL     1       0.476  10.999  18.511  0.00  0.00    +0.000 OA
BRANCH  18  19
ATOM     19  C   UNL     1       1.040   9.959  19.314  0.00  0.00    +0.000 C 
BRANCH  19  20
ATOM     20  C   UNL     1       1.794   8.841  18.575  0.00  0.00    +0.000 C 
ATOM     21  O   UNL     1       2.014   8.902  17.368  0.00  0.00    +0.000 OA
ATOM     22  N   UNL     1       2.176   7.777  19.357  0.00  0.00    +0.000 N 
ATOM     23  H   UNL     1       1.994   7.818  20.357  0.00  0.00    +0.000 HD
BRANCH  22  24
ATOM     24  C   UNL     1       2.926   6.653  18.832  0.00  0.00    +0.000 C 
BRANCH  24  25
ATOM     25  C   UNL     1       2.225   5.343  19.101  0.00  0.00    +0.000 A 
ATOM     26  C   UNL     1       1.861   4.981  20.405  0.00  0.00    +0.000 A 
ATOM     27  C   UNL     1       1.189   3.781  20.646  0.00  0.00    +0.000 A 
ATOM     28  C   UNL     1       0.870   2.932  19.588  0.00  0.00    +0.000 A 
ATOM     29  C   UNL     1       1.224   3.284  18.286  0.00  0.00    +0.000 A 
ATOM     30  C   UNL     1       1.894   4.483  18.044  0.00  0.00    +0.000 A 
ENDBRANCH  24  25
ENDBRANCH  22  24
ENDBRANCH  19  20
ENDBRANCH  18  19
ENDBRANCH   7  18
TORSDOF 12
ENDMDL
MODEL 8
REMARK VINA RESULT:      -6.6      4.724      6.943
REMARK  Name = 
REMARK  14 active torsions:
REMARK  status: ('A' for Active; 'I' for Inactive)
REMARK    1  A    between atoms: C_1  and  C_2
REMARK    2  A    between atoms: C_2  and  N_3
REMARK    3  A    between atoms: N_3  and  C_4
REMARK    4  A    between atoms: N_3  and  C_6
REMARK    5  A    between atoms: C_4  and  C_5
REMARK    6  A    between atoms: C_6  and  C_7
REMARK    7  A    between atoms: C_7  and  N_8
REMARK    8  A    between atoms: N_8  and  C_9
REMARK    9  A    between atoms: C_9  and  C_10
REMARK   10  A    between atoms: C_16  and  O_17
REMARK   11  A    between atoms: O_17  and  C_18
REMARK   12  A    between atoms: C_18  and  C_19
REMARK   13  A    between atoms: N_21  and  C_22
REMARK   14  A    between atoms: C_22  and  C_23
REMARK                            x       y       z     vdW  Elec       q    Type
REMARK                         _______ _______ _______ _____ _____    ______ ____
ROOT
ATOM      1  C   UNL     1       3.636   6.018  19.324  0.00  0.00    +0.000 A 
ATOM      2  C   UNL     1       4.837   5.313  19.090  0.00  0.00    +0.000 A 
ATOM      3  C   UNL     1       5.630   5.589  17.983  0.00  0.00    +0.000 A 
ATOM      4 BR   UNL     1       7.240   4.640  17.714  0.00  0.00    +0.000 Br
ATOM      5  C   UNL     1       5.238   6.556  17.070  0.00  0.00    +0.000 A 
ATOM      6  C   UNL     1       4.043   7.248  17.269  0.00  0.00    +0.000 A 
ATOM      7  C   UNL     1       3.234   6.995  18.388  0.00  0.00    +0.000 A 
ENDROOT
BRANCH   1   8
ATOM      8  C   UNL     1       2.818   5.637  20.546  0.00  0.00    +0.000 C 
BRANCH   8   9
ATOM      9  N   UNL     1       1.412   5.352  20.211  0.00  0.00    +0.000 NA
ATOM     10  H   UNL     1       0.809   5.956  20.771  0.00  0.00    +0.000 HD
BRANCH   9  11
ATOM     11  C   UNL     1       1.029   3.972  20.539  0.00  0.00    +0.000 C 
BRANCH  11  12
ATOM     12  C   UNL     1       1.011   2.983  19.342  0.00  0.00    +0.000 C 
BRANCH  12  13
ATOM     13  N   UNL     1       2.156   2.040  19.268  0.00  0.00    +0.000 NA
BRANCH  13  15
ATOM     14  C   UNL     1       2.478   3.364  17.129  0.00  0.00    +0.000 C 
ATOM     15  C   UNL     1       2.832   2.133  17.959  0.00  0.00    +0.000 C 
ENDBRANCH  13  15
BRANCH  13  16
ATOM     16  C   UNL     1       3.066   2.230  20.417  0.00  0.00    +0.000 C 
ATOM     17  C   UNL     1       4.554   2.002  20.153  0.00  0.00    +0.000 C 
ENDBRANCH  13  16
ENDBRANCH  12  13
ENDBRANCH  11  12
ENDBRANCH   9  11
ENDBRANCH   8   9
ENDBRANCH   1   8
BRANCH   7  18
ATOM     18  O   UNL     1       2.022   7.619  18.570  0.00  0.00    +0.000 OA
BRANCH  18  19
ATOM     19  C   UNL     1       1.712   8.672  17.655  0.00  0.00    +0.000 C 
BRANCH  19  20
ATOM     20  C   UNL     1       0.784   9.787  18.167  0.00  0.00    +0.000 C 
ATOM     21  O   UNL     1      -0.394   9.853  17.823  0.00  0.00    +0.000 OA
ATOM     22  N   UNL     1       1.374  10.700  19.007  0.00  0.00    +0.000 N 
ATOM     23  H   UNL     1       2.344  10.555  19.279  0.00  0.00    +0.000 HD
BRANCH  22  24
ATOM     24  C   UNL     1       0.639  11.795  19.610  0.00  0.00    +0.000 C 
BRANCH  24  25
ATOM     25  C   UNL     1       0.006  11.384  20.918  0.00  0.00    +0.000 A 
ATOM     26  C   UNL     1      -1.058  12.118  21.460  0.00  0.00    +0.000 A 
ATOM     27  C   UNL     1      -1.657  11.718  22.656  0.00  0.00    +0.000 A 
ATOM     28  C   UNL     1      -1.203  10.581  23.322  0.00  0.00    +0.000 A 
ATOM     29  C   UNL     1      -0.148   9.841  22.790  0.00  0.00    +0.000 A 
ATOM     30  C   UNL     1       0.450  10.239  21.594  0.00  0.00    +0.000 A 
ENDBRANCH  24  25
ENDBRANCH  22  24
ENDBRANCH  19  20
ENDBRANCH  18  19
ENDBRANCH   7  18
TORSDOF 12
ENDMDL
MODEL 9
REMARK VINA RESULT:      -6.6      4.728      6.851
REMARK  Name = 
REMARK  14 active torsions:
REMARK  status: ('A' for Active; 'I' for Inactive)
REMARK    1  A    between atoms: C_1  and  C_2
REMARK    2  A    between atoms: C_2  and  N_3
REMARK    3  A    between atoms: N_3  and  C_4
REMARK    4  A    between atoms: N_3  and  C_6
REMARK    5  A    between atoms: C_4  and  C_5
REMARK    6  A    between atoms: C_6  and  C_7
REMARK    7  A    between atoms: C_7  and  N_8
REMARK    8  A    between atoms: N_8  and  C_9
REMARK    9  A    between atoms: C_9  and  C_10
REMARK   10  A    between atoms: C_16  and  O_17
REMARK   11  A    between atoms: O_17  and  C_18
REMARK   12  A    between atoms: C_18  and  C_19
REMARK   13  A    between atoms: N_21  and  C_22
REMARK   14  A    between atoms: C_22  and  C_23
REMARK                            x       y       z     vdW  Elec       q    Type
REMARK                         _______ _______ _______ _____ _____    ______ ____
ROOT
ATOM      1  C   UNL     1       2.090   7.492  19.707  0.00  0.00    +0.000 A 
ATOM      2  C   UNL     1       1.301   8.411  20.434  0.00  0.00    +0.000 A 
ATOM      3  C   UNL     1       0.817   9.571  19.841  0.00  0.00    +0.000 A 
ATOM      4 BR   UNL     1      -0.252  10.767  20.838  0.00  0.00    +0.000 Br
ATOM      5  C   UNL     1       1.123   9.857  18.520  0.00  0.00    +0.000 A 
ATOM      6  C   UNL     1       1.921   8.975  17.790  0.00  0.00    +0.000 A 
ATOM      7  C   UNL     1       2.409   7.790  18.365  0.00  0.00    +0.000 A 
ENDROOT
BRANCH   1   8
ATOM      8  C   UNL     1       2.597   6.261  20.439  0.00  0.00    +0.000 C 
BRANCH   8   9
ATOM      9  N   UNL     1       1.507   5.502  21.077  0.00  0.00    +0.000 NA
ATOM     10  H   UNL     1       1.824   5.173  21.990  0.00  0.00    +0.000 HD
BRANCH   9  11
ATOM     11  C   UNL     1       1.141   4.302  20.311  0.00  0.00    +0.000 C 
BRANCH  11  12
ATOM     12  C   UNL     1       2.044   3.061  20.546  0.00  0.00    +0.000 C 
BRANCH  12  13
ATOM     13  N   UNL     1       2.140   2.111  19.409  0.00  0.00    +0.000 NA
BRANCH  13  15
ATOM     14  C   UNL     1       2.425   3.318  17.196  0.00  0.00    +0.000 C 
ATOM     15  C   UNL     1       1.486   2.662  18.205  0.00  0.00    +0.000 C 
ENDBRANCH  13  15
BRANCH  13  16
ATOM     16  C   UNL     1       3.542   1.702  19.182  0.00  0.00    +0.000 C 
ATOM     17  C   UNL     1       4.565   2.172  20.215  0.00  0.00    +0.000 C 
ENDBRANCH  13  16
ENDBRANCH  12  13
ENDBRANCH  11  12
ENDBRANCH   9  11
ENDBRANCH   8   9
ENDBRANCH   1   8
BRANCH   7  18
ATOM     18  O   UNL     1       3.248   6.939  17.686  0.00  0.00    +0.000 OA
BRANCH  18  19
ATOM     19  C   UNL     1       4.372   7.543  17.041  0.00  0.00    +0.000 C 
BRANCH  19  20
ATOM     20  C   UNL     1       5.562   6.627  16.714  0.00  0.00    +0.000 C 
ATOM     21  O   UNL     1       6.722   7.028  16.785  0.00  0.00    +0.000 OA
ATOM     22  N   UNL     1       5.229   5.352  16.321  0.00  0.00    +0.000 N 
ATOM     23  H   UNL     1       4.249   5.082  16.327  0.00  0.00    +0.000 HD
BRANCH  22  24
ATOM     24  C   UNL     1       6.227   4.346  16.010  0.00  0.00    +0.000 C 
BRANCH  24  25
ATOM     25  C   UNL     1       6.502   4.279  14.527  0.00  0.00    +0.000 A 
ATOM     26  C   UNL     1       5.780   3.404  13.704  0.00  0.00    +0.000 A 
ATOM     27  C   UNL     1       6.020   3.365  12.329  0.00  0.00    +0.000 A 
ATOM     28  C   UNL     1       6.980   4.200  11.761  0.00  0.00    +0.000 A 
ATOM     29  C   UNL     1       7.701   5.078  12.569  0.00  0.00    +0.000 A 
ATOM     30  C   UNL     1       7.461   5.119  13.943  0.00  0.00    +0.000 A 
ENDBRANCH  24  25
ENDBRANCH  22  24
ENDBRANCH  19  20
ENDBRANCH  18  19
ENDBRANCH   7  18
TORSDOF 12
ENDMDL
