MODEL 1
REMARK VINA RESULT:      -5.3      0.000      0.000
REMARK  Name = 
REMARK  3 active torsions:
REMARK  status: ('A' for Active; 'I' for Inactive)
REMARK    1  A    between atoms: C_1  and  C_2
REMARK    2  A    between atoms: C_4  and  O_5
REMARK    3  A    between atoms: C_7  and  C_8
REMARK                            x       y       z     vdW  Elec       q    Type
REMARK                         _______ _______ _______ _____ _____    ______ ____
ROOT
ATOM      1  C   UNL     1       1.581   4.313  17.736  0.00  0.00    +0.000 C 
ATOM      2  C   UNL     1       2.976   4.148  18.263  0.00  0.00    +0.000 A 
ATOM      3  C   UNL     1       3.323   3.030  18.990  0.00  0.00    +0.000 A 
ATOM      4  C   UNL     1       4.624   2.989  19.417  0.00  0.00    +0.000 A 
ATOM      5  N   UNL     1       5.528   3.938  19.174  0.00  0.00    +0.000 NA
ATOM      6  C   UNL     1       5.119   5.002  18.458  0.00  0.00    +0.000 A 
ATOM      7  N   UNL     1       3.858   5.133  17.989  0.00  0.00    +0.000 NA
ENDROOT
BRANCH   6   8
ATOM      8  C   UNL     1       6.146   6.076  18.193  0.00  0.00    +0.000 C 
ATOM      9  C   UNL     1       7.611   5.929  18.526  0.00  0.00    +0.000 C 
ATOM     10  C   UNL     1       7.165   5.828  17.099  0.00  0.00    +0.000 C 
ENDBRANCH   6   8
BRANCH   4  11
ATOM     11  O   UNL     1       5.095   1.935  20.148  0.00  0.00    +0.000 OA
ATOM     12  H   UNL     1       4.833   2.060  21.069  0.00  0.00    +0.000 HD
ENDBRANCH   4  11
TORSDOF 2
ENDMDL
MODEL 2
REMARK VINA RESULT:      -5.3      1.877      4.120
REMARK  Name = 
REMARK  3 active torsions:
REMARK  status: ('A' for Active; 'I' for Inactive)
REMARK    1  A    between atoms: C_1  and  C_2
REMARK    2  A    between atoms: C_4  and  O_5
REMARK    3  A    between atoms: C_7  and  C_8
REMARK                            x       y       z     vdW  Elec       q    Type
REMARK                         _______ _______ _______ _____ _____    ______ ____
ROOT
ATOM      1  C   UNL     1       6.878   4.690  15.212  0.00  0.00    +0.000 C 
ATOM      2  C   UNL     1       6.443   4.605  16.645  0.00  0.00    +0.000 A 
ATOM      3  C   UNL     1       7.232   5.121  17.650  0.00  0.00    +0.000 A 
ATOM      4  C   UNL     1       6.731   4.987  18.918  0.00  0.00    +0.000 A 
ATOM      5  N   UNL     1       5.568   4.404  19.210  0.00  0.00    +0.000 NA
ATOM      6  C   UNL     1       4.850   3.922  18.179  0.00  0.00    +0.000 A 
ATOM      7  N   UNL     1       5.257   4.010  16.894  0.00  0.00    +0.000 NA
ENDROOT
BRANCH   6   8
ATOM      8  C   UNL     1       3.538   3.257  18.520  0.00  0.00    +0.000 C 
ATOM      9  C   UNL     1       2.574   2.734  17.483  0.00  0.00    +0.000 C 
ATOM     10  C   UNL     1       3.411   1.768  18.268  0.00  0.00    +0.000 C 
ENDBRANCH   6   8
BRANCH   4  11
ATOM     11  O   UNL     1       7.417   5.455  20.002  0.00  0.00    +0.000 OA
ATOM     12  H   UNL     1       7.003   5.106  20.801  0.00  0.00    +0.000 HD
ENDBRANCH   4  11
TORSDOF 2
ENDMDL
MODEL 3
REMARK VINA RESULT:      -5.3      1.853      3.960
REMARK  Name = 
REMARK  3 active torsions:
REMARK  status: ('A' for Active; 'I' for Inactive)
REMARK    1  A    between atoms: C_1  and  C_2
REMARK    2  A    between atoms: C_4  and  O_5
REMARK    3  A    between atoms: C_7  and  C_8
REMARK                            x       y       z     vdW  Elec       q    Type
REMARK                         _______ _______ _______ _____ _____    ______ ____
ROOT
ATOM      1  C   UNL     1       6.279   4.036  15.330  0.00  0.00    +0.000 C 
ATOM      2  C   UNL     1       5.844   4.453  16.703  0.00  0.00    +0.000 A 
ATOM      3  C   UNL     1       6.776   4.738  17.678  0.00  0.00    +0.000 A 
ATOM      4  C   UNL     1       6.262   5.109  18.892  0.00  0.00    +0.000 A 
ATOM      5  N   UNL     1       4.959   5.201  19.162  0.00  0.00    +0.000 NA
ATOM      6  C   UNL     1       4.106   4.907  18.163  0.00  0.00    +0.000 A 
ATOM      7  N   UNL     1       4.516   4.535  16.930  0.00  0.00    +0.000 NA
ENDROOT
BRANCH   6   8
ATOM      8  C   UNL     1       2.633   5.006  18.479  0.00  0.00    +0.000 C 
ATOM      9  C   UNL     1       1.558   4.334  17.661  0.00  0.00    +0.000 C 
ATOM     10  C   UNL     1       1.934   3.765  18.995  0.00  0.00    +0.000 C 
ENDBRANCH   6   8
BRANCH   4  11
ATOM     11  O   UNL     1       7.079   5.418  19.942  0.00  0.00    +0.000 OA
ATOM     12  H   UNL     1       7.917   5.745  19.592  0.00  0.00    +0.000 HD
ENDBRANCH   4  11
TORSDOF 2
ENDMDL
MODEL 4
REMARK VINA RESULT:      -5.3      0.997      1.206
REMARK  Name = 
REMARK  3 active torsions:
REMARK  status: ('A' for Active; 'I' for Inactive)
REMARK    1  A    between atoms: C_1  and  C_2
REMARK    2  A    between atoms: C_4  and  O_5
REMARK    3  A    between atoms: C_7  and  C_8
REMARK                            x       y       z     vdW  Elec       q    Type
REMARK                         _______ _______ _______ _____ _____    ______ ____
ROOT
ATOM      1  C   UNL     1       2.247   5.819  17.895  0.00  0.00    +0.000 C 
ATOM      2  C   UNL     1       3.551   5.161  18.234  0.00  0.00    +0.000 A 
ATOM      3  C   UNL     1       3.579   3.990  18.960  0.00  0.00    +0.000 A 
ATOM      4  C   UNL     1       4.826   3.481  19.208  0.00  0.00    +0.000 A 
ATOM      5  N   UNL     1       5.964   4.044  18.799  0.00  0.00    +0.000 NA
ATOM      6  C   UNL     1       5.862   5.187  18.096  0.00  0.00    +0.000 A 
ATOM      7  N   UNL     1       4.677   5.765  17.797  0.00  0.00    +0.000 NA
ENDROOT
BRANCH   6   8
ATOM      8  C   UNL     1       7.155   5.822  17.643  0.00  0.00    +0.000 C 
ATOM      9  C   UNL     1       7.327   7.307  17.435  0.00  0.00    +0.000 C 
ATOM     10  C   UNL     1       7.924   6.658  18.647  0.00  0.00    +0.000 C 
ENDBRANCH   6   8
BRANCH   4  11
ATOM     11  O   UNL     1       4.991   2.326  19.917  0.00  0.00    +0.000 OA
ATOM     12  H   UNL     1       4.723   1.584  19.360  0.00  0.00    +0.000 HD
ENDBRANCH   4  11
TORSDOF 2
ENDMDL
MODEL 5
REMARK VINA RESULT:      -5.2      2.282      2.794
REMARK  Name = 
REMARK  3 active torsions:
REMARK  status: ('A' for Active; 'I' for Inactive)
REMARK    1  A    between atoms: C_1  and  C_2
REMARK    2  A    between atoms: C_4  and  O_5
REMARK    3  A    between atoms: C_7  and  C_8
REMARK                            x       y       z     vdW  Elec       q    Type
REMARK                         _______ _______ _______ _____ _____    ______ ____
ROOT
ATOM      1  C   UNL     1       2.311   4.784  18.043  0.00  0.00    +0.000 C 
ATOM      2  C   UNL     1       3.808   4.746  17.967  0.00  0.00    +0.000 A 
ATOM      3  C   UNL     1       4.576   5.144  19.040  0.00  0.00    +0.000 A 
ATOM      4  C   UNL     1       5.931   5.064  18.854  0.00  0.00    +0.000 A 
ATOM      5  N   UNL     1       6.514   4.640  17.733  0.00  0.00    +0.000 NA
ATOM      6  C   UNL     1       5.703   4.268  16.725  0.00  0.00    +0.000 A 
ATOM      7  N   UNL     1       4.354   4.307  16.813  0.00  0.00    +0.000 NA
ENDROOT
BRANCH   6   8
ATOM      8  C   UNL     1       6.371   3.796  15.456  0.00  0.00    +0.000 C 
ATOM      9  C   UNL     1       5.830   4.076  14.075  0.00  0.00    +0.000 C 
ATOM     10  C   UNL     1       7.023   4.837  14.569  0.00  0.00    +0.000 C 
ENDBRANCH   6   8
BRANCH   4  11
ATOM     11  O   UNL     1       6.802   5.430  19.840  0.00  0.00    +0.000 OA
ATOM     12  H   UNL     1       7.316   6.186  19.531  0.00  0.00    +0.000 HD
ENDBRANCH   4  11
TORSDOF 2
ENDMDL
MODEL 6
REMARK VINA RESULT:      -5.2      1.761      3.855
REMARK  Name = 
REMARK  3 active torsions:
REMARK  status: ('A' for Active; 'I' for Inactive)
REMARK    1  A    between atoms: C_1  and  C_2
REMARK    2  A    between atoms: C_4  and  O_5
REMARK    3  A    between atoms: C_7  and  C_8
REMARK                            x       y       z     vdW  Elec       q    Type
REMARK                         _______ _______ _______ _____ _____    ______ ____
ROOT
ATOM      1  C   UNL     1       5.094   6.555  15.827  0.00  0.00    +0.000 C 
ATOM      2  C   UNL     1       5.228   5.757  17.090  0.00  0.00    +0.000 A 
ATOM      3  C   UNL     1       6.276   5.985  17.955  0.00  0.00    +0.000 A 
ATOM      4  C   UNL     1       6.294   5.196  19.075  0.00  0.00    +0.000 A 
ATOM      5  N   UNL     1       5.387   4.260  19.352  0.00  0.00    +0.000 NA
ATOM      6  C   UNL     1       4.392   4.090  18.461  0.00  0.00    +0.000 A 
ATOM      7  N   UNL     1       4.285   4.821  17.329  0.00  0.00    +0.000 NA
ENDROOT
BRANCH   6   8
ATOM      8  C   UNL     1       3.374   3.022  18.779  0.00  0.00    +0.000 C 
ATOM      9  C   UNL     1       2.386   2.486  17.771  0.00  0.00    +0.000 C 
ATOM     10  C   UNL     1       3.569   1.652  18.163  0.00  0.00    +0.000 C 
ENDBRANCH   6   8
BRANCH   4  11
ATOM     11  O   UNL     1       7.280   5.322  20.013  0.00  0.00    +0.000 OA
ATOM     12  H   UNL     1       7.070   6.076  20.578  0.00  0.00    +0.000 HD
ENDBRANCH   4  11
TORSDOF 2
ENDMDL
MODEL 7
REMARK VINA RESULT:      -5.2      3.210      4.605
REMARK  Name = 
REMARK  3 active torsions:
REMARK  status: ('A' for Active; 'I' for Inactive)
REMARK    1  A    between atoms: C_1  and  C_2
REMARK    2  A    between atoms: C_4  and  O_5
REMARK    3  A    between atoms: C_7  and  C_8
REMARK                            x       y       z     vdW  Elec       q    Type
REMARK                         _______ _______ _______ _____ _____    ______ ____
ROOT
ATOM      1  C   UNL     1       7.931   8.918  17.433  0.00  0.00    +0.000 C 
ATOM      2  C   UNL     1       7.810   7.470  17.808  0.00  0.00    +0.000 A 
ATOM      3  C   UNL     1       8.129   7.046  19.079  0.00  0.00    +0.000 A 
ATOM      4  C   UNL     1       7.978   5.703  19.305  0.00  0.00    +0.000 A 
ATOM      5  N   UNL     1       7.559   4.828  18.391  0.00  0.00    +0.000 NA
ATOM      6  C   UNL     1       7.266   5.312  17.170  0.00  0.00    +0.000 A 
ATOM      7  N   UNL     1       7.379   6.621  16.851  0.00  0.00    +0.000 NA
ENDROOT
BRANCH   6   8
ATOM      8  C   UNL     1       6.799   4.313  16.138  0.00  0.00    +0.000 C 
ATOM      9  C   UNL     1       5.363   4.186  15.692  0.00  0.00    +0.000 C 
ATOM     10  C   UNL     1       6.362   4.841  14.787  0.00  0.00    +0.000 C 
ENDBRANCH   6   8
BRANCH   4  11
ATOM     11  O   UNL     1       8.261   5.155  20.524  0.00  0.00    +0.000 OA
ATOM     12  H   UNL     1       8.548   4.243  20.390  0.00  0.00    +0.000 HD
ENDBRANCH   4  11
TORSDOF 2
ENDMDL
MODEL 8
REMARK VINA RESULT:      -5.2      1.405      1.573
REMARK  Name = 
REMARK  3 active torsions:
REMARK  status: ('A' for Active; 'I' for Inactive)
REMARK    1  A    between atoms: C_1  and  C_2
REMARK    2  A    between atoms: C_4  and  O_5
REMARK    3  A    between atoms: C_7  and  C_8
REMARK                            x       y       z     vdW  Elec       q    Type
REMARK                         _______ _______ _______ _____ _____    ______ ____
ROOT
ATOM      1  C   UNL     1       1.147   4.312  20.469  0.00  0.00    +0.000 C 
ATOM      2  C   UNL     1       2.551   4.043  20.013  0.00  0.00    +0.000 A 
ATOM      3  C   UNL     1       3.168   2.848  20.311  0.00  0.00    +0.000 A 
ATOM      4  C   UNL     1       4.448   2.715  19.841  0.00  0.00    +0.000 A 
ATOM      5  N   UNL     1       5.095   3.648  19.142  0.00  0.00    +0.000 NA
ATOM      6  C   UNL     1       4.431   4.791  18.889  0.00  0.00    +0.000 A 
ATOM      7  N   UNL     1       3.165   5.016  19.306  0.00  0.00    +0.000 NA
ENDROOT
BRANCH   6   8
ATOM      8  C   UNL     1       5.174   5.846  18.105  0.00  0.00    +0.000 C 
ATOM      9  C   UNL     1       6.214   5.529  17.058  0.00  0.00    +0.000 C 
ATOM     10  C   UNL     1       4.853   5.990  16.631  0.00  0.00    +0.000 C 
ENDBRANCH   6   8
BRANCH   4  11
ATOM     11  O   UNL     1       5.170   1.578  20.068  0.00  0.00    +0.000 OA
ATOM     12  H   UNL     1       6.106   1.779  19.942  0.00  0.00    +0.000 HD
ENDBRANCH   4  11
TORSDOF 2
ENDMDL
MODEL 9
REMARK VINA RESULT:      -5.2      2.137      4.129
REMARK  Name = 
REMARK  3 active torsions:
REMARK  status: ('A' for Active; 'I' for Inactive)
REMARK    1  A    between atoms: C_1  and  C_2
REMARK    2  A    between atoms: C_4  and  O_5
REMARK    3  A    between atoms: C_7  and  C_8
REMARK                            x       y       z     vdW  Elec       q    Type
REMARK                         _______ _______ _______ _____ _____    ______ ____
ROOT
ATOM      1  C   UNL     1       6.087   4.154  14.241  0.00  0.00    +0.000 C 
ATOM      2  C   UNL     1       5.980   4.245  15.735  0.00  0.00    +0.000 A 
ATOM      3  C   UNL     1       7.092   4.518  16.502  0.00  0.00    +0.000 A 
ATOM      4  C   UNL     1       6.873   4.578  17.853  0.00  0.00    +0.000 A 
ATOM      5  N   UNL     1       5.687   4.390  18.433  0.00  0.00    +0.000 NA
ATOM      6  C   UNL     1       4.646   4.125  17.622  0.00  0.00    +0.000 A 
ATOM      7  N   UNL     1       4.760   4.049  16.277  0.00  0.00    +0.000 NA
ENDROOT
BRANCH   6   8
ATOM      8  C   UNL     1       3.308   3.905  18.287  0.00  0.00    +0.000 C 
ATOM      9  C   UNL     1       1.989   4.001  17.560  0.00  0.00    +0.000 C 
ATOM     10  C   UNL     1       2.534   2.654  17.926  0.00  0.00    +0.000 C 
ENDBRANCH   6   8
BRANCH   4  11
ATOM     11  O   UNL     1       7.891   4.842  18.723  0.00  0.00    +0.000 OA
ATOM     12  H   UNL     1       7.652   5.614  19.251  0.00  0.00    +0.000 HD
ENDBRANCH   4  11
TORSDOF 2
ENDMDL
