MODEL 1
REMARK VINA RESULT:      -5.5      0.000      0.000
REMARK  Name = 
REMARK  4 active torsions:
REMARK  status: ('A' for Active; 'I' for Inactive)
REMARK    1  A    between atoms: N_1  and  C_2
REMARK    2  A    between atoms: C_2  and  C_3
REMARK    3  A    between atoms: C_3  and  C_4
REMARK    4  A    between atoms: C_4  and  N_5
REMARK                            x       y       z     vdW  Elec       q    Type
REMARK                         _______ _______ _______ _____ _____    ______ ____
ROOT
ATOM      1  N   UNL     1       4.498   2.917  17.386  0.00  0.00    +0.000 N 
ATOM      2  C   UNL     1       4.900   4.142  16.859  0.00  0.00    +0.000 A 
ATOM      3  C   UNL     1       4.305   5.335  17.211  0.00  0.00    +0.000 A 
ATOM      4  C   UNL     1       4.823   6.472  16.643  0.00  0.00    +0.000 A 
ATOM      5  N   UNL     1       5.872   6.466  15.809  0.00  0.00    +0.000 NA
ATOM      6  C   UNL     1       6.413   5.274  15.560  0.00  0.00    +0.000 A 
ATOM      7  N   UNL     1       7.514   5.253  14.728  0.00  0.00    +0.000 N 
ATOM      8  N   UNL     1       5.955   4.105  16.028  0.00  0.00    +0.000 NA
ATOM      9  H   UNL     1       4.961   2.189  16.845  0.00  0.00    +0.000 HD
ATOM     10  H   UNL     1       7.514   6.084  14.155  0.00  0.00    +0.000 HD
ATOM     11  H   UNL     1       7.577   4.359  14.265  0.00  0.00    +0.000 HD
ENDROOT
BRANCH   1  12
ATOM     12  C   UNL     1       3.080   2.713  17.652  0.00  0.00    +0.000 C 
BRANCH  12  13
ATOM     13  C   UNL     1       2.883   1.979  18.977  0.00  0.00    +0.000 C 
BRANCH  13  14
ATOM     14  C   UNL     1       3.794   2.536  20.073  0.00  0.00    +0.000 C 
BRANCH  14  15
ATOM     15  N   UNL     1       5.063   1.820  20.136  0.00  0.00    +0.000 NA
ATOM     16  H   UNL     1       5.832   2.481  20.024  0.00  0.00    +0.000 HD
ATOM     17  H   UNL     1       5.133   1.173  19.350  0.00  0.00    +0.000 HD
ENDBRANCH  14  15
ENDBRANCH  13  14
ENDBRANCH  12  13
ENDBRANCH   1  12
TORSDOF 4
ENDMDL
MODEL 2
REMARK VINA RESULT:      -5.3      2.086      5.280
REMARK  Name = 
REMARK  4 active torsions:
REMARK  status: ('A' for Active; 'I' for Inactive)
REMARK    1  A    between atoms: N_1  and  C_2
REMARK    2  A    between atoms: C_2  and  C_3
REMARK    3  A    between atoms: C_3  and  C_4
REMARK    4  A    between atoms: C_4  and  N_5
REMARK                            x       y       z     vdW  Elec       q    Type
REMARK                         _______ _______ _______ _____ _____    ______ ____
ROOT
ATOM      1  N   UNL     1       4.625   3.432  18.027  0.00  0.00    +0.000 N 
ATOM      2  C   UNL     1       3.399   3.199  18.646  0.00  0.00    +0.000 A 
ATOM      3  C   UNL     1       2.253   2.899  17.941  0.00  0.00    +0.000 A 
ATOM      4  C   UNL     1       1.122   2.659  18.678  0.00  0.00    +0.000 A 
ATOM      5  N   UNL     1       1.099   2.675  20.019  0.00  0.00    +0.000 NA
ATOM      6  C   UNL     1       2.262   2.928  20.618  0.00  0.00    +0.000 A 
ATOM      7  N   UNL     1       2.263   2.917  21.998  0.00  0.00    +0.000 N 
ATOM      8  N   UNL     1       3.408   3.219  19.989  0.00  0.00    +0.000 NA
ATOM      9  H   UNL     1       5.256   3.800  18.735  0.00  0.00    +0.000 HD
ATOM     10  H   UNL     1       1.325   3.079  22.334  0.00  0.00    +0.000 HD
ATOM     11  H   UNL     1       3.000   3.514  22.345  0.00  0.00    +0.000 HD
ENDROOT
BRANCH   1  12
ATOM     12  C   UNL     1       4.629   4.122  16.744  0.00  0.00    +0.000 C 
BRANCH  12  13
ATOM     13  C   UNL     1       5.913   3.818  15.974  0.00  0.00    +0.000 C 
BRANCH  13  14
ATOM     14  C   UNL     1       7.086   4.664  16.475  0.00  0.00    +0.000 C 
BRANCH  14  15
ATOM     15  N   UNL     1       7.482   4.291  17.829  0.00  0.00    +0.000 NA
ATOM     16  H   UNL     1       8.497   4.343  17.913  0.00  0.00    +0.000 HD
ATOM     17  H   UNL     1       7.236   3.316  18.003  0.00  0.00    +0.000 HD
ENDBRANCH  14  15
ENDBRANCH  13  14
ENDBRANCH  12  13
ENDBRANCH   1  12
TORSDOF 4
ENDMDL
MODEL 3
REMARK VINA RESULT:      -5.3      1.365      1.714
REMARK  Name = 
REMARK  4 active torsions:
REMARK  status: ('A' for Active; 'I' for Inactive)
REMARK    1  A    between atoms: N_1  and  C_2
REMARK    2  A    between atoms: C_2  and  C_3
REMARK    3  A    between atoms: C_3  and  C_4
REMARK    4  A    between atoms: C_4  and  N_5
REMARK                            x       y       z     vdW  Elec       q    Type
REMARK                         _______ _______ _______ _____ _____    ______ ____
ROOT
ATOM      1  N   UNL     1       5.600   3.659  18.791  0.00  0.00    +0.000 N 
ATOM      2  C   UNL     1       5.572   4.602  17.766  0.00  0.00    +0.000 A 
ATOM      3  C   UNL     1       4.704   5.673  17.764  0.00  0.00    +0.000 A 
ATOM      4  C   UNL     1       4.805   6.545  16.710  0.00  0.00    +0.000 A 
ATOM      5  N   UNL     1       5.710   6.414  15.730  0.00  0.00    +0.000 NA
ATOM      6  C   UNL     1       6.538   5.375  15.837  0.00  0.00    +0.000 A 
ATOM      7  N   UNL     1       7.497   5.242  14.853  0.00  0.00    +0.000 N 
ATOM      8  N   UNL     1       6.491   4.445  16.800  0.00  0.00    +0.000 NA
ATOM      9  H   UNL     1       6.188   2.889  18.477  0.00  0.00    +0.000 HD
ATOM     10  H   UNL     1       7.193   5.732  14.024  0.00  0.00    +0.000 HD
ATOM     11  H   UNL     1       7.760   4.273  14.759  0.00  0.00    +0.000 HD
ENDROOT
BRANCH   1  12
ATOM     12  C   UNL     1       4.341   3.286  19.421  0.00  0.00    +0.000 C 
BRANCH  12  13
ATOM     13  C   UNL     1       3.794   1.998  18.808  0.00  0.00    +0.000 C 
BRANCH  13  14
ATOM     14  C   UNL     1       2.559   2.263  17.945  0.00  0.00    +0.000 C 
BRANCH  14  15
ATOM     15  N   UNL     1       1.335   1.809  18.598  0.00  0.00    +0.000 NA
ATOM     16  H   UNL     1       0.818   2.615  18.949  0.00  0.00    +0.000 HD
ATOM     17  H   UNL     1       1.571   1.248  19.417  0.00  0.00    +0.000 HD
ENDBRANCH  14  15
ENDBRANCH  13  14
ENDBRANCH  12  13
ENDBRANCH   1  12
TORSDOF 4
ENDMDL
MODEL 4
REMARK VINA RESULT:      -5.3      1.602      1.969
REMARK  Name = 
REMARK  4 active torsions:
REMARK  status: ('A' for Active; 'I' for Inactive)
REMARK    1  A    between atoms: N_1  and  C_2
REMARK    2  A    between atoms: C_2  and  C_3
REMARK    3  A    between atoms: C_3  and  C_4
REMARK    4  A    between atoms: C_4  and  N_5
REMARK                            x       y       z     vdW  Elec       q    Type
REMARK                         _______ _______ _______ _____ _____    ______ ____
ROOT
ATOM      1  N   UNL     1       5.180   3.399  18.214  0.00  0.00    +0.000 N 
ATOM      2  C   UNL     1       5.924   4.461  17.707  0.00  0.00    +0.000 A 
ATOM      3  C   UNL     1       6.331   5.524  18.486  0.00  0.00    +0.000 A 
ATOM      4  C   UNL     1       7.088   6.486  17.867  0.00  0.00    +0.000 A 
ATOM      5  N   UNL     1       7.459   6.416  16.580  0.00  0.00    +0.000 NA
ATOM      6  C   UNL     1       7.059   5.332  15.916  0.00  0.00    +0.000 A 
ATOM      7  N   UNL     1       7.459   5.229  14.599  0.00  0.00    +0.000 N 
ATOM      8  N   UNL     1       6.282   4.362  16.416  0.00  0.00    +0.000 NA
ATOM      9  H   UNL     1       4.860   2.848  17.420  0.00  0.00    +0.000 HD
ATOM     10  H   UNL     1       7.678   6.149  14.244  0.00  0.00    +0.000 HD
ATOM     11  H   UNL     1       6.798   4.668  14.083  0.00  0.00    +0.000 HD
ENDROOT
BRANCH   1  12
ATOM     12  C   UNL     1       4.185   3.681  19.240  0.00  0.00    +0.000 C 
BRANCH  12  13
ATOM     13  C   UNL     1       2.854   4.078  18.603  0.00  0.00    +0.000 C 
BRANCH  13  14
ATOM     14  C   UNL     1       2.313   2.977  17.689  0.00  0.00    +0.000 C 
BRANCH  14  15
ATOM     15  N   UNL     1       2.680   1.649  18.169  0.00  0.00    +0.000 NA
ATOM     16  H   UNL     1       1.837   1.132  18.420  0.00  0.00    +0.000 HD
ATOM     17  H   UNL     1       3.225   1.731  19.028  0.00  0.00    +0.000 HD
ENDBRANCH  14  15
ENDBRANCH  13  14
ENDBRANCH  12  13
ENDBRANCH   1  12
TORSDOF 4
ENDMDL
MODEL 5
REMARK VINA RESULT:      -5.3      2.918      4.982
REMARK  Name = 
REMARK  4 active torsions:
REMARK  status: ('A' for Active; 'I' for Inactive)
REMARK    1  A    between atoms: N_1  and  C_2
REMARK    2  A    between atoms: C_2  and  C_3
REMARK    3  A    between atoms: C_3  and  C_4
REMARK    4  A    between atoms: C_4  and  N_5
REMARK                            x       y       z     vdW  Elec       q    Type
REMARK                         _______ _______ _______ _____ _____    ______ ____
ROOT
ATOM      1  N   UNL     1       7.386   4.684  15.647  0.00  0.00    +0.000 N 
ATOM      2  C   UNL     1       6.904   4.816  16.947  0.00  0.00    +0.000 A 
ATOM      3  C   UNL     1       5.596   4.545  17.287  0.00  0.00    +0.000 A 
ATOM      4  C   UNL     1       5.263   4.683  18.611  0.00  0.00    +0.000 A 
ATOM      5  N   UNL     1       6.144   5.033  19.559  0.00  0.00    +0.000 NA
ATOM      6  C   UNL     1       7.396   5.232  19.147  0.00  0.00    +0.000 A 
ATOM      7  N   UNL     1       8.323   5.561  20.115  0.00  0.00    +0.000 N 
ATOM      8  N   UNL     1       7.810   5.165  17.875  0.00  0.00    +0.000 NA
ATOM      9  H   UNL     1       8.312   5.107  15.623  0.00  0.00    +0.000 HD
ATOM     10  H   UNL     1       7.845   5.953  20.914  0.00  0.00    +0.000 HD
ATOM     11  H   UNL     1       9.073   6.095  19.703  0.00  0.00    +0.000 HD
ENDROOT
BRANCH   1  12
ATOM     12  C   UNL     1       6.498   5.027  14.544  0.00  0.00    +0.000 C 
BRANCH  12  13
ATOM     13  C   UNL     1       5.958   3.763  13.876  0.00  0.00    +0.000 C 
BRANCH  13  14
ATOM     14  C   UNL     1       6.511   3.593  12.459  0.00  0.00    +0.000 C 
BRANCH  14  15
ATOM     15  N   UNL     1       6.105   2.322  11.869  0.00  0.00    +0.000 NA
ATOM     16  H   UNL     1       6.713   1.578  12.212  0.00  0.00    +0.000 HD
ATOM     17  H   UNL     1       6.242   2.352  10.858  0.00  0.00    +0.000 HD
ENDBRANCH  14  15
ENDBRANCH  13  14
ENDBRANCH  12  13
ENDBRANCH   1  12
TORSDOF 4
ENDMDL
MODEL 6
REMARK VINA RESULT:      -5.3      2.338      4.302
REMARK  Name = 
REMARK  4 active torsions:
REMARK  status: ('A' for Active; 'I' for Inactive)
REMARK    1  A    between atoms: N_1  and  C_2
REMARK    2  A    between atoms: C_2  and  C_3
REMARK    3  A    between atoms: C_3  and  C_4
REMARK    4  A    between atoms: C_4  and  N_5
REMARK                            x       y       z     vdW  Elec       q    Type
REMARK                         _______ _______ _______ _____ _____    ______ ____
ROOT
ATOM      1  N   UNL     1       5.905   4.028  16.558  0.00  0.00    +0.000 N 
ATOM      2  C   UNL     1       4.639   4.109  17.133  0.00  0.00    +0.000 A 
ATOM      3  C   UNL     1       3.988   5.307  17.334  0.00  0.00    +0.000 A 
ATOM      4  C   UNL     1       2.731   5.240  17.878  0.00  0.00    +0.000 A 
ATOM      5  N   UNL     1       2.121   4.086  18.184  0.00  0.00    +0.000 NA
ATOM      6  C   UNL     1       2.806   2.976  17.914  0.00  0.00    +0.000 A 
ATOM      7  N   UNL     1       2.180   1.778  18.193  0.00  0.00    +0.000 N 
ATOM      8  N   UNL     1       4.053   2.936  17.426  0.00  0.00    +0.000 NA
ATOM      9  H   UNL     1       6.233   3.072  16.682  0.00  0.00    +0.000 HD
ATOM     10  H   UNL     1       1.462   1.930  18.886  0.00  0.00    +0.000 HD
ATOM     11  H   UNL     1       2.871   1.065  18.376  0.00  0.00    +0.000 HD
ENDROOT
BRANCH   1  12
ATOM     12  C   UNL     1       6.868   5.079  16.858  0.00  0.00    +0.000 C 
BRANCH  12  13
ATOM     13  C   UNL     1       7.699   4.712  18.087  0.00  0.00    +0.000 C 
BRANCH  13  14
ATOM     14  C   UNL     1       7.778   5.870  19.083  0.00  0.00    +0.000 C 
BRANCH  14  15
ATOM     15  N   UNL     1       8.047   5.401  20.438  0.00  0.00    +0.000 NA
ATOM     16  H   UNL     1       8.759   4.672  20.410  0.00  0.00    +0.000 HD
ATOM     17  H   UNL     1       7.210   4.962  20.822  0.00  0.00    +0.000 HD
ENDBRANCH  14  15
ENDBRANCH  13  14
ENDBRANCH  12  13
ENDBRANCH   1  12
TORSDOF 4
ENDMDL
MODEL 7
REMARK VINA RESULT:      -5.3      2.850      5.246
REMARK  Name = 
REMARK  4 active torsions:
REMARK  status: ('A' for Active; 'I' for Inactive)
REMARK    1  A    between atoms: N_1  and  C_2
REMARK    2  A    between atoms: C_2  and  C_3
REMARK    3  A    between atoms: C_3  and  C_4
REMARK    4  A    between atoms: C_4  and  N_5
REMARK                            x       y       z     vdW  Elec       q    Type
REMARK                         _______ _______ _______ _____ _____    ______ ____
ROOT
ATOM      1  N   UNL     1       4.990   4.508  19.174  0.00  0.00    +0.000 N 
ATOM      2  C   UNL     1       3.828   3.776  18.939  0.00  0.00    +0.000 A 
ATOM      3  C   UNL     1       3.651   3.002  17.812  0.00  0.00    +0.000 A 
ATOM      4  C   UNL     1       2.472   2.305  17.723  0.00  0.00    +0.000 A 
ATOM      5  N   UNL     1       1.530   2.327  18.677  0.00  0.00    +0.000 NA
ATOM      6  C   UNL     1       1.805   3.066  19.751  0.00  0.00    +0.000 A 
ATOM      7  N   UNL     1       0.860   3.075  20.757  0.00  0.00    +0.000 N 
ATOM      8  N   UNL     1       2.903   3.816  19.913  0.00  0.00    +0.000 NA
ATOM      9  H   UNL     1       4.805   5.122  19.965  0.00  0.00    +0.000 HD
ATOM     10  H   UNL     1      -0.038   2.819  20.372  0.00  0.00    +0.000 HD
ATOM     11  H   UNL     1       0.923   3.935  21.280  0.00  0.00    +0.000 HD
ENDROOT
BRANCH   1  12
ATOM     12  C   UNL     1       5.664   5.116  18.035  0.00  0.00    +0.000 C 
BRANCH  12  13
ATOM     13  C   UNL     1       7.169   4.861  18.103  0.00  0.00    +0.000 C 
BRANCH  13  14
ATOM     14  C   UNL     1       7.876   5.889  18.989  0.00  0.00    +0.000 C 
BRANCH  14  15
ATOM     15  N   UNL     1       7.940   5.452  20.379  0.00  0.00    +0.000 NA
ATOM     16  H   UNL     1       8.394   4.540  20.429  0.00  0.00    +0.000 HD
ATOM     17  H   UNL     1       6.995   5.315  20.740  0.00  0.00    +0.000 HD
ENDBRANCH  14  15
ENDBRANCH  13  14
ENDBRANCH  12  13
ENDBRANCH   1  12
TORSDOF 4
ENDMDL
MODEL 8
REMARK VINA RESULT:      -5.2      1.199      1.477
REMARK  Name = 
REMARK  4 active torsions:
REMARK  status: ('A' for Active; 'I' for Inactive)
REMARK    1  A    between atoms: N_1  and  C_2
REMARK    2  A    between atoms: C_2  and  C_3
REMARK    3  A    between atoms: C_3  and  C_4
REMARK    4  A    between atoms: C_4  and  N_5
REMARK                            x       y       z     vdW  Elec       q    Type
REMARK                         _______ _______ _______ _____ _____    ______ ____
ROOT
ATOM      1  N   UNL     1       5.575   3.558  18.820  0.00  0.00    +0.000 N 
ATOM      2  C   UNL     1       5.700   4.620  17.927  0.00  0.00    +0.000 A 
ATOM      3  C   UNL     1       5.143   5.859  18.161  0.00  0.00    +0.000 A 
ATOM      4  C   UNL     1       5.372   6.825  17.214  0.00  0.00    +0.000 A 
ATOM      5  N   UNL     1       6.119   6.621  16.120  0.00  0.00    +0.000 NA
ATOM      6  C   UNL     1       6.655   5.407  15.998  0.00  0.00    +0.000 A 
ATOM      7  N   UNL     1       7.453   5.190  14.893  0.00  0.00    +0.000 N 
ATOM      8  N   UNL     1       6.456   4.386  16.841  0.00  0.00    +0.000 NA
ATOM      9  H   UNL     1       5.911   2.723  18.346  0.00  0.00    +0.000 HD
ATOM     10  H   UNL     1       7.214   5.856  14.173  0.00  0.00    +0.000 HD
ATOM     11  H   UNL     1       7.446   4.210  14.652  0.00  0.00    +0.000 HD
ENDROOT
BRANCH   1  12
ATOM     12  C   UNL     1       4.324   3.417  19.554  0.00  0.00    +0.000 C 
BRANCH  12  13
ATOM     13  C   UNL     1       3.183   3.052  18.606  0.00  0.00    +0.000 C 
BRANCH  13  14
ATOM     14  C   UNL     1       3.462   1.743  17.864  0.00  0.00    +0.000 C 
BRANCH  14  15
ATOM     15  N   UNL     1       4.281   0.835  18.659  0.00  0.00    +0.000 NA
ATOM     16  H   UNL     1       4.929   0.338  18.049  0.00  0.00    +0.000 HD
ATOM     17  H   UNL     1       3.690   0.119  19.083  0.00  0.00    +0.000 HD
ENDBRANCH  14  15
ENDBRANCH  13  14
ENDBRANCH  12  13
ENDBRANCH   1  12
TORSDOF 4
ENDMDL
MODEL 9
REMARK VINA RESULT:      -5.2      2.527      2.785
REMARK  Name = 
REMARK  4 active torsions:
REMARK  status: ('A' for Active; 'I' for Inactive)
REMARK    1  A    between atoms: N_1  and  C_2
REMARK    2  A    between atoms: C_2  and  C_3
REMARK    3  A    between atoms: C_3  and  C_4
REMARK    4  A    between atoms: C_4  and  N_5
REMARK                            x       y       z     vdW  Elec       q    Type
REMARK                         _______ _______ _______ _____ _____    ______ ____
ROOT
ATOM      1  N   UNL     1       4.079   4.610  18.643  0.00  0.00    +0.000 N 
ATOM      2  C   UNL     1       5.294   5.271  18.477  0.00  0.00    +0.000 A 
ATOM      3  C   UNL     1       5.492   6.234  17.511  0.00  0.00    +0.000 A 
ATOM      4  C   UNL     1       6.728   6.829  17.480  0.00  0.00    +0.000 A 
ATOM      5  N   UNL     1       7.708   6.538  18.348  0.00  0.00    +0.000 NA
ATOM      6  C   UNL     1       7.413   5.628  19.276  0.00  0.00    +0.000 A 
ATOM      7  N   UNL     1       8.399   5.340  20.197  0.00  0.00    +0.000 N 
ATOM      8  N   UNL     1       6.255   4.960  19.363  0.00  0.00    +0.000 NA
ATOM      9  H   UNL     1       4.240   3.838  19.287  0.00  0.00    +0.000 HD
ATOM     10  H   UNL     1       9.299   5.587  19.811  0.00  0.00    +0.000 HD
ATOM     11  H   UNL     1       8.277   4.402  20.548  0.00  0.00    +0.000 HD
ENDROOT
BRANCH   1  12
ATOM     12  C   UNL     1       3.295   4.300  17.455  0.00  0.00    +0.000 C 
BRANCH  12  13
ATOM     13  C   UNL     1       2.684   2.903  17.564  0.00  0.00    +0.000 C 
BRANCH  13  14
ATOM     14  C   UNL     1       3.051   2.228  18.887  0.00  0.00    +0.000 C 
BRANCH  14  15
ATOM     15  N   UNL     1       4.250   1.406  18.760  0.00  0.00    +0.000 NA
ATOM     16  H   UNL     1       4.411   1.188  17.777  0.00  0.00    +0.000 HD
ATOM     17  H   UNL     1       4.103   0.510  19.226  0.00  0.00    +0.000 HD
ENDBRANCH  14  15
ENDBRANCH  13  14
ENDBRANCH  12  13
ENDBRANCH   1  12
TORSDOF 4
ENDMDL
