MODEL 1
REMARK VINA RESULT:      -8.6      0.000      0.000
REMARK  Name = 
REMARK  8 active torsions:
REMARK  status: ('A' for Active; 'I' for Inactive)
REMARK    1  A    between atoms: C_2  and  C_11
REMARK    2  A    between atoms: N_3  and  C_4
REMARK    3  A    between atoms: C_4  and  C_5
REMARK    4  A    between atoms: C_11  and  C_12
REMARK    5  A    between atoms: C_11  and  N_19
REMARK    6  A    between atoms: N_19  and  C_20
REMARK    7  A    between atoms: C_20  and  C_21
REMARK    8  A    between atoms: C_26  and  C_28
REMARK                            x       y       z     vdW  Elec       q    Type
REMARK                         _______ _______ _______ _____ _____    ______ ____
ROOT
ATOM      1  C   UNL     1       5.661   6.204  17.354  0.00  0.00    +0.000 C 
ENDROOT
BRANCH   1   2
ATOM      2  C   UNL     1       5.998   5.387  16.118  0.00  0.00    +0.000 A 
ATOM      3  C   UNL     1       7.221   5.579  15.466  0.00  0.00    +0.000 A 
ATOM      4  C   UNL     1       7.467   4.954  14.246  0.00  0.00    +0.000 A 
ATOM      5  C   UNL     1       6.493   4.134  13.698  0.00  0.00    +0.000 A 
ATOM      6  F   UNL     1       6.714   3.570  12.502  0.00  0.00    +0.000 F 
ATOM      7  C   UNL     1       5.288   3.899  14.347  0.00  0.00    +0.000 A 
ATOM      8  C   UNL     1       5.036   4.523  15.567  0.00  0.00    +0.000 A 
ENDBRANCH   1   2
BRANCH   1  10
ATOM      9  O   UNL     1       7.679   6.046  18.845  0.00  0.00    +0.000 OA
ATOM     10  C   UNL     1       7.047   6.753  18.054  0.00  0.00    +0.000 C 
ATOM     11  N   UNL     1       7.438   8.086  17.805  0.00  0.00    +0.000 N 
ATOM     12  H   UNL     1       7.211   8.434  16.884  0.00  0.00    +0.000 HD
BRANCH  11  13
ATOM     13  C   UNL     1       8.589   8.735  18.469  0.00  0.00    +0.000 C 
BRANCH  13  14
ATOM     14  C   UNL     1       8.844  10.225  18.169  0.00  0.00    +0.000 A 
ATOM     15  C   UNL     1       7.866  11.115  17.694  0.00  0.00    +0.000 A 
ATOM     16  C   UNL     1       8.169  12.454  17.408  0.00  0.00    +0.000 A 
ATOM     17  C   UNL     1       9.456  12.963  17.612  0.00  0.00    +0.000 A 
ATOM     18  C   UNL     1      10.430  12.124  18.144  0.00  0.00    +0.000 A 
ATOM     19  C   UNL     1      10.122  10.783  18.424  0.00  0.00    +0.000 A 
ENDBRANCH  13  14
ENDBRANCH  11  13
ENDBRANCH   1  10
BRANCH   1  20
ATOM     20  N   UNL     1       4.447   5.667  18.067  0.00  0.00    +0.000 N 
ATOM     21  C   UNL     1       4.618   4.561  18.913  0.00  0.00    +0.000 C 
ATOM     22  O   UNL     1       5.735   4.064  19.067  0.00  0.00    +0.000 OA
BRANCH  21  23
ATOM     23  C   UNL     1       3.465   3.934  19.635  0.00  0.00    +0.000 A 
ATOM     24  C   UNL     1       2.875   2.810  19.069  0.00  0.00    +0.000 A 
ATOM     25  N   UNL     1       1.826   2.156  19.639  0.00  0.00    +0.000 NA
ATOM     26  C   UNL     1       1.401   2.668  20.815  0.00  0.00    +0.000 A 
ATOM     27  C   UNL     1       1.997   3.776  21.396  0.00  0.00    +0.000 A 
ATOM     28  N   UNL     1       3.040   4.436  20.831  0.00  0.00    +0.000 NA
ENDBRANCH  21  23
BRANCH  20  29
ATOM     29  C   UNL     1       3.101   6.117  17.605  0.00  0.00    +0.000 C 
BRANCH  29  30
ATOM     30  C   UNL     1       2.494   7.334  18.284  0.00  0.00    +0.000 A 
ATOM     31  C   UNL     1       2.133   8.574  17.779  0.00  0.00    +0.000 A 
ATOM     32  C   UNL     1       1.582   9.316  18.853  0.00  0.00    +0.000 A 
ATOM     33  C   UNL     1       1.672   8.499  19.953  0.00  0.00    +0.000 A 
ATOM     34  O   UNL     1       2.231   7.304  19.625  0.00  0.00    +0.000 OA
ENDBRANCH  29  30
ENDBRANCH  20  29
ENDBRANCH   1  20
TORSDOF 8
ENDMDL
MODEL 2
REMARK VINA RESULT:      -8.6      2.698      5.963
REMARK  Name = 
REMARK  8 active torsions:
REMARK  status: ('A' for Active; 'I' for Inactive)
REMARK    1  A    between atoms: C_2  and  C_11
REMARK    2  A    between atoms: N_3  and  C_4
REMARK    3  A    between atoms: C_4  and  C_5
REMARK    4  A    between atoms: C_11  and  C_12
REMARK    5  A    between atoms: C_11  and  N_19
REMARK    6  A    between atoms: N_19  and  C_20
REMARK    7  A    between atoms: C_20  and  C_21
REMARK    8  A    between atoms: C_26  and  C_28
REMARK                            x       y       z     vdW  Elec       q    Type
REMARK                         _______ _______ _______ _____ _____    ______ ____
ROOT
ATOM      1  C   UNL     1       6.218   5.318  17.039  0.00  0.00    +0.000 C 
ENDROOT
BRANCH   1   2
ATOM      2  C   UNL     1       6.982   6.450  17.704  0.00  0.00    +0.000 A 
ATOM      3  C   UNL     1       6.969   7.730  17.137  0.00  0.00    +0.000 A 
ATOM      4  C   UNL     1       7.794   8.729  17.648  0.00  0.00    +0.000 A 
ATOM      5  C   UNL     1       8.614   8.440  18.728  0.00  0.00    +0.000 A 
ATOM      6  F   UNL     1       9.440   9.390  19.189  0.00  0.00    +0.000 F 
ATOM      7  C   UNL     1       8.614   7.189  19.330  0.00  0.00    +0.000 A 
ATOM      8  C   UNL     1       7.791   6.186  18.822  0.00  0.00    +0.000 A 
ENDBRANCH   1   2
BRANCH   1  10
ATOM      9  O   UNL     1       5.244   6.072  14.846  0.00  0.00    +0.000 OA
ATOM     10  C   UNL     1       6.206   5.537  15.406  0.00  0.00    +0.000 C 
ATOM     11  N   UNL     1       7.277   5.007  14.654  0.00  0.00    +0.000 N 
ATOM     12  H   UNL     1       8.174   5.017  15.121  0.00  0.00    +0.000 HD
BRANCH  11  13
ATOM     13  C   UNL     1       7.324   5.027  13.177  0.00  0.00    +0.000 C 
BRANCH  13  14
ATOM     14  C   UNL     1       6.735   3.818  12.424  0.00  0.00    +0.000 A 
ATOM     15  C   UNL     1       5.360   3.572  12.274  0.00  0.00    +0.000 A 
ATOM     16  C   UNL     1       4.886   2.434  11.605  0.00  0.00    +0.000 A 
ATOM     17  C   UNL     1       5.770   1.512  11.034  0.00  0.00    +0.000 A 
ATOM     18  C   UNL     1       7.137   1.761  11.108  0.00  0.00    +0.000 A 
ATOM     19  C   UNL     1       7.605   2.900  11.783  0.00  0.00    +0.000 A 
ENDBRANCH  13  14
ENDBRANCH  11  13
ENDBRANCH   1  10
BRANCH   1  20
ATOM     20  N   UNL     1       5.067   4.844  17.888  0.00  0.00    +0.000 N 
ATOM     21  C   UNL     1       4.306   3.762  17.419  0.00  0.00    +0.000 C 
ATOM     22  O   UNL     1       4.591   3.220  16.350  0.00  0.00    +0.000 OA
BRANCH  21  23
ATOM     23  C   UNL     1       3.122   3.244  18.175  0.00  0.00    +0.000 A 
ATOM     24  C   UNL     1       3.347   2.653  19.414  0.00  0.00    +0.000 A 
ATOM     25  N   UNL     1       2.346   2.152  20.189  0.00  0.00    +0.000 NA
ATOM     26  C   UNL     1       1.103   2.284  19.677  0.00  0.00    +0.000 A 
ATOM     27  C   UNL     1       0.868   2.891  18.454  0.00  0.00    +0.000 A 
ATOM     28  N   UNL     1       1.861   3.387  17.672  0.00  0.00    +0.000 NA
ENDBRANCH  21  23
BRANCH  20  29
ATOM     29  C   UNL     1       4.601   5.723  18.999  0.00  0.00    +0.000 C 
BRANCH  29  30
ATOM     30  C   UNL     1       3.561   6.783  18.672  0.00  0.00    +0.000 A 
ATOM     31  C   UNL     1       3.344   7.522  17.518  0.00  0.00    +0.000 A 
ATOM     32  C   UNL     1       2.213   8.342  17.757  0.00  0.00    +0.000 A 
ATOM     33  C   UNL     1       1.830   8.079  19.049  0.00  0.00    +0.000 A 
ATOM     34  O   UNL     1       2.643   7.148  19.616  0.00  0.00    +0.000 OA
ENDBRANCH  29  30
ENDBRANCH  20  29
ENDBRANCH   1  20
TORSDOF 8
ENDMDL
MODEL 3
REMARK VINA RESULT:      -8.5      0.576      1.199
REMARK  Name = 
REMARK  8 active torsions:
REMARK  status: ('A' for Active; 'I' for Inactive)
REMARK    1  A    between atoms: C_2  and  C_11
REMARK    2  A    between atoms: N_3  and  C_4
REMARK    3  A    between atoms: C_4  and  C_5
REMARK    4  A    between atoms: C_11  and  C_12
REMARK    5  A    between atoms: C_11  and  N_19
REMARK    6  A    between atoms: N_19  and  C_20
REMARK    7  A    between atoms: C_20  and  C_21
REMARK    8  A    between atoms: C_26  and  C_28
REMARK                            x       y       z     vdW  Elec       q    Type
REMARK                         _______ _______ _______ _____ _____    ______ ____
ROOT
ATOM      1  C   UNL     1       5.692   6.043  17.380  0.00  0.00    +0.000 C 
ENDROOT
BRANCH   1   2
ATOM      2  C   UNL     1       6.011   5.267  16.113  0.00  0.00    +0.000 A 
ATOM      3  C   UNL     1       7.271   5.390  15.518  0.00  0.00    +0.000 A 
ATOM      4  C   UNL     1       7.516   4.812  14.274  0.00  0.00    +0.000 A 
ATOM      5  C   UNL     1       6.500   4.107  13.646  0.00  0.00    +0.000 A 
ATOM      6  F   UNL     1       6.724   3.590  12.430  0.00  0.00    +0.000 F 
ATOM      7  C   UNL     1       5.255   3.940  14.237  0.00  0.00    +0.000 A 
ATOM      8  C   UNL     1       5.005   4.517  15.480  0.00  0.00    +0.000 A 
ENDBRANCH   1   2
BRANCH   1  10
ATOM      9  O   UNL     1       7.712   5.781  18.855  0.00  0.00    +0.000 OA
ATOM     10  C   UNL     1       7.089   6.535  18.100  0.00  0.00    +0.000 C 
ATOM     11  N   UNL     1       7.503   7.871  17.911  0.00  0.00    +0.000 N 
ATOM     12  H   UNL     1       7.278   8.265  17.007  0.00  0.00    +0.000 HD
BRANCH  11  13
ATOM     13  C   UNL     1       8.666   8.469  18.599  0.00  0.00    +0.000 C 
BRANCH  13  14
ATOM     14  C   UNL     1       8.838   9.998  18.521  0.00  0.00    +0.000 A 
ATOM     15  C   UNL     1       9.754  10.732  19.294  0.00  0.00    +0.000 A 
ATOM     16  C   UNL     1       9.841  12.129  19.201  0.00  0.00    +0.000 A 
ATOM     17  C   UNL     1       9.033  12.845  18.309  0.00  0.00    +0.000 A 
ATOM     18  C   UNL     1       8.162  12.141  17.484  0.00  0.00    +0.000 A 
ATOM     19  C   UNL     1       8.078  10.742  17.585  0.00  0.00    +0.000 A 
ENDBRANCH  13  14
ENDBRANCH  11  13
ENDBRANCH   1  10
BRANCH   1  20
ATOM     20  N   UNL     1       4.467   5.505  18.073  0.00  0.00    +0.000 N 
ATOM     21  C   UNL     1       4.620   4.380  18.898  0.00  0.00    +0.000 C 
ATOM     22  O   UNL     1       5.730   3.869  19.051  0.00  0.00    +0.000 OA
BRANCH  21  23
ATOM     23  C   UNL     1       3.455   3.751  19.599  0.00  0.00    +0.000 A 
ATOM     24  C   UNL     1       3.104   4.244  20.851  0.00  0.00    +0.000 A 
ATOM     25  N   UNL     1       2.062   3.753  21.576  0.00  0.00    +0.000 NA
ATOM     26  C   UNL     1       1.371   2.754  20.984  0.00  0.00    +0.000 A 
ATOM     27  C   UNL     1       1.701   2.272  19.728  0.00  0.00    +0.000 A 
ATOM     28  N   UNL     1       2.743   2.752  19.001  0.00  0.00    +0.000 NA
ENDBRANCH  21  23
BRANCH  20  29
ATOM     29  C   UNL     1       3.130   5.978  17.611  0.00  0.00    +0.000 C 
BRANCH  29  30
ATOM     30  C   UNL     1       2.552   7.217  18.275  0.00  0.00    +0.000 A 
ATOM     31  C   UNL     1       2.286   8.482  17.772  0.00  0.00    +0.000 A 
ATOM     32  C   UNL     1       1.717   9.238  18.827  0.00  0.00    +0.000 A 
ATOM     33  C   UNL     1       1.703   8.402  19.917  0.00  0.00    +0.000 A 
ATOM     34  O   UNL     1       2.215   7.183  19.599  0.00  0.00    +0.000 OA
ENDBRANCH  29  30
ENDBRANCH  20  29
ENDBRANCH   1  20
TORSDOF 8
ENDMDL
MODEL 4
REMARK VINA RESULT:      -8.4      2.500      5.867
REMARK  Name = 
REMARK  8 active torsions:
REMARK  status: ('A' for Active; 'I' for Inactive)
REMARK    1  A    between atoms: C_2  and  C_11
REMARK    2  A    between atoms: N_3  and  C_4
REMARK    3  A    between atoms: C_4  and  C_5
REMARK    4  A    between atoms: C_11  and  C_12
REMARK    5  A    between atoms: C_11  and  N_19
REMARK    6  A    between atoms: N_19  and  C_20
REMARK    7  A    between atoms: C_20  and  C_21
REMARK    8  A    between atoms: C_26  and  C_28
REMARK                            x       y       z     vdW  Elec       q    Type
REMARK                         _______ _______ _______ _____ _____    ______ ____
ROOT
ATOM      1  C   UNL     1       5.956   5.414  16.977  0.00  0.00    +0.000 C 
ENDROOT
BRANCH   1   2
ATOM      2  C   UNL     1       6.784   6.483  17.668  0.00  0.00    +0.000 A 
ATOM      3  C   UNL     1       6.754   7.802  17.199  0.00  0.00    +0.000 A 
ATOM      4  C   UNL     1       7.631   8.749  17.723  0.00  0.00    +0.000 A 
ATOM      5  C   UNL     1       8.518   8.371  18.718  0.00  0.00    +0.000 A 
ATOM      6  F   UNL     1       9.391   9.273  19.188  0.00  0.00    +0.000 F 
ATOM      7  C   UNL     1       8.538   7.078  19.225  0.00  0.00    +0.000 A 
ATOM      8  C   UNL     1       7.664   6.126  18.704  0.00  0.00    +0.000 A 
ENDBRANCH   1   2
BRANCH   1  10
ATOM      9  O   UNL     1       5.183   6.127  14.693  0.00  0.00    +0.000 OA
ATOM     10  C   UNL     1       6.080   5.581  15.344  0.00  0.00    +0.000 C 
ATOM     11  N   UNL     1       7.189   4.996  14.695  0.00  0.00    +0.000 N 
ATOM     12  H   UNL     1       8.046   4.993  15.231  0.00  0.00    +0.000 HD
BRANCH  11  13
ATOM     13  C   UNL     1       7.352   4.968  13.226  0.00  0.00    +0.000 C 
BRANCH  13  14
ATOM     14  C   UNL     1       6.754   3.771  12.461  0.00  0.00    +0.000 A 
ATOM     15  C   UNL     1       5.377   3.539  12.307  0.00  0.00    +0.000 A 
ATOM     16  C   UNL     1       4.894   2.411  11.626  0.00  0.00    +0.000 A 
ATOM     17  C   UNL     1       5.771   1.487  11.046  0.00  0.00    +0.000 A 
ATOM     18  C   UNL     1       7.140   1.725  11.124  0.00  0.00    +0.000 A 
ATOM     19  C   UNL     1       7.617   2.853  11.811  0.00  0.00    +0.000 A 
ENDBRANCH  13  14
ENDBRANCH  11  13
ENDBRANCH   1  10
BRANCH   1  20
ATOM     20  N   UNL     1       4.707   5.084  17.753  0.00  0.00    +0.000 N 
ATOM     21  C   UNL     1       4.785   4.078  18.729  0.00  0.00    +0.000 C 
ATOM     22  O   UNL     1       5.853   3.501  18.940  0.00  0.00    +0.000 OA
BRANCH  21  23
ATOM     23  C   UNL     1       3.589   3.656  19.524  0.00  0.00    +0.000 A 
ATOM     24  C   UNL     1       2.901   2.519  19.113  0.00  0.00    +0.000 A 
ATOM     25  N   UNL     1       1.805   2.040  19.762  0.00  0.00    +0.000 NA
ATOM     26  C   UNL     1       1.434   2.741  20.856  0.00  0.00    +0.000 A 
ATOM     27  C   UNL     1       2.126   3.863  21.284  0.00  0.00    +0.000 A 
ATOM     28  N   UNL     1       3.217   4.349  20.639  0.00  0.00    +0.000 NA
ENDBRANCH  21  23
BRANCH  20  29
ATOM     29  C   UNL     1       3.403   5.599  17.243  0.00  0.00    +0.000 C 
BRANCH  29  30
ATOM     30  C   UNL     1       2.871   6.890  17.842  0.00  0.00    +0.000 A 
ATOM     31  C   UNL     1       2.307   7.156  19.081  0.00  0.00    +0.000 A 
ATOM     32  C   UNL     1       2.020   8.544  19.118  0.00  0.00    +0.000 A 
ATOM     33  C   UNL     1       2.393   9.033  17.890  0.00  0.00    +0.000 A 
ATOM     34  O   UNL     1       2.898   8.042  17.107  0.00  0.00    +0.000 OA
ENDBRANCH  29  30
ENDBRANCH  20  29
ENDBRANCH   1  20
TORSDOF 8
ENDMDL
MODEL 5
REMARK VINA RESULT:      -8.4      2.502      5.897
REMARK  Name = 
REMARK  8 active torsions:
REMARK  status: ('A' for Active; 'I' for Inactive)
REMARK    1  A    between atoms: C_2  and  C_11
REMARK    2  A    between atoms: N_3  and  C_4
REMARK    3  A    between atoms: C_4  and  C_5
REMARK    4  A    between atoms: C_11  and  C_12
REMARK    5  A    between atoms: C_11  and  N_19
REMARK    6  A    between atoms: N_19  and  C_20
REMARK    7  A    between atoms: C_20  and  C_21
REMARK    8  A    between atoms: C_26  and  C_28
REMARK                            x       y       z     vdW  Elec       q    Type
REMARK                         _______ _______ _______ _____ _____    ______ ____
ROOT
ATOM      1  C   UNL     1       5.937   5.383  16.964  0.00  0.00    +0.000 C 
ENDROOT
BRANCH   1   2
ATOM      2  C   UNL     1       6.759   6.455  17.659  0.00  0.00    +0.000 A 
ATOM      3  C   UNL     1       6.729   7.773  17.190  0.00  0.00    +0.000 A 
ATOM      4  C   UNL     1       7.600   8.723  17.717  0.00  0.00    +0.000 A 
ATOM      5  C   UNL     1       8.484   8.347  18.717  0.00  0.00    +0.000 A 
ATOM      6  F   UNL     1       9.352   9.251  19.191  0.00  0.00    +0.000 F 
ATOM      7  C   UNL     1       8.504   7.054  19.224  0.00  0.00    +0.000 A 
ATOM      8  C   UNL     1       7.635   6.100  18.699  0.00  0.00    +0.000 A 
ENDBRANCH   1   2
BRANCH   1  10
ATOM      9  O   UNL     1       5.162   6.109  14.684  0.00  0.00    +0.000 OA
ATOM     10  C   UNL     1       6.059   5.558  15.331  0.00  0.00    +0.000 C 
ATOM     11  N   UNL     1       7.166   4.974  14.678  0.00  0.00    +0.000 N 
ATOM     12  H   UNL     1       8.024   4.967  15.214  0.00  0.00    +0.000 HD
BRANCH  11  13
ATOM     13  C   UNL     1       7.328   4.953  13.209  0.00  0.00    +0.000 C 
BRANCH  13  14
ATOM     14  C   UNL     1       6.729   3.760  12.439  0.00  0.00    +0.000 A 
ATOM     15  C   UNL     1       5.352   3.550  12.251  0.00  0.00    +0.000 A 
ATOM     16  C   UNL     1       4.867   2.425  11.568  0.00  0.00    +0.000 A 
ATOM     17  C   UNL     1       5.742   1.480  11.020  0.00  0.00    +0.000 A 
ATOM     18  C   UNL     1       7.112   1.694  11.132  0.00  0.00    +0.000 A 
ATOM     19  C   UNL     1       7.591   2.820  11.821  0.00  0.00    +0.000 A 
ENDBRANCH  13  14
ENDBRANCH  11  13
ENDBRANCH   1  10
BRANCH   1  20
ATOM     20  N   UNL     1       4.690   5.044  17.739  0.00  0.00    +0.000 N 
ATOM     21  C   UNL     1       4.760   3.997  18.672  0.00  0.00    +0.000 C 
ATOM     22  O   UNL     1       5.820   3.394  18.848  0.00  0.00    +0.000 OA
BRANCH  21  23
ATOM     23  C   UNL     1       3.565   3.563  19.462  0.00  0.00    +0.000 A 
ATOM     24  C   UNL     1       3.290   4.232  20.649  0.00  0.00    +0.000 A 
ATOM     25  N   UNL     1       2.229   3.926  21.444  0.00  0.00    +0.000 NA
ATOM     26  C   UNL     1       1.440   2.927  20.990  0.00  0.00    +0.000 A 
ATOM     27  C   UNL     1       1.695   2.269  19.798  0.00  0.00    +0.000 A 
ATOM     28  N   UNL     1       2.755   2.565  19.002  0.00  0.00    +0.000 NA
ENDBRANCH  21  23
BRANCH  20  29
ATOM     29  C   UNL     1       3.390   5.601  17.264  0.00  0.00    +0.000 C 
BRANCH  29  30
ATOM     30  C   UNL     1       2.878   6.866  17.935  0.00  0.00    +0.000 A 
ATOM     31  C   UNL     1       2.868   8.185  17.507  0.00  0.00    +0.000 A 
ATOM     32  C   UNL     1       2.237   8.946  18.523  0.00  0.00    +0.000 A 
ATOM     33  C   UNL     1       1.932   8.053  19.521  0.00  0.00    +0.000 A 
ATOM     34  O   UNL     1       2.324   6.796  19.182  0.00  0.00    +0.000 OA
ENDBRANCH  29  30
ENDBRANCH  20  29
ENDBRANCH   1  20
TORSDOF 8
ENDMDL
MODEL 6
REMARK VINA RESULT:      -8.4      0.484      1.061
REMARK  Name = 
REMARK  8 active torsions:
REMARK  status: ('A' for Active; 'I' for Inactive)
REMARK    1  A    between atoms: C_2  and  C_11
REMARK    2  A    between atoms: N_3  and  C_4
REMARK    3  A    between atoms: C_4  and  C_5
REMARK    4  A    between atoms: C_11  and  C_12
REMARK    5  A    between atoms: C_11  and  N_19
REMARK    6  A    between atoms: N_19  and  C_20
REMARK    7  A    between atoms: C_20  and  C_21
REMARK    8  A    between atoms: C_26  and  C_28
REMARK                            x       y       z     vdW  Elec       q    Type
REMARK                         _______ _______ _______ _____ _____    ______ ____
ROOT
ATOM      1  C   UNL     1       5.658   6.160  17.356  0.00  0.00    +0.000 C 
ENDROOT
BRANCH   1   2
ATOM      2  C   UNL     1       5.972   5.349  16.110  0.00  0.00    +0.000 A 
ATOM      3  C   UNL     1       7.252   5.400  15.547  0.00  0.00    +0.000 A 
ATOM      4  C   UNL     1       7.500   4.791  14.320  0.00  0.00    +0.000 A 
ATOM      5  C   UNL     1       6.468   4.127  13.675  0.00  0.00    +0.000 A 
ATOM      6  F   UNL     1       6.698   3.579  12.473  0.00  0.00    +0.000 F 
ATOM      7  C   UNL     1       5.201   4.031  14.233  0.00  0.00    +0.000 A 
ATOM      8  C   UNL     1       4.947   4.640  15.460  0.00  0.00    +0.000 A 
ENDBRANCH   1   2
BRANCH   1  10
ATOM      9  O   UNL     1       7.697   5.955  18.813  0.00  0.00    +0.000 OA
ATOM     10  C   UNL     1       7.057   6.684  18.048  0.00  0.00    +0.000 C 
ATOM     11  N   UNL     1       7.454   8.020  17.823  0.00  0.00    +0.000 N 
ATOM     12  H   UNL     1       7.215   8.390  16.913  0.00  0.00    +0.000 HD
BRANCH  11  13
ATOM     13  C   UNL     1       8.619   8.646  18.484  0.00  0.00    +0.000 C 
BRANCH  13  14
ATOM     14  C   UNL     1       8.830  10.159  18.283  0.00  0.00    +0.000 A 
ATOM     15  C   UNL     1       9.949  10.870  18.747  0.00  0.00    +0.000 A 
ATOM     16  C   UNL     1      10.068  12.256  18.562  0.00  0.00    +0.000 A 
ATOM     17  C   UNL     1       9.084  12.980  17.878  0.00  0.00    +0.000 A 
ATOM     18  C   UNL     1       7.996  12.294  17.349  0.00  0.00    +0.000 A 
ATOM     19  C   UNL     1       7.881  10.907  17.542  0.00  0.00    +0.000 A 
ENDBRANCH  13  14
ENDBRANCH  11  13
ENDBRANCH   1  10
BRANCH   1  20
ATOM     20  N   UNL     1       4.443   5.634  18.075  0.00  0.00    +0.000 N 
ATOM     21  C   UNL     1       4.609   4.526  18.921  0.00  0.00    +0.000 C 
ATOM     22  O   UNL     1       5.722   4.019  19.068  0.00  0.00    +0.000 OA
BRANCH  21  23
ATOM     23  C   UNL     1       3.455   3.910  19.649  0.00  0.00    +0.000 A 
ATOM     24  C   UNL     1       2.864   2.779  19.096  0.00  0.00    +0.000 A 
ATOM     25  N   UNL     1       1.813   2.134  19.673  0.00  0.00    +0.000 NA
ATOM     26  C   UNL     1       1.388   2.661  20.842  0.00  0.00    +0.000 A 
ATOM     27  C   UNL     1       1.985   3.774  21.411  0.00  0.00    +0.000 A 
ATOM     28  N   UNL     1       3.030   4.426  20.838  0.00  0.00    +0.000 NA
ENDBRANCH  21  23
BRANCH  20  29
ATOM     29  C   UNL     1       3.099   6.096  17.622  0.00  0.00    +0.000 C 
BRANCH  29  30
ATOM     30  C   UNL     1       2.479   7.280  18.346  0.00  0.00    +0.000 A 
ATOM     31  C   UNL     1       2.155   7.465  19.682  0.00  0.00    +0.000 A 
ATOM     32  C   UNL     1       1.632   8.776  19.806  0.00  0.00    +0.000 A 
ATOM     33  C   UNL     1       1.636   9.299  18.536  0.00  0.00    +0.000 A 
ATOM     34  O   UNL     1       2.135   8.401  17.644  0.00  0.00    +0.000 OA
ENDBRANCH  29  30
ENDBRANCH  20  29
ENDBRANCH   1  20
TORSDOF 8
ENDMDL
MODEL 7
REMARK VINA RESULT:      -8.3      2.763      6.043
REMARK  Name = 
REMARK  8 active torsions:
REMARK  status: ('A' for Active; 'I' for Inactive)
REMARK    1  A    between atoms: C_2  and  C_11
REMARK    2  A    between atoms: N_3  and  C_4
REMARK    3  A    between atoms: C_4  and  C_5
REMARK    4  A    between atoms: C_11  and  C_12
REMARK    5  A    between atoms: C_11  and  N_19
REMARK    6  A    between atoms: N_19  and  C_20
REMARK    7  A    between atoms: C_20  and  C_21
REMARK    8  A    between atoms: C_26  and  C_28
REMARK                            x       y       z     vdW  Elec       q    Type
REMARK                         _______ _______ _______ _____ _____    ______ ____
ROOT
ATOM      1  C   UNL     1       6.243   5.106  16.933  0.00  0.00    +0.000 C 
ENDROOT
BRANCH   1   2
ATOM      2  C   UNL     1       7.140   6.177  17.529  0.00  0.00    +0.000 A 
ATOM      3  C   UNL     1       7.841   5.922  18.713  0.00  0.00    +0.000 A 
ATOM      4  C   UNL     1       8.534   6.950  19.350  0.00  0.00    +0.000 A 
ATOM      5  C   UNL     1       8.527   8.217  18.788  0.00  0.00    +0.000 A 
ATOM      6  F   UNL     1       9.157   9.214  19.426  0.00  0.00    +0.000 F 
ATOM      7  C   UNL     1       7.871   8.483  17.594  0.00  0.00    +0.000 A 
ATOM      8  C   UNL     1       7.176   7.459  16.954  0.00  0.00    +0.000 A 
ENDBRANCH   1   2
BRANCH   1  10
ATOM      9  O   UNL     1       5.081   5.692  14.782  0.00  0.00    +0.000 OA
ATOM     10  C   UNL     1       6.134   5.312  15.303  0.00  0.00    +0.000 C 
ATOM     11  N   UNL     1       7.244   4.950  14.509  0.00  0.00    +0.000 N 
ATOM     12  H   UNL     1       8.146   5.099  14.940  0.00  0.00    +0.000 HD
BRANCH  11  13
ATOM     13  C   UNL     1       7.229   4.970  13.031  0.00  0.00    +0.000 C 
BRANCH  13  14
ATOM     14  C   UNL     1       6.693   3.723  12.302  0.00  0.00    +0.000 A 
ATOM     15  C   UNL     1       5.329   3.429  12.135  0.00  0.00    +0.000 A 
ATOM     16  C   UNL     1       4.903   2.259  11.489  0.00  0.00    +0.000 A 
ATOM     17  C   UNL     1       5.826   1.350  10.959  0.00  0.00    +0.000 A 
ATOM     18  C   UNL     1       7.183   1.646  11.050  0.00  0.00    +0.000 A 
ATOM     19  C   UNL     1       7.602   2.817  11.701  0.00  0.00    +0.000 A 
ENDBRANCH  13  14
ENDBRANCH  11  13
ENDBRANCH   1  10
BRANCH   1  20
ATOM     20  N   UNL     1       5.121   4.731  17.867  0.00  0.00    +0.000 N 
ATOM     21  C   UNL     1       4.304   3.647  17.512  0.00  0.00    +0.000 C 
ATOM     22  O   UNL     1       4.520   3.023  16.471  0.00  0.00    +0.000 OA
BRANCH  21  23
ATOM     23  C   UNL     1       3.143   3.224  18.356  0.00  0.00    +0.000 A 
ATOM     24  C   UNL     1       3.397   2.832  19.666  0.00  0.00    +0.000 A 
ATOM     25  N   UNL     1       2.419   2.433  20.524  0.00  0.00    +0.000 NA
ATOM     26  C   UNL     1       1.166   2.460  20.019  0.00  0.00    +0.000 A 
ATOM     27  C   UNL     1       0.902   2.869  18.722  0.00  0.00    +0.000 A 
ATOM     28  N   UNL     1       1.873   3.262  17.858  0.00  0.00    +0.000 NA
ENDBRANCH  21  23
BRANCH  20  29
ATOM     29  C   UNL     1       4.737   5.702  18.933  0.00  0.00    +0.000 C 
BRANCH  29  30
ATOM     30  C   UNL     1       3.631   6.696  18.617  0.00  0.00    +0.000 A 
ATOM     31  C   UNL     1       2.440   6.974  19.272  0.00  0.00    +0.000 A 
ATOM     32  C   UNL     1       1.806   8.019  18.556  0.00  0.00    +0.000 A 
ATOM     33  C   UNL     1       2.629   8.291  17.490  0.00  0.00    +0.000 A 
ATOM     34  O   UNL     1       3.728   7.491  17.510  0.00  0.00    +0.000 OA
ENDBRANCH  29  30
ENDBRANCH  20  29
ENDBRANCH   1  20
TORSDOF 8
ENDMDL
MODEL 8
REMARK VINA RESULT:      -8.2      5.945     10.156
REMARK  Name = 
REMARK  8 active torsions:
REMARK  status: ('A' for Active; 'I' for Inactive)
REMARK    1  A    between atoms: C_2  and  C_11
REMARK    2  A    between atoms: N_3  and  C_4
REMARK    3  A    between atoms: C_4  and  C_5
REMARK    4  A    between atoms: C_11  and  C_12
REMARK    5  A    between atoms: C_11  and  N_19
REMARK    6  A    between atoms: N_19  and  C_20
REMARK    7  A    between atoms: C_20  and  C_21
REMARK    8  A    between atoms: C_26  and  C_28
REMARK                            x       y       z     vdW  Elec       q    Type
REMARK                         _______ _______ _______ _____ _____    ______ ____
ROOT
ATOM      1  C   UNL     1       0.165  10.787  19.542  0.00  0.00    +0.000 C 
ENDROOT
BRANCH   1   2
ATOM      2  C   UNL     1      -1.119  10.713  18.733  0.00  0.00    +0.000 A 
ATOM      3  C   UNL     1      -1.173   9.925  17.579  0.00  0.00    +0.000 A 
ATOM      4  C   UNL     1      -2.289   9.980  16.747  0.00  0.00    +0.000 A 
ATOM      5  C   UNL     1      -3.343  10.814  17.086  0.00  0.00    +0.000 A 
ATOM      6  F   UNL     1      -4.396  10.899  16.261  0.00  0.00    +0.000 F 
ATOM      7  C   UNL     1      -3.327  11.576  18.247  0.00  0.00    +0.000 A 
ATOM      8  C   UNL     1      -2.212  11.525  19.081  0.00  0.00    +0.000 A 
ENDBRANCH   1   2
BRANCH   1  10
ATOM      9  O   UNL     1      -0.291   8.997  21.249  0.00  0.00    +0.000 OA
ATOM     10  C   UNL     1       0.425   9.352  20.307  0.00  0.00    +0.000 C 
ATOM     11  N   UNL     1       1.547   8.584  19.924  0.00  0.00    +0.000 N 
ATOM     12  H   UNL     1       1.792   8.644  18.945  0.00  0.00    +0.000 HD
BRANCH  11  13
ATOM     13  C   UNL     1       1.959   7.344  20.614  0.00  0.00    +0.000 C 
BRANCH  13  14
ATOM     14  C   UNL     1       1.827   6.016  19.842  0.00  0.00    +0.000 A 
ATOM     15  C   UNL     1       2.220   5.836  18.506  0.00  0.00    +0.000 A 
ATOM     16  C   UNL     1       2.043   4.609  17.847  0.00  0.00    +0.000 A 
ATOM     17  C   UNL     1       1.492   3.507  18.511  0.00  0.00    +0.000 A 
ATOM     18  C   UNL     1       1.153   3.635  19.854  0.00  0.00    +0.000 A 
ATOM     19  C   UNL     1       1.329   4.867  20.506  0.00  0.00    +0.000 A 
ENDBRANCH  13  14
ENDBRANCH  11  13
ENDBRANCH   1  10
BRANCH   1  20
ATOM     20  N   UNL     1       0.388  12.162  20.116  0.00  0.00    +0.000 N 
ATOM     21  C   UNL     1       0.958  13.137  19.283  0.00  0.00    +0.000 C 
ATOM     22  O   UNL     1       1.249  12.864  18.117  0.00  0.00    +0.000 OA
BRANCH  21  23
ATOM     23  C   UNL     1       1.251  14.521  19.774  0.00  0.00    +0.000 A 
ATOM     24  C   UNL     1       0.229  15.462  19.720  0.00  0.00    +0.000 A 
ATOM     25  N   UNL     1       0.382  16.747  20.143  0.00  0.00    +0.000 NA
ATOM     26  C   UNL     1       1.601  17.047  20.641  0.00  0.00    +0.000 A 
ATOM     27  C   UNL     1       2.618  16.109  20.719  0.00  0.00    +0.000 A 
ATOM     28  N   UNL     1       2.476  14.827  20.293  0.00  0.00    +0.000 NA
ENDBRANCH  21  23
BRANCH  20  29
ATOM     29  C   UNL     1       0.297  12.333  21.595  0.00  0.00    +0.000 C 
BRANCH  29  30
ATOM     30  C   UNL     1      -1.089  12.463  22.206  0.00  0.00    +0.000 A 
ATOM     31  C   UNL     1      -1.805  11.612  23.035  0.00  0.00    +0.000 A 
ATOM     32  C   UNL     1      -3.035  12.252  23.327  0.00  0.00    +0.000 A 
ATOM     33  C   UNL     1      -3.010  13.437  22.633  0.00  0.00    +0.000 A 
ATOM     34  O   UNL     1      -1.845  13.571  21.943  0.00  0.00    +0.000 OA
ENDBRANCH  29  30
ENDBRANCH  20  29
ENDBRANCH   1  20
TORSDOF 8
ENDMDL
MODEL 9
REMARK VINA RESULT:      -8.2      0.905      1.624
REMARK  Name = 
REMARK  8 active torsions:
REMARK  status: ('A' for Active; 'I' for Inactive)
REMARK    1  A    between atoms: C_2  and  C_11
REMARK    2  A    between atoms: N_3  and  C_4
REMARK    3  A    between atoms: C_4  and  C_5
REMARK    4  A    between atoms: C_11  and  C_12
REMARK    5  A    between atoms: C_11  and  N_19
REMARK    6  A    between atoms: N_19  and  C_20
REMARK    7  A    between atoms: C_20  and  C_21
REMARK    8  A    between atoms: C_26  and  C_28
REMARK                            x       y       z     vdW  Elec       q    Type
REMARK                         _______ _______ _______ _____ _____    ______ ____
ROOT
ATOM      1  C   UNL     1       5.640   6.211  17.305  0.00  0.00    +0.000 C 
ENDROOT
BRANCH   1   2
ATOM      2  C   UNL     1       5.877   5.532  15.966  0.00  0.00    +0.000 A 
ATOM      3  C   UNL     1       4.871   4.746  15.393  0.00  0.00    +0.000 A 
ATOM      4  C   UNL     1       5.138   3.993  14.252  0.00  0.00    +0.000 A 
ATOM      5  C   UNL     1       6.404   4.044  13.690  0.00  0.00    +0.000 A 
ATOM      6  F   UNL     1       6.671   3.284  12.619  0.00  0.00    +0.000 F 
ATOM      7  C   UNL     1       7.406   4.846  14.220  0.00  0.00    +0.000 A 
ATOM      8  C   UNL     1       7.144   5.601  15.362  0.00  0.00    +0.000 A 
ENDBRANCH   1   2
BRANCH   1  10
ATOM      9  O   UNL     1       7.737   5.767  18.619  0.00  0.00    +0.000 OA
ATOM     10  C   UNL     1       7.082   6.607  17.993  0.00  0.00    +0.000 C 
ATOM     11  N   UNL     1       7.503   7.954  17.934  0.00  0.00    +0.000 N 
ATOM     12  H   UNL     1       7.232   8.450  17.096  0.00  0.00    +0.000 HD
BRANCH  11  13
ATOM     13  C   UNL     1       8.712   8.460  18.617  0.00  0.00    +0.000 C 
BRANCH  13  14
ATOM     14  C   UNL     1       8.867   9.987  18.762  0.00  0.00    +0.000 A 
ATOM     15  C   UNL     1       9.359  10.626  19.912  0.00  0.00    +0.000 A 
ATOM     16  C   UNL     1       9.446  12.024  19.995  0.00  0.00    +0.000 A 
ATOM     17  C   UNL     1       9.071  12.836  18.918  0.00  0.00    +0.000 A 
ATOM     18  C   UNL     1       8.642  12.230  17.742  0.00  0.00    +0.000 A 
ATOM     19  C   UNL     1       8.554  10.830  17.667  0.00  0.00    +0.000 A 
ENDBRANCH  13  14
ENDBRANCH  11  13
ENDBRANCH   1  10
BRANCH   1  20
ATOM     20  N   UNL     1       4.433   5.649  18.011  0.00  0.00    +0.000 N 
ATOM     21  C   UNL     1       4.617   4.530  18.838  0.00  0.00    +0.000 C 
ATOM     22  O   UNL     1       5.739   4.042  18.980  0.00  0.00    +0.000 OA
BRANCH  21  23
ATOM     23  C   UNL     1       3.472   3.879  19.551  0.00  0.00    +0.000 A 
ATOM     24  C   UNL     1       2.995   4.487  20.707  0.00  0.00    +0.000 A 
ATOM     25  N   UNL     1       1.957   3.988  21.433  0.00  0.00    +0.000 NA
ATOM     26  C   UNL     1       1.404   2.858  20.941  0.00  0.00    +0.000 A 
ATOM     27  C   UNL     1       1.860   2.258  19.779  0.00  0.00    +0.000 A 
ATOM     28  N   UNL     1       2.898   2.746  19.053  0.00  0.00    +0.000 NA
ENDBRANCH  21  23
BRANCH  20  29
ATOM     29  C   UNL     1       3.082   6.094  17.561  0.00  0.00    +0.000 C 
BRANCH  29  30
ATOM     30  C   UNL     1       2.549   7.405  18.117  0.00  0.00    +0.000 A 
ATOM     31  C   UNL     1       2.066   7.732  19.375  0.00  0.00    +0.000 A 
ATOM     32  C   UNL     1       1.734   9.110  19.347  0.00  0.00    +0.000 A 
ATOM     33  C   UNL     1       2.002   9.530  18.067  0.00  0.00    +0.000 A 
ATOM     34  O   UNL     1       2.484   8.507  17.312  0.00  0.00    +0.000 OA
ENDBRANCH  29  30
ENDBRANCH  20  29
ENDBRANCH   1  20
TORSDOF 8
ENDMDL
