MODEL 1
REMARK VINA RESULT:      -7.4      0.000      0.000
REMARK  Name = 
REMARK  13 active torsions:
REMARK  status: ('A' for Active; 'I' for Inactive)
REMARK    1  A    between atoms: C_1  and  C_2
REMARK    2  A    between atoms: C_4  and  N_5
REMARK    3  A    between atoms: N_10  and  C_11
REMARK    4  A    between atoms: C_11  and  C_12
REMARK    5  A    between atoms: C_12  and  C_13
REMARK    6  A    between atoms: C_12  and  C_14
REMARK    7  A    between atoms: C_14  and  O_16
REMARK    8  A    between atoms: N_19  and  C_20
REMARK    9  A    between atoms: C_20  and  C_21
REMARK   10  A    between atoms: C_30  and  O_31
REMARK   11  A    between atoms: O_31  and  C_32
REMARK   12  A    between atoms: C_32  and  C_33
REMARK   13  A    between atoms: C_32  and  C_34
REMARK                            x       y       z     vdW  Elec       q    Type
REMARK                         _______ _______ _______ _____ _____    ______ ____
ROOT
ATOM      1  N   UNL     1       1.126  10.076  19.725  0.00  0.00    +0.000 NA
ATOM      2  C   UNL     1       0.009  10.595  19.323  0.00  0.00    +0.000 A 
ATOM      3  N   UNL     1      -0.777  10.056  18.355  0.00  0.00    +0.000 N 
ATOM      4  C   UNL     1      -2.020  10.482  18.032  0.00  0.00    +0.000 A 
ATOM      5  O   UNL     1      -2.634   9.898  17.141  0.00  0.00    +0.000 OA
ATOM      6  N   UNL     1      -2.519  11.532  18.760  0.00  0.00    +0.000 N 
ATOM      7  C   UNL     1      -1.751  12.218  19.692  0.00  0.00    +0.000 A 
ATOM      8  O   UNL     1      -2.211  13.158  20.344  0.00  0.00    +0.000 OA
ATOM      9  N   UNL     1      -0.448  11.771  19.873  0.00  0.00    +0.000 N 
ATOM     10  H   UNL     1      -0.437   9.299  17.788  0.00  0.00    +0.000 HD
ENDROOT
BRANCH   1  14
ATOM     11  C   UNL     1       2.005   5.391  20.768  0.00  0.00    +0.000 C 
ATOM     12  C   UNL     1       2.166   6.519  19.786  0.00  0.00    +0.000 A 
ATOM     13  C   UNL     1       1.634   7.778  20.132  0.00  0.00    +0.000 A 
ATOM     14  C   UNL     1       1.696   8.877  19.272  0.00  0.00    +0.000 A 
ATOM     15  C   UNL     1       2.259   8.679  18.021  0.00  0.00    +0.000 A 
ATOM     16  C   UNL     1       2.887   7.474  17.690  0.00  0.00    +0.000 A 
ATOM     17  C   UNL     1       2.795   6.364  18.541  0.00  0.00    +0.000 A 
BRANCH  17  18
ATOM     18  O   UNL     1       3.299   5.138  18.186  0.00  0.00    +0.000 OA
BRANCH  18  19
ATOM     19  C   UNL     1       4.686   5.109  17.781  0.00  0.00    +0.000 C 
ATOM     20  C   UNL     1       5.562   4.537  18.895  0.00  0.00    +0.000 C 
ATOM     21  C   UNL     1       4.815   4.292  16.506  0.00  0.00    +0.000 C 
ENDBRANCH  18  19
ENDBRANCH  17  18
ENDBRANCH   1  14
BRANCH   6  22
ATOM     22  C   UNL     1      -3.844  12.052  18.400  0.00  0.00    +0.000 C 
BRANCH  22  23
ATOM     23  C   UNL     1      -5.011  11.469  19.220  0.00  0.00    +0.000 C 
ATOM     24  C   UNL     1      -5.590  12.468  20.213  0.00  0.00    +0.000 C 
BRANCH  23  25
ATOM     25  C   UNL     1      -6.097  11.021  18.262  0.00  0.00    +0.000 C 
ATOM     26  O   UNL     1      -7.019  10.281  18.561  0.00  0.00    +0.000 OA
BRANCH  25  27
ATOM     27  O   UNL     1      -5.942  11.503  17.008  0.00  0.00    +0.000 OA
ATOM     28  H   UNL     1      -6.548  11.121  16.346  0.00  0.00    +0.000 HD
ENDBRANCH  25  27
ENDBRANCH  23  25
ENDBRANCH  22  23
ENDBRANCH   6  22
BRANCH   9  29
ATOM     29  C   UNL     1       0.452  12.589  20.688  0.00  0.00    +0.000 C 
BRANCH  29  30
ATOM     30  C   UNL     1       1.171  13.656  19.871  0.00  0.00    +0.000 A 
ATOM     31  C   UNL     1       2.282  13.318  19.081  0.00  0.00    +0.000 A 
ATOM     32  C   UNL     1       2.907  14.278  18.280  0.00  0.00    +0.000 A 
ATOM     33  C   UNL     1       2.432  15.587  18.265  0.00  0.00    +0.000 A 
ATOM     34 CL   UNL     1       3.173  16.756  17.241  0.00  0.00    +0.000 Cl
ATOM     35  C   UNL     1       1.352  15.951  19.067  0.00  0.00    +0.000 A 
ATOM     36  C   UNL     1       0.729  14.991  19.874  0.00  0.00    +0.000 A 
ENDBRANCH  29  30
ENDBRANCH   9  29
TORSDOF 9
ENDMDL
MODEL 2
REMARK VINA RESULT:      -7.3      0.708      1.217
REMARK  Name = 
REMARK  13 active torsions:
REMARK  status: ('A' for Active; 'I' for Inactive)
REMARK    1  A    between atoms: C_1  and  C_2
REMARK    2  A    between atoms: C_4  and  N_5
REMARK    3  A    between atoms: N_10  and  C_11
REMARK    4  A    between atoms: C_11  and  C_12
REMARK    5  A    between atoms: C_12  and  C_13
REMARK    6  A    between atoms: C_12  and  C_14
REMARK    7  A    between atoms: C_14  and  O_16
REMARK    8  A    between atoms: N_19  and  C_20
REMARK    9  A    between atoms: C_20  and  C_21
REMARK   10  A    between atoms: C_30  and  O_31
REMARK   11  A    between atoms: O_31  and  C_32
REMARK   12  A    between atoms: C_32  and  C_33
REMARK   13  A    between atoms: C_32  and  C_34
REMARK                            x       y       z     vdW  Elec       q    Type
REMARK                         _______ _______ _______ _____ _____    ______ ____
ROOT
ATOM      1  N   UNL     1       0.941  10.216  19.831  0.00  0.00    +0.000 NA
ATOM      2  C   UNL     1      -0.190  10.665  19.385  0.00  0.00    +0.000 A 
ATOM      3  N   UNL     1      -0.943  10.037  18.446  0.00  0.00    +0.000 N 
ATOM      4  C   UNL     1      -2.197  10.394  18.083  0.00  0.00    +0.000 A 
ATOM      5  O   UNL     1      -2.778   9.731  17.226  0.00  0.00    +0.000 OA
ATOM      6  N   UNL     1      -2.742  11.470  18.737  0.00  0.00    +0.000 N 
ATOM      7  C   UNL     1      -2.012  12.242  19.630  0.00  0.00    +0.000 A 
ATOM      8  O   UNL     1      -2.514  13.205  20.215  0.00  0.00    +0.000 OA
ATOM      9  N   UNL     1      -0.696  11.856  19.852  0.00  0.00    +0.000 N 
ATOM     10  H   UNL     1      -0.569   9.258  17.933  0.00  0.00    +0.000 HD
ENDROOT
BRANCH   1  14
ATOM     11  C   UNL     1       1.830   5.591  21.109  0.00  0.00    +0.000 C 
ATOM     12  C   UNL     1       2.036   6.684  20.097  0.00  0.00    +0.000 A 
ATOM     13  C   UNL     1       1.460   7.945  20.359  0.00  0.00    +0.000 A 
ATOM     14  C   UNL     1       1.560   9.012  19.463  0.00  0.00    +0.000 A 
ATOM     15  C   UNL     1       2.207   8.779  18.259  0.00  0.00    +0.000 A 
ATOM     16  C   UNL     1       2.876   7.575  18.017  0.00  0.00    +0.000 A 
ATOM     17  C   UNL     1       2.748   6.496  18.903  0.00  0.00    +0.000 A 
BRANCH  17  18
ATOM     18  O   UNL     1       3.296   5.268  18.629  0.00  0.00    +0.000 OA
BRANCH  18  19
ATOM     19  C   UNL     1       2.799   4.593  17.451  0.00  0.00    +0.000 C 
ATOM     20  C   UNL     1       3.841   3.616  16.909  0.00  0.00    +0.000 C 
ATOM     21  C   UNL     1       1.503   3.878  17.797  0.00  0.00    +0.000 C 
ENDBRANCH  18  19
ENDBRANCH  17  18
ENDBRANCH   1  14
BRANCH   6  22
ATOM     22  C   UNL     1      -4.081  11.915  18.330  0.00  0.00    +0.000 C 
BRANCH  22  23
ATOM     23  C   UNL     1      -5.224  11.448  19.250  0.00  0.00    +0.000 C 
ATOM     24  C   UNL     1      -5.739  12.555  20.161  0.00  0.00    +0.000 C 
BRANCH  23  25
ATOM     25  C   UNL     1      -6.360  10.936  18.387  0.00  0.00    +0.000 C 
ATOM     26  O   UNL     1      -7.089  10.004  18.685  0.00  0.00    +0.000 OA
BRANCH  25  27
ATOM     27  O   UNL     1      -6.487  11.598  17.215  0.00  0.00    +0.000 OA
ATOM     28  H   UNL     1      -6.760  11.044  16.460  0.00  0.00    +0.000 HD
ENDBRANCH  25  27
ENDBRANCH  23  25
ENDBRANCH  22  23
ENDBRANCH   6  22
BRANCH   9  29
ATOM     29  C   UNL     1       0.163  12.759  20.622  0.00  0.00    +0.000 C 
BRANCH  29  30
ATOM     30  C   UNL     1       0.899  13.759  19.738  0.00  0.00    +0.000 A 
ATOM     31  C   UNL     1       0.345  15.025  19.484  0.00  0.00    +0.000 A 
ATOM     32  C   UNL     1       1.044  15.970  18.728  0.00  0.00    +0.000 A 
ATOM     33  C   UNL     1       2.300  15.658  18.213  0.00  0.00    +0.000 A 
ATOM     34 CL   UNL     1       3.179  16.841  17.323  0.00  0.00    +0.000 Cl
ATOM     35  C   UNL     1       2.852  14.397  18.426  0.00  0.00    +0.000 A 
ATOM     36  C   UNL     1       2.150  13.448  19.179  0.00  0.00    +0.000 A 
ENDBRANCH  29  30
ENDBRANCH   9  29
TORSDOF 9
ENDMDL
MODEL 3
REMARK VINA RESULT:      -7.2      1.060      1.161
REMARK  Name = 
REMARK  13 active torsions:
REMARK  status: ('A' for Active; 'I' for Inactive)
REMARK    1  A    between atoms: C_1  and  C_2
REMARK    2  A    between atoms: C_4  and  N_5
REMARK    3  A    between atoms: N_10  and  C_11
REMARK    4  A    between atoms: C_11  and  C_12
REMARK    5  A    between atoms: C_12  and  C_13
REMARK    6  A    between atoms: C_12  and  C_14
REMARK    7  A    between atoms: C_14  and  O_16
REMARK    8  A    between atoms: N_19  and  C_20
REMARK    9  A    between atoms: C_20  and  C_21
REMARK   10  A    between atoms: C_30  and  O_31
REMARK   11  A    between atoms: O_31  and  C_32
REMARK   12  A    between atoms: C_32  and  C_33
REMARK   13  A    between atoms: C_32  and  C_34
REMARK                            x       y       z     vdW  Elec       q    Type
REMARK                         _______ _______ _______ _____ _____    ______ ____
ROOT
ATOM      1  N   UNL     1       0.443  10.948  19.889  0.00  0.00    +0.000 NA
ATOM      2  C   UNL     1      -0.751  11.349  19.583  0.00  0.00    +0.000 A 
ATOM      3  N   UNL     1      -1.541  10.752  18.654  0.00  0.00    +0.000 N 
ATOM      4  C   UNL     1      -2.844  11.044  18.433  0.00  0.00    +0.000 A 
ATOM      5  O   UNL     1      -3.453  10.419  17.567  0.00  0.00    +0.000 OA
ATOM      6  N   UNL     1      -3.400  12.012  19.230  0.00  0.00    +0.000 N 
ATOM      7  C   UNL     1      -2.647  12.754  20.130  0.00  0.00    +0.000 A 
ATOM      8  O   UNL     1      -3.158  13.620  20.844  0.00  0.00    +0.000 OA
ATOM      9  N   UNL     1      -1.293  12.451  20.204  0.00  0.00    +0.000 N 
ATOM     10  H   UNL     1      -1.162  10.053  18.039  0.00  0.00    +0.000 HD
ENDROOT
BRANCH   1  14
ATOM     11  C   UNL     1       1.838   6.338  20.677  0.00  0.00    +0.000 C 
ATOM     12  C   UNL     1       1.836   7.516  19.741  0.00  0.00    +0.000 A 
ATOM     13  C   UNL     1       1.198   8.699  20.168  0.00  0.00    +0.000 A 
ATOM     14  C   UNL     1       1.107   9.832  19.357  0.00  0.00    +0.000 A 
ATOM     15  C   UNL     1       1.623   9.744  18.073  0.00  0.00    +0.000 A 
ATOM     16  C   UNL     1       2.351   8.624  17.660  0.00  0.00    +0.000 A 
ATOM     17  C   UNL     1       2.414   7.477  18.463  0.00  0.00    +0.000 A 
BRANCH  17  18
ATOM     18  O   UNL     1       3.020   6.325  18.030  0.00  0.00    +0.000 OA
BRANCH  18  19
ATOM     19  C   UNL     1       4.463   6.350  17.950  0.00  0.00    +0.000 C 
ATOM     20  C   UNL     1       5.074   5.336  18.916  0.00  0.00    +0.000 C 
ATOM     21  C   UNL     1       4.887   6.071  16.518  0.00  0.00    +0.000 C 
ENDBRANCH  18  19
ENDBRANCH  17  18
ENDBRANCH   1  14
BRANCH   6  22
ATOM     22  C   UNL     1      -4.797  12.390  18.980  0.00  0.00    +0.000 C 
BRANCH  22  23
ATOM     23  C   UNL     1      -5.834  11.612  19.813  0.00  0.00    +0.000 C 
ATOM     24  C   UNL     1      -6.836  12.525  20.508  0.00  0.00    +0.000 C 
BRANCH  23  25
ATOM     25  C   UNL     1      -6.573  10.659  18.895  0.00  0.00    +0.000 C 
ATOM     26  O   UNL     1      -7.102   9.621  19.257  0.00  0.00    +0.000 OA
BRANCH  25  27
ATOM     27  O   UNL     1      -6.576  11.051  17.601  0.00  0.00    +0.000 OA
ATOM     28  H   UNL     1      -6.820  10.354  16.963  0.00  0.00    +0.000 HD
ENDBRANCH  25  27
ENDBRANCH  23  25
ENDBRANCH  22  23
ENDBRANCH   6  22
BRANCH   9  29
ATOM     29  C   UNL     1      -0.431  13.343  20.983  0.00  0.00    +0.000 C 
BRANCH  29  30
ATOM     30  C   UNL     1       0.271  14.380  20.115  0.00  0.00    +0.000 A 
ATOM     31  C   UNL     1       1.649  14.277  19.858  0.00  0.00    +0.000 A 
ATOM     32  C   UNL     1       2.287  15.188  19.011  0.00  0.00    +0.000 A 
ATOM     33  C   UNL     1       1.557  16.215  18.418  0.00  0.00    +0.000 A 
ATOM     34 CL   UNL     1       2.336  17.306  17.338  0.00  0.00    +0.000 Cl
ATOM     35  C   UNL     1       0.197  16.355  18.686  0.00  0.00    +0.000 A 
ATOM     36  C   UNL     1      -0.442  15.446  19.538  0.00  0.00    +0.000 A 
ENDBRANCH  29  30
ENDBRANCH   9  29
TORSDOF 9
ENDMDL
MODEL 4
REMARK VINA RESULT:      -7.1      1.076      1.879
REMARK  Name = 
REMARK  13 active torsions:
REMARK  status: ('A' for Active; 'I' for Inactive)
REMARK    1  A    between atoms: C_1  and  C_2
REMARK    2  A    between atoms: C_4  and  N_5
REMARK    3  A    between atoms: N_10  and  C_11
REMARK    4  A    between atoms: C_11  and  C_12
REMARK    5  A    between atoms: C_12  and  C_13
REMARK    6  A    between atoms: C_12  and  C_14
REMARK    7  A    between atoms: C_14  and  O_16
REMARK    8  A    between atoms: N_19  and  C_20
REMARK    9  A    between atoms: C_20  and  C_21
REMARK   10  A    between atoms: C_30  and  O_31
REMARK   11  A    between atoms: O_31  and  C_32
REMARK   12  A    between atoms: C_32  and  C_33
REMARK   13  A    between atoms: C_32  and  C_34
REMARK                            x       y       z     vdW  Elec       q    Type
REMARK                         _______ _______ _______ _____ _____    ______ ____
ROOT
ATOM      1  N   UNL     1       0.781  10.080  20.336  0.00  0.00    +0.000 NA
ATOM      2  C   UNL     1      -0.275  10.584  19.779  0.00  0.00    +0.000 A 
ATOM      3  N   UNL     1      -1.034   9.938  18.858  0.00  0.00    +0.000 N 
ATOM      4  C   UNL     1      -2.225  10.370  18.384  0.00  0.00    +0.000 A 
ATOM      5  O   UNL     1      -2.821   9.681  17.557  0.00  0.00    +0.000 OA
ATOM      6  N   UNL     1      -2.699  11.551  18.899  0.00  0.00    +0.000 N 
ATOM      7  C   UNL     1      -1.946  12.338  19.761  0.00  0.00    +0.000 A 
ATOM      8  O   UNL     1      -2.383  13.396  20.220  0.00  0.00    +0.000 OA
ATOM      9  N   UNL     1      -0.688  11.857  20.101  0.00  0.00    +0.000 N 
ATOM     10  H   UNL     1      -0.709   9.081  18.444  0.00  0.00    +0.000 HD
ENDROOT
BRANCH   1  14
ATOM     11  C   UNL     1       3.506   7.269  17.422  0.00  0.00    +0.000 C 
ATOM     12  C   UNL     1       2.653   7.355  18.658  0.00  0.00    +0.000 A 
ATOM     13  C   UNL     1       2.073   8.601  18.976  0.00  0.00    +0.000 A 
ATOM     14  C   UNL     1       1.299   8.794  20.122  0.00  0.00    +0.000 A 
ATOM     15  C   UNL     1       1.157   7.719  20.987  0.00  0.00    +0.000 A 
ATOM     16  C   UNL     1       1.630   6.448  20.647  0.00  0.00    +0.000 A 
ATOM     17  C   UNL     1       2.434   6.265  19.512  0.00  0.00    +0.000 A 
BRANCH  17  18
ATOM     18  O   UNL     1       3.008   5.053  19.223  0.00  0.00    +0.000 OA
BRANCH  18  19
ATOM     19  C   UNL     1       2.167   3.889  19.387  0.00  0.00    +0.000 C 
ATOM     20  C   UNL     1       1.920   3.207  18.042  0.00  0.00    +0.000 C 
ATOM     21  C   UNL     1       2.822   2.937  20.374  0.00  0.00    +0.000 C 
ENDBRANCH  18  19
ENDBRANCH  17  18
ENDBRANCH   1  14
BRANCH   6  22
ATOM     22  C   UNL     1      -3.964  12.075  18.368  0.00  0.00    +0.000 C 
BRANCH  22  23
ATOM     23  C   UNL     1      -5.207  11.733  19.211  0.00  0.00    +0.000 C 
ATOM     24  C   UNL     1      -5.790  12.949  19.920  0.00  0.00    +0.000 C 
BRANCH  23  25
ATOM     25  C   UNL     1      -6.257  11.129  18.300  0.00  0.00    +0.000 C 
ATOM     26  O   UNL     1      -7.011  10.225  18.619  0.00  0.00    +0.000 OA
BRANCH  25  27
ATOM     27  O   UNL     1      -6.273  11.673  17.062  0.00  0.00    +0.000 OA
ATOM     28  H   UNL     1      -6.525  12.615  17.033  0.00  0.00    +0.000 HD
ENDBRANCH  25  27
ENDBRANCH  23  25
ENDBRANCH  22  23
ENDBRANCH   6  22
BRANCH   9  29
ATOM     29  C   UNL     1       0.212  12.749  20.835  0.00  0.00    +0.000 C 
BRANCH  29  30
ATOM     30  C   UNL     1       1.014  13.659  19.912  0.00  0.00    +0.000 A 
ATOM     31  C   UNL     1       0.622  14.994  19.714  0.00  0.00    +0.000 A 
ATOM     32  C   UNL     1       1.389  15.852  18.920  0.00  0.00    +0.000 A 
ATOM     33  C   UNL     1       2.550  15.384  18.311  0.00  0.00    +0.000 A 
ATOM     34 CL   UNL     1       3.517  16.456  17.374  0.00  0.00    +0.000 Cl
ATOM     35  C   UNL     1       2.938  14.055  18.468  0.00  0.00    +0.000 A 
ATOM     36  C   UNL     1       2.168  13.193  19.259  0.00  0.00    +0.000 A 
ENDBRANCH  29  30
ENDBRANCH   9  29
TORSDOF 9
ENDMDL
MODEL 5
REMARK VINA RESULT:      -7.1      0.974      1.150
REMARK  Name = 
REMARK  13 active torsions:
REMARK  status: ('A' for Active; 'I' for Inactive)
REMARK    1  A    between atoms: C_1  and  C_2
REMARK    2  A    between atoms: C_4  and  N_5
REMARK    3  A    between atoms: N_10  and  C_11
REMARK    4  A    between atoms: C_11  and  C_12
REMARK    5  A    between atoms: C_12  and  C_13
REMARK    6  A    between atoms: C_12  and  C_14
REMARK    7  A    between atoms: C_14  and  O_16
REMARK    8  A    between atoms: N_19  and  C_20
REMARK    9  A    between atoms: C_20  and  C_21
REMARK   10  A    between atoms: C_30  and  O_31
REMARK   11  A    between atoms: O_31  and  C_32
REMARK   12  A    between atoms: C_32  and  C_33
REMARK   13  A    between atoms: C_32  and  C_34
REMARK                            x       y       z     vdW  Elec       q    Type
REMARK                         _______ _______ _______ _____ _____    ______ ____
ROOT
ATOM      1  N   UNL     1       1.373   9.767  19.755  0.00  0.00    +0.000 NA
ATOM      2  C   UNL     1       0.308  10.336  19.286  0.00  0.00    +0.000 A 
ATOM      3  N   UNL     1      -0.464   9.814  18.299  0.00  0.00    +0.000 N 
ATOM      4  C   UNL     1      -1.665  10.300  17.906  0.00  0.00    +0.000 A 
ATOM      5  O   UNL     1      -2.271   9.724  17.004  0.00  0.00    +0.000 OA
ATOM      6  N   UNL     1      -2.133  11.399  18.580  0.00  0.00    +0.000 N 
ATOM      7  C   UNL     1      -1.369  12.068  19.527  0.00  0.00    +0.000 A 
ATOM      8  O   UNL     1      -1.801  13.054  20.129  0.00  0.00    +0.000 OA
ATOM      9  N   UNL     1      -0.104  11.553  19.781  0.00  0.00    +0.000 N 
ATOM     10  H   UNL     1      -0.144   9.021  17.770  0.00  0.00    +0.000 HD
ENDROOT
BRANCH   1  14
ATOM     11  C   UNL     1       2.037   5.102  21.026  0.00  0.00    +0.000 C 
ATOM     12  C   UNL     1       2.254   6.174  19.992  0.00  0.00    +0.000 A 
ATOM     13  C   UNL     1       1.776   7.471  20.275  0.00  0.00    +0.000 A 
ATOM     14  C   UNL     1       1.892   8.523  19.364  0.00  0.00    +0.000 A 
ATOM     15  C   UNL     1       2.451   8.241  18.127  0.00  0.00    +0.000 A 
ATOM     16  C   UNL     1       3.027   6.995  17.859  0.00  0.00    +0.000 A 
ATOM     17  C   UNL     1       2.881   5.932  18.761  0.00  0.00    +0.000 A 
BRANCH  17  18
ATOM     18  O   UNL     1       3.332   4.670  18.468  0.00  0.00    +0.000 OA
BRANCH  18  19
ATOM     19  C   UNL     1       2.323   3.646  18.322  0.00  0.00    +0.000 C 
ATOM     20  C   UNL     1       1.226   4.102  17.360  0.00  0.00    +0.000 C 
ATOM     21  C   UNL     1       2.980   2.365  17.838  0.00  0.00    +0.000 C 
ENDBRANCH  18  19
ENDBRANCH  17  18
ENDBRANCH   1  14
BRANCH   6  22
ATOM     22  C   UNL     1      -3.408  11.983  18.143  0.00  0.00    +0.000 C 
BRANCH  22  23
ATOM     23  C   UNL     1      -4.647  11.458  18.893  0.00  0.00    +0.000 C 
ATOM     24  C   UNL     1      -5.211  12.471  19.880  0.00  0.00    +0.000 C 
BRANCH  23  25
ATOM     25  C   UNL     1      -5.711  11.100  17.874  0.00  0.00    +0.000 C 
ATOM     26  O   UNL     1      -6.870  10.836  18.149  0.00  0.00    +0.000 OA
BRANCH  25  27
ATOM     27  O   UNL     1      -5.252  11.073  16.603  0.00  0.00    +0.000 OA
ATOM     28  H   UNL     1      -5.709  10.441  16.017  0.00  0.00    +0.000 HD
ENDBRANCH  25  27
ENDBRANCH  23  25
ENDBRANCH  22  23
ENDBRANCH   6  22
BRANCH   9  29
ATOM     29  C   UNL     1       0.805  12.343  20.613  0.00  0.00    +0.000 C 
BRANCH  29  30
ATOM     30  C   UNL     1       1.468  13.477  19.840  0.00  0.00    +0.000 A 
ATOM     31  C   UNL     1       2.377  13.195  18.806  0.00  0.00    +0.000 A 
ATOM     32  C   UNL     1       2.939  14.228  18.049  0.00  0.00    +0.000 A 
ATOM     33  C   UNL     1       2.605  15.552  18.323  0.00  0.00    +0.000 A 
ATOM     34 CL   UNL     1       3.263  16.818  17.360  0.00  0.00    +0.000 Cl
ATOM     35  C   UNL     1       1.733  15.854  19.366  0.00  0.00    +0.000 A 
ATOM     36  C   UNL     1       1.172  14.821  20.127  0.00  0.00    +0.000 A 
ENDBRANCH  29  30
ENDBRANCH   9  29
TORSDOF 9
ENDMDL
MODEL 6
REMARK VINA RESULT:      -7.1      0.987      1.740
REMARK  Name = 
REMARK  13 active torsions:
REMARK  status: ('A' for Active; 'I' for Inactive)
REMARK    1  A    between atoms: C_1  and  C_2
REMARK    2  A    between atoms: C_4  and  N_5
REMARK    3  A    between atoms: N_10  and  C_11
REMARK    4  A    between atoms: C_11  and  C_12
REMARK    5  A    between atoms: C_12  and  C_13
REMARK    6  A    between atoms: C_12  and  C_14
REMARK    7  A    between atoms: C_14  and  O_16
REMARK    8  A    between atoms: N_19  and  C_20
REMARK    9  A    between atoms: C_20  and  C_21
REMARK   10  A    between atoms: C_30  and  O_31
REMARK   11  A    between atoms: O_31  and  C_32
REMARK   12  A    between atoms: C_32  and  C_33
REMARK   13  A    between atoms: C_32  and  C_34
REMARK                            x       y       z     vdW  Elec       q    Type
REMARK                         _______ _______ _______ _____ _____    ______ ____
ROOT
ATOM      1  N   UNL     1       0.927   9.882  20.390  0.00  0.00    +0.000 NA
ATOM      2  C   UNL     1      -0.104  10.442  19.841  0.00  0.00    +0.000 A 
ATOM      3  N   UNL     1      -0.886   9.847  18.904  0.00  0.00    +0.000 N 
ATOM      4  C   UNL     1      -2.057  10.340  18.438  0.00  0.00    +0.000 A 
ATOM      5  O   UNL     1      -2.678   9.694  17.595  0.00  0.00    +0.000 OA
ATOM      6  N   UNL     1      -2.482  11.528  18.976  0.00  0.00    +0.000 N 
ATOM      7  C   UNL     1      -1.701  12.264  19.857  0.00  0.00    +0.000 A 
ATOM      8  O   UNL     1      -2.095  13.329  20.337  0.00  0.00    +0.000 OA
ATOM      9  N   UNL     1      -0.464  11.724  20.189  0.00  0.00    +0.000 N 
ATOM     10  H   UNL     1      -0.597   8.987  18.474  0.00  0.00    +0.000 HD
ENDROOT
BRANCH   1  14
ATOM     11  C   UNL     1       3.496   7.011  17.393  0.00  0.00    +0.000 C 
ATOM     12  C   UNL     1       2.666   7.112  18.644  0.00  0.00    +0.000 A 
ATOM     13  C   UNL     1       2.140   8.374  18.989  0.00  0.00    +0.000 A 
ATOM     14  C   UNL     1       1.392   8.580  20.150  0.00  0.00    +0.000 A 
ATOM     15  C   UNL     1       1.222   7.499  21.002  0.00  0.00    +0.000 A 
ATOM     16  C   UNL     1       1.640   6.216  20.637  0.00  0.00    +0.000 A 
ATOM     17  C   UNL     1       2.418   6.018  19.487  0.00  0.00    +0.000 A 
BRANCH  17  18
ATOM     18  O   UNL     1       2.940   4.789  19.171  0.00  0.00    +0.000 OA
BRANCH  18  19
ATOM     19  C   UNL     1       2.038   3.850  18.546  0.00  0.00    +0.000 C 
ATOM     20  C   UNL     1       2.643   3.296  17.257  0.00  0.00    +0.000 C 
ATOM     21  C   UNL     1       1.722   2.734  19.528  0.00  0.00    +0.000 C 
ENDBRANCH  18  19
ENDBRANCH  17  18
ENDBRANCH   1  14
BRANCH   6  22
ATOM     22  C   UNL     1      -3.723  12.115  18.454  0.00  0.00    +0.000 C 
BRANCH  22  23
ATOM     23  C   UNL     1      -5.012  11.601  19.122  0.00  0.00    +0.000 C 
ATOM     24  C   UNL     1      -5.542  12.549  20.189  0.00  0.00    +0.000 C 
BRANCH  23  25
ATOM     25  C   UNL     1      -6.066  11.406  18.050  0.00  0.00    +0.000 C 
ATOM     26  O   UNL     1      -6.001  11.871  16.924  0.00  0.00    +0.000 OA
BRANCH  25  27
ATOM     27  O   UNL     1      -7.127  10.677  18.465  0.00  0.00    +0.000 OA
ATOM     28  H   UNL     1      -6.969   9.716  18.510  0.00  0.00    +0.000 HD
ENDBRANCH  25  27
ENDBRANCH  23  25
ENDBRANCH  22  23
ENDBRANCH   6  22
BRANCH   9  29
ATOM     29  C   UNL     1       0.469  12.561  20.945  0.00  0.00    +0.000 C 
BRANCH  29  30
ATOM     30  C   UNL     1       1.235  13.532  20.055  0.00  0.00    +0.000 A 
ATOM     31  C   UNL     1       2.239  13.063  19.190  0.00  0.00    +0.000 A 
ATOM     32  C   UNL     1       2.900  13.939  18.324  0.00  0.00    +0.000 A 
ATOM     33  C   UNL     1       2.571  15.291  18.318  0.00  0.00    +0.000 A 
ATOM     34 CL   UNL     1       3.354  16.358  17.216  0.00  0.00    +0.000 Cl
ATOM     35  C   UNL     1       1.603  15.782  19.190  0.00  0.00    +0.000 A 
ATOM     36  C   UNL     1       0.943  14.907  20.062  0.00  0.00    +0.000 A 
ENDBRANCH  29  30
ENDBRANCH   9  29
TORSDOF 9
ENDMDL
MODEL 7
REMARK VINA RESULT:      -7.0      0.947      1.032
REMARK  Name = 
REMARK  13 active torsions:
REMARK  status: ('A' for Active; 'I' for Inactive)
REMARK    1  A    between atoms: C_1  and  C_2
REMARK    2  A    between atoms: C_4  and  N_5
REMARK    3  A    between atoms: N_10  and  C_11
REMARK    4  A    between atoms: C_11  and  C_12
REMARK    5  A    between atoms: C_12  and  C_13
REMARK    6  A    between atoms: C_12  and  C_14
REMARK    7  A    between atoms: C_14  and  O_16
REMARK    8  A    between atoms: N_19  and  C_20
REMARK    9  A    between atoms: C_20  and  C_21
REMARK   10  A    between atoms: C_30  and  O_31
REMARK   11  A    between atoms: O_31  and  C_32
REMARK   12  A    between atoms: C_32  and  C_33
REMARK   13  A    between atoms: C_32  and  C_34
REMARK                            x       y       z     vdW  Elec       q    Type
REMARK                         _______ _______ _______ _____ _____    ______ ____
ROOT
ATOM      1  N   UNL     1       0.762  10.043  19.443  0.00  0.00    +0.000 NA
ATOM      2  C   UNL     1      -0.279  10.487  18.811  0.00  0.00    +0.000 A 
ATOM      3  N   UNL     1      -0.767   9.941  17.668  0.00  0.00    +0.000 N 
ATOM      4  C   UNL     1      -1.940  10.277  17.081  0.00  0.00    +0.000 A 
ATOM      5  O   UNL     1      -2.274   9.695  16.050  0.00  0.00    +0.000 OA
ATOM      6  N   UNL     1      -2.690  11.236  17.712  0.00  0.00    +0.000 N 
ATOM      7  C   UNL     1      -2.225  11.929  18.822  0.00  0.00    +0.000 A 
ATOM      8  O   UNL     1      -2.910  12.787  19.383  0.00  0.00    +0.000 OA
ATOM      9  N   UNL     1      -0.961  11.585  19.283  0.00  0.00    +0.000 N 
ATOM     10  H   UNL     1      -0.236   9.250  17.168  0.00  0.00    +0.000 HD
ENDROOT
BRANCH   1  14
ATOM     11  C   UNL     1       2.087   5.514  20.684  0.00  0.00    +0.000 C 
ATOM     12  C   UNL     1       2.230   6.649  19.708  0.00  0.00    +0.000 A 
ATOM     13  C   UNL     1       1.501   7.831  19.958  0.00  0.00    +0.000 A 
ATOM     14  C   UNL     1       1.533   8.926  19.091  0.00  0.00    +0.000 A 
ATOM     15  C   UNL     1       2.273   8.797  17.925  0.00  0.00    +0.000 A 
ATOM     16  C   UNL     1       3.087   7.682  17.702  0.00  0.00    +0.000 A 
ATOM     17  C   UNL     1       3.028   6.572  18.557  0.00  0.00    +0.000 A 
BRANCH  17  18
ATOM     18  O   UNL     1       3.726   5.420  18.294  0.00  0.00    +0.000 OA
BRANCH  18  19
ATOM     19  C   UNL     1       5.106   5.583  17.900  0.00  0.00    +0.000 C 
ATOM     20  C   UNL     1       6.043   5.207  19.048  0.00  0.00    +0.000 C 
ATOM     21  C   UNL     1       5.376   4.735  16.669  0.00  0.00    +0.000 C 
ENDBRANCH  18  19
ENDBRANCH  17  18
ENDBRANCH   1  14
BRANCH   6  22
ATOM     22  C   UNL     1      -3.942  11.661  17.073  0.00  0.00    +0.000 C 
BRANCH  22  23
ATOM     23  C   UNL     1      -5.206  10.951  17.594  0.00  0.00    +0.000 C 
ATOM     24  C   UNL     1      -4.894   9.869  18.620  0.00  0.00    +0.000 C 
BRANCH  23  25
ATOM     25  C   UNL     1      -6.120  11.988  18.217  0.00  0.00    +0.000 C 
ATOM     26  O   UNL     1      -7.216  11.746  18.693  0.00  0.00    +0.000 OA
BRANCH  25  27
ATOM     27  O   UNL     1      -5.616  13.243  18.177  0.00  0.00    +0.000 OA
ATOM     28  H   UNL     1      -5.891  13.769  17.404  0.00  0.00    +0.000 HD
ENDBRANCH  25  27
ENDBRANCH  23  25
ENDBRANCH  22  23
ENDBRANCH   6  22
BRANCH   9  29
ATOM     29  C   UNL     1      -0.354  12.428  20.315  0.00  0.00    +0.000 C 
BRANCH  29  30
ATOM     30  C   UNL     1       0.511  13.537  19.729  0.00  0.00    +0.000 A 
ATOM     31  C   UNL     1       1.873  13.312  19.464  0.00  0.00    +0.000 A 
ATOM     32  C   UNL     1       2.657  14.303  18.867  0.00  0.00    +0.000 A 
ATOM     33  C   UNL     1       2.092  15.531  18.534  0.00  0.00    +0.000 A 
ATOM     34 CL   UNL     1       3.048  16.732  17.755  0.00  0.00    +0.000 Cl
ATOM     35  C   UNL     1       0.752  15.786  18.819  0.00  0.00    +0.000 A 
ATOM     36  C   UNL     1      -0.033  14.796  19.422  0.00  0.00    +0.000 A 
ENDBRANCH  29  30
ENDBRANCH   9  29
TORSDOF 9
ENDMDL
MODEL 8
REMARK VINA RESULT:      -7.0      1.029      1.159
REMARK  Name = 
REMARK  13 active torsions:
REMARK  status: ('A' for Active; 'I' for Inactive)
REMARK    1  A    between atoms: C_1  and  C_2
REMARK    2  A    between atoms: C_4  and  N_5
REMARK    3  A    between atoms: N_10  and  C_11
REMARK    4  A    between atoms: C_11  and  C_12
REMARK    5  A    between atoms: C_12  and  C_13
REMARK    6  A    between atoms: C_12  and  C_14
REMARK    7  A    between atoms: C_14  and  O_16
REMARK    8  A    between atoms: N_19  and  C_20
REMARK    9  A    between atoms: C_20  and  C_21
REMARK   10  A    between atoms: C_30  and  O_31
REMARK   11  A    between atoms: O_31  and  C_32
REMARK   12  A    between atoms: C_32  and  C_33
REMARK   13  A    between atoms: C_32  and  C_34
REMARK                            x       y       z     vdW  Elec       q    Type
REMARK                         _______ _______ _______ _____ _____    ______ ____
ROOT
ATOM      1  N   UNL     1       1.505   9.382  19.829  0.00  0.00    +0.000 NA
ATOM      2  C   UNL     1       0.510  10.052  19.340  0.00  0.00    +0.000 A 
ATOM      3  N   UNL     1      -0.237   9.646  18.282  0.00  0.00    +0.000 N 
ATOM      4  C   UNL     1      -1.376  10.240  17.856  0.00  0.00    +0.000 A 
ATOM      5  O   UNL     1      -1.968   9.763  16.888  0.00  0.00    +0.000 OA
ATOM      6  N   UNL     1      -1.806  11.328  18.571  0.00  0.00    +0.000 N 
ATOM      7  C   UNL     1      -1.055  11.884  19.599  0.00  0.00    +0.000 A 
ATOM      8  O   UNL     1      -1.453  12.861  20.237  0.00  0.00    +0.000 OA
ATOM      9  N   UNL     1       0.155  11.264  19.887  0.00  0.00    +0.000 N 
ATOM     10  H   UNL     1       0.058   8.865  17.722  0.00  0.00    +0.000 HD
ENDROOT
BRANCH   1  14
ATOM     11  C   UNL     1       1.832   4.625  20.870  0.00  0.00    +0.000 C 
ATOM     12  C   UNL     1       2.152   5.732  19.903  0.00  0.00    +0.000 A 
ATOM     13  C   UNL     1       1.746   7.041  20.238  0.00  0.00    +0.000 A 
ATOM     14  C   UNL     1       1.959   8.129  19.389  0.00  0.00    +0.000 A 
ATOM     15  C   UNL     1       2.543   7.875  18.158  0.00  0.00    +0.000 A 
ATOM     16  C   UNL     1       3.049   6.610  17.842  0.00  0.00    +0.000 A 
ATOM     17  C   UNL     1       2.806   5.514  18.681  0.00  0.00    +0.000 A 
BRANCH  17  18
ATOM     18  O   UNL     1       3.188   4.242  18.336  0.00  0.00    +0.000 OA
BRANCH  18  19
ATOM     19  C   UNL     1       4.536   3.859  18.689  0.00  0.00    +0.000 C 
ATOM     20  C   UNL     1       5.295   5.045  19.284  0.00  0.00    +0.000 C 
ATOM     21  C   UNL     1       4.483   2.695  19.664  0.00  0.00    +0.000 C 
ENDBRANCH  18  19
ENDBRANCH  17  18
ENDBRANCH   1  14
BRANCH   6  22
ATOM     22  C   UNL     1      -3.010  12.027  18.104  0.00  0.00    +0.000 C 
BRANCH  22  23
ATOM     23  C   UNL     1      -4.338  11.447  18.630  0.00  0.00    +0.000 C 
ATOM     24  C   UNL     1      -4.937  12.275  19.759  0.00  0.00    +0.000 C 
BRANCH  23  25
ATOM     25  C   UNL     1      -5.322  11.376  17.479  0.00  0.00    +0.000 C 
ATOM     26  O   UNL     1      -6.511  11.631  17.570  0.00  0.00    +0.000 OA
BRANCH  25  27
ATOM     27  O   UNL     1      -4.763  10.969  16.317  0.00  0.00    +0.000 OA
ATOM     28  H   UNL     1      -5.356  11.007  15.543  0.00  0.00    +0.000 HD
ENDBRANCH  25  27
ENDBRANCH  23  25
ENDBRANCH  22  23
ENDBRANCH   6  22
BRANCH   9  29
ATOM     29  C   UNL     1       1.066  11.937  20.816  0.00  0.00    +0.000 C 
BRANCH  29  30
ATOM     30  C   UNL     1       1.835  13.076  20.157  0.00  0.00    +0.000 A 
ATOM     31  C   UNL     1       2.369  12.921  18.867  0.00  0.00    +0.000 A 
ATOM     32  C   UNL     1       3.019  13.983  18.231  0.00  0.00    +0.000 A 
ATOM     33  C   UNL     1       3.147  15.208  18.880  0.00  0.00    +0.000 A 
ATOM     34 CL   UNL     1       3.906  16.528  18.076  0.00  0.00    +0.000 Cl
ATOM     35  C   UNL     1       2.654  15.373  20.172  0.00  0.00    +0.000 A 
ATOM     36  C   UNL     1       2.008  14.308  20.812  0.00  0.00    +0.000 A 
ENDBRANCH  29  30
ENDBRANCH   9  29
TORSDOF 9
ENDMDL
MODEL 9
REMARK VINA RESULT:      -7.0      3.319      6.028
REMARK  Name = 
REMARK  13 active torsions:
REMARK  status: ('A' for Active; 'I' for Inactive)
REMARK    1  A    between atoms: C_1  and  C_2
REMARK    2  A    between atoms: C_4  and  N_5
REMARK    3  A    between atoms: N_10  and  C_11
REMARK    4  A    between atoms: C_11  and  C_12
REMARK    5  A    between atoms: C_12  and  C_13
REMARK    6  A    between atoms: C_12  and  C_14
REMARK    7  A    between atoms: C_14  and  O_16
REMARK    8  A    between atoms: N_19  and  C_20
REMARK    9  A    between atoms: C_20  and  C_21
REMARK   10  A    between atoms: C_30  and  O_31
REMARK   11  A    between atoms: O_31  and  C_32
REMARK   12  A    between atoms: C_32  and  C_33
REMARK   13  A    between atoms: C_32  and  C_34
REMARK                            x       y       z     vdW  Elec       q    Type
REMARK                         _______ _______ _______ _____ _____    ______ ____
ROOT
ATOM      1  N   UNL     1       0.103  10.485  19.326  0.00  0.00    +0.000 NA
ATOM      2  C   UNL     1       0.485  11.715  19.461  0.00  0.00    +0.000 A 
ATOM      3  N   UNL     1       1.750  12.090  19.780  0.00  0.00    +0.000 N 
ATOM      4  C   UNL     1       2.215  13.361  19.767  0.00  0.00    +0.000 A 
ATOM      5  O   UNL     1       3.391  13.565  20.065  0.00  0.00    +0.000 OA
ATOM      6  N   UNL     1       1.330  14.335  19.383  0.00  0.00    +0.000 N 
ATOM      7  C   UNL     1      -0.012  14.065  19.145  0.00  0.00    +0.000 A 
ATOM      8  O   UNL     1      -0.798  14.949  18.797  0.00  0.00    +0.000 OA
ATOM      9  N   UNL     1      -0.414  12.743  19.293  0.00  0.00    +0.000 N 
ATOM     10  H   UNL     1       2.421  11.406  20.085  0.00  0.00    +0.000 HD
ENDROOT
BRANCH   1  14
ATOM     11  C   UNL     1       3.345   7.599  17.094  0.00  0.00    +0.000 C 
ATOM     12  C   UNL     1       2.532   7.867  18.332  0.00  0.00    +0.000 A 
ATOM     13  C   UNL     1       1.676   8.988  18.331  0.00  0.00    +0.000 A 
ATOM     14  C   UNL     1       0.912   9.345  19.444  0.00  0.00    +0.000 A 
ATOM     15  C   UNL     1       1.061   8.584  20.594  0.00  0.00    +0.000 A 
ATOM     16  C   UNL     1       1.820   7.409  20.592  0.00  0.00    +0.000 A 
ATOM     17  C   UNL     1       2.610   7.071  19.484  0.00  0.00    +0.000 A 
BRANCH  17  18
ATOM     18  O   UNL     1       3.454   5.989  19.503  0.00  0.00    +0.000 OA
BRANCH  18  19
ATOM     19  C   UNL     1       2.829   4.690  19.606  0.00  0.00    +0.000 C 
ATOM     20  C   UNL     1       1.835   4.478  18.464  0.00  0.00    +0.000 C 
ATOM     21  C   UNL     1       3.906   3.618  19.603  0.00  0.00    +0.000 C 
ENDBRANCH  18  19
ENDBRANCH  17  18
ENDBRANCH   1  14
BRANCH   6  22
ATOM     22  C   UNL     1       1.787  15.730  19.408  0.00  0.00    +0.000 C 
BRANCH  22  23
ATOM     23  C   UNL     1       2.226  16.290  18.041  0.00  0.00    +0.000 C 
ATOM     24  C   UNL     1       1.740  17.714  17.805  0.00  0.00    +0.000 C 
BRANCH  23  25
ATOM     25  C   UNL     1       3.739  16.255  17.968  0.00  0.00    +0.000 C 
ATOM     26  O   UNL     1       4.471  17.144  18.369  0.00  0.00    +0.000 OA
BRANCH  25  27
ATOM     27  O   UNL     1       4.224  15.136  17.383  0.00  0.00    +0.000 OA
ATOM     28  H   UNL     1       3.644  14.748  16.701  0.00  0.00    +0.000 HD
ENDBRANCH  25  27
ENDBRANCH  23  25
ENDBRANCH  22  23
ENDBRANCH   6  22
BRANCH   9  29
ATOM     29  C   UNL     1      -1.849  12.455  19.254  0.00  0.00    +0.000 C 
BRANCH  29  30
ATOM     30  C   UNL     1      -2.477  12.429  20.643  0.00  0.00    +0.000 A 
ATOM     31  C   UNL     1      -1.713  12.054  21.761  0.00  0.00    +0.000 A 
ATOM     32  C   UNL     1      -2.264  12.090  23.046  0.00  0.00    +0.000 A 
ATOM     33  C   UNL     1      -3.584  12.494  23.225  0.00  0.00    +0.000 A 
ATOM     34 CL   UNL     1      -4.245  12.583  24.813  0.00  0.00    +0.000 Cl
ATOM     35  C   UNL     1      -4.368  12.837  22.126  0.00  0.00    +0.000 A 
ATOM     36  C   UNL     1      -3.819  12.797  20.839  0.00  0.00    +0.000 A 
ENDBRANCH  29  30
ENDBRANCH   9  29
TORSDOF 9
ENDMDL
