MODEL 1
REMARK VINA RESULT:      -7.3      0.000      0.000
REMARK  Name = 
REMARK  5 active torsions:
REMARK  status: ('A' for Active; 'I' for Inactive)
REMARK    1  A    between atoms: C_1  and  C_2
REMARK    2  A    between atoms: C_2  and  C_3
REMARK    3  A    between atoms: C_3  and  N_4
REMARK    4  A    between atoms: C_8  and  C_9
REMARK    5  A    between atoms: C_13  and  C_14
REMARK                            x       y       z     vdW  Elec       q    Type
REMARK                         _______ _______ _______ _____ _____    ______ ____
ROOT
ATOM      1  N   UNL     1       6.851   4.613  16.505  0.00  0.00    +0.000 NA
ATOM      2  C   UNL     1       7.277   5.819  17.233  0.00  0.00    +0.000 C 
ATOM      3  C   UNL     1       7.203   5.601  18.741  0.00  0.00    +0.000 C 
ATOM      4  C   UNL     1       5.787   5.264  19.180  0.00  0.00    +0.000 C 
ATOM      5  C   UNL     1       5.226   4.085  18.368  0.00  0.00    +0.000 C 
ATOM      6  C   UNL     1       5.449   4.281  16.848  0.00  0.00    +0.000 C 
ENDROOT
BRANCH   5   7
ATOM      7  C   UNL     1       3.755   3.863  18.692  0.00  0.00    +0.000 A 
ATOM      8  C   UNL     1       2.772   4.121  17.729  0.00  0.00    +0.000 A 
ATOM      9  C   UNL     1       1.423   3.908  18.018  0.00  0.00    +0.000 A 
ATOM     10  C   UNL     1       1.038   3.436  19.274  0.00  0.00    +0.000 A 
ATOM     11  C   UNL     1       2.001   3.172  20.251  0.00  0.00    +0.000 A 
ATOM     12  C   UNL     1       1.614   2.658  21.606  0.00  0.00    +0.000 C 
ATOM     13  C   UNL     1       3.352   3.387  19.952  0.00  0.00    +0.000 A 
ENDBRANCH   5   7
BRANCH   1  14
ATOM     14  C   UNL     1       6.977   4.773  15.042  0.00  0.00    +0.000 C 
BRANCH  14  16
ATOM     15  C   UNL     1       6.132   3.587  12.972  0.00  0.00    +0.000 C 
ATOM     16  C   UNL     1       5.744   4.288  14.264  0.00  0.00    +0.000 C 
ENDBRANCH  14  16
ENDBRANCH   1  14
TORSDOF 3
ENDMDL
MODEL 2
REMARK VINA RESULT:      -7.1      1.778      3.362
REMARK  Name = 
REMARK  5 active torsions:
REMARK  status: ('A' for Active; 'I' for Inactive)
REMARK    1  A    between atoms: C_1  and  C_2
REMARK    2  A    between atoms: C_2  and  C_3
REMARK    3  A    between atoms: C_3  and  N_4
REMARK    4  A    between atoms: C_8  and  C_9
REMARK    5  A    between atoms: C_13  and  C_14
REMARK                            x       y       z     vdW  Elec       q    Type
REMARK                         _______ _______ _______ _____ _____    ______ ____
ROOT
ATOM      1  N   UNL     1       6.565   6.283  17.180  0.00  0.00    +0.000 NA
ATOM      2  C   UNL     1       7.020   5.038  16.540  0.00  0.00    +0.000 C 
ATOM      3  C   UNL     1       5.897   4.399  15.729  0.00  0.00    +0.000 C 
ATOM      4  C   UNL     1       4.702   4.066  16.608  0.00  0.00    +0.000 C 
ATOM      5  C   UNL     1       4.249   5.298  17.409  0.00  0.00    +0.000 C 
ATOM      6  C   UNL     1       5.442   6.000  18.102  0.00  0.00    +0.000 C 
ENDROOT
BRANCH   5   7
ATOM      7  C   UNL     1       3.165   4.919  18.408  0.00  0.00    +0.000 A 
ATOM      8  C   UNL     1       2.936   5.715  19.537  0.00  0.00    +0.000 A 
ATOM      9  C   UNL     1       1.936   5.377  20.451  0.00  0.00    +0.000 A 
ATOM     10  C   UNL     1       1.154   4.239  20.251  0.00  0.00    +0.000 A 
ATOM     11  C   UNL     1       1.365   3.428  19.133  0.00  0.00    +0.000 A 
ATOM     12  C   UNL     1       0.535   2.204  18.891  0.00  0.00    +0.000 C 
ATOM     13  C   UNL     1       2.370   3.776  18.220  0.00  0.00    +0.000 A 
ENDBRANCH   5   7
BRANCH   1  14
ATOM     14  C   UNL     1       7.653   6.957  17.918  0.00  0.00    +0.000 C 
BRANCH  14  16
ATOM     15  C   UNL     1       8.679   9.176  18.576  0.00  0.00    +0.000 C 
ATOM     16  C   UNL     1       7.786   8.451  17.582  0.00  0.00    +0.000 C 
ENDBRANCH  14  16
ENDBRANCH   1  14
TORSDOF 3
ENDMDL
MODEL 3
REMARK VINA RESULT:      -7.0      1.257      1.452
REMARK  Name = 
REMARK  5 active torsions:
REMARK  status: ('A' for Active; 'I' for Inactive)
REMARK    1  A    between atoms: C_1  and  C_2
REMARK    2  A    between atoms: C_2  and  C_3
REMARK    3  A    between atoms: C_3  and  N_4
REMARK    4  A    between atoms: C_8  and  C_9
REMARK    5  A    between atoms: C_13  and  C_14
REMARK                            x       y       z     vdW  Elec       q    Type
REMARK                         _______ _______ _______ _____ _____    ______ ____
ROOT
ATOM      1  N   UNL     1       5.847   4.122  15.780  0.00  0.00    +0.000 NA
ATOM      2  C   UNL     1       6.978   4.974  16.179  0.00  0.00    +0.000 C 
ATOM      3  C   UNL     1       7.429   4.655  17.600  0.00  0.00    +0.000 C 
ATOM      4  C   UNL     1       6.302   4.873  18.597  0.00  0.00    +0.000 C 
ATOM      5  C   UNL     1       5.037   4.108  18.174  0.00  0.00    +0.000 C 
ATOM      6  C   UNL     1       4.696   4.349  16.683  0.00  0.00    +0.000 C 
ENDROOT
BRANCH   5   7
ATOM      7  C   UNL     1       3.867   4.464  19.080  0.00  0.00    +0.000 A 
ATOM      8  C   UNL     1       3.374   5.774  19.115  0.00  0.00    +0.000 A 
ATOM      9  C   UNL     1       2.294   6.103  19.936  0.00  0.00    +0.000 A 
ATOM     10  C   UNL     1       1.693   5.128  20.734  0.00  0.00    +0.000 A 
ATOM     11  C   UNL     1       2.168   3.815  20.717  0.00  0.00    +0.000 A 
ATOM     12  C   UNL     1       1.536   2.748  21.559  0.00  0.00    +0.000 C 
ATOM     13  C   UNL     1       3.251   3.493  19.889  0.00  0.00    +0.000 A 
ENDBRANCH   5   7
BRANCH   1  14
ATOM     14  C   UNL     1       5.434   4.364  14.383  0.00  0.00    +0.000 C 
BRANCH  14  16
ATOM     15  C   UNL     1       5.759   3.215  12.150  0.00  0.00    +0.000 C 
ATOM     16  C   UNL     1       6.447   3.852  13.347  0.00  0.00    +0.000 C 
ENDBRANCH  14  16
ENDBRANCH   1  14
TORSDOF 3
ENDMDL
MODEL 4
REMARK VINA RESULT:      -7.0      1.214      2.850
REMARK  Name = 
REMARK  5 active torsions:
REMARK  status: ('A' for Active; 'I' for Inactive)
REMARK    1  A    between atoms: C_1  and  C_2
REMARK    2  A    between atoms: C_2  and  C_3
REMARK    3  A    between atoms: C_3  and  N_4
REMARK    4  A    between atoms: C_8  and  C_9
REMARK    5  A    between atoms: C_13  and  C_14
REMARK                            x       y       z     vdW  Elec       q    Type
REMARK                         _______ _______ _______ _____ _____    ______ ____
ROOT
ATOM      1  N   UNL     1       6.698   5.590  17.839  0.00  0.00    +0.000 NA
ATOM      2  C   UNL     1       7.156   4.559  16.894  0.00  0.00    +0.000 C 
ATOM      3  C   UNL     1       6.088   4.266  15.845  0.00  0.00    +0.000 C 
ATOM      4  C   UNL     1       4.802   3.774  16.490  0.00  0.00    +0.000 C 
ATOM      5  C   UNL     1       4.329   4.746  17.584  0.00  0.00    +0.000 C 
ATOM      6  C   UNL     1       5.482   5.128  18.545  0.00  0.00    +0.000 C 
ENDROOT
BRANCH   5   7
ATOM      7  C   UNL     1       3.141   4.167  18.339  0.00  0.00    +0.000 A 
ATOM      8  C   UNL     1       1.974   3.810  17.652  0.00  0.00    +0.000 A 
ATOM      9  C   UNL     1       0.886   3.268  18.338  0.00  0.00    +0.000 A 
ATOM     10  C   UNL     1       0.947   3.077  19.719  0.00  0.00    +0.000 A 
ATOM     11  C   UNL     1       2.100   3.426  20.426  0.00  0.00    +0.000 A 
ATOM     12  C   UNL     1       2.195   3.225  21.908  0.00  0.00    +0.000 C 
ATOM     13  C   UNL     1       3.188   3.968  19.729  0.00  0.00    +0.000 A 
ENDBRANCH   5   7
BRANCH   1  14
ATOM     14  C   UNL     1       7.739   5.941  18.826  0.00  0.00    +0.000 C 
BRANCH  14  16
ATOM     15  C   UNL     1       7.625   8.093  17.496  0.00  0.00    +0.000 C 
ATOM     16  C   UNL     1       8.290   7.365  18.655  0.00  0.00    +0.000 C 
ENDBRANCH  14  16
ENDBRANCH   1  14
TORSDOF 3
ENDMDL
MODEL 5
REMARK VINA RESULT:      -6.9      0.972      1.044
REMARK  Name = 
REMARK  5 active torsions:
REMARK  status: ('A' for Active; 'I' for Inactive)
REMARK    1  A    between atoms: C_1  and  C_2
REMARK    2  A    between atoms: C_2  and  C_3
REMARK    3  A    between atoms: C_3  and  N_4
REMARK    4  A    between atoms: C_8  and  C_9
REMARK    5  A    between atoms: C_13  and  C_14
REMARK                            x       y       z     vdW  Elec       q    Type
REMARK                         _______ _______ _______ _____ _____    ______ ____
ROOT
ATOM      1  N   UNL     1       6.917   4.702  16.098  0.00  0.00    +0.000 NA
ATOM      2  C   UNL     1       7.193   5.986  16.762  0.00  0.00    +0.000 C 
ATOM      3  C   UNL     1       7.159   5.835  18.280  0.00  0.00    +0.000 C 
ATOM      4  C   UNL     1       5.800   5.343  18.754  0.00  0.00    +0.000 C 
ATOM      5  C   UNL     1       5.387   4.065  18.006  0.00  0.00    +0.000 C 
ATOM      6  C   UNL     1       5.573   4.213  16.476  0.00  0.00    +0.000 C 
ENDROOT
BRANCH   5   7
ATOM      7  C   UNL     1       3.960   3.674  18.361  0.00  0.00    +0.000 A 
ATOM      8  C   UNL     1       3.366   2.553  17.768  0.00  0.00    +0.000 A 
ATOM      9  C   UNL     1       2.061   2.184  18.099  0.00  0.00    +0.000 A 
ATOM     10  C   UNL     1       1.331   2.930  19.025  0.00  0.00    +0.000 A 
ATOM     11  C   UNL     1       1.902   4.053  19.629  0.00  0.00    +0.000 A 
ATOM     12  C   UNL     1       1.142   4.868  20.632  0.00  0.00    +0.000 C 
ATOM     13  C   UNL     1       3.213   4.415  19.292  0.00  0.00    +0.000 A 
ENDBRANCH   5   7
BRANCH   1  14
ATOM     14  C   UNL     1       7.011   4.805  14.628  0.00  0.00    +0.000 C 
BRANCH  14  16
ATOM     15  C   UNL     1       6.376   3.595  12.496  0.00  0.00    +0.000 C 
ATOM     16  C   UNL     1       5.924   4.011  13.888  0.00  0.00    +0.000 C 
ENDBRANCH  14  16
ENDBRANCH   1  14
TORSDOF 3
ENDMDL
MODEL 6
REMARK VINA RESULT:      -6.7      0.957      1.360
REMARK  Name = 
REMARK  5 active torsions:
REMARK  status: ('A' for Active; 'I' for Inactive)
REMARK    1  A    between atoms: C_1  and  C_2
REMARK    2  A    between atoms: C_2  and  C_3
REMARK    3  A    between atoms: C_3  and  N_4
REMARK    4  A    between atoms: C_8  and  C_9
REMARK    5  A    between atoms: C_13  and  C_14
REMARK                            x       y       z     vdW  Elec       q    Type
REMARK                         _______ _______ _______ _____ _____    ______ ____
ROOT
ATOM      1  N   UNL     1       6.573   4.725  16.382  0.00  0.00    +0.000 NA
ATOM      2  C   UNL     1       7.311   5.793  17.078  0.00  0.00    +0.000 C 
ATOM      3  C   UNL     1       7.456   5.477  18.563  0.00  0.00    +0.000 C 
ATOM      4  C   UNL     1       6.098   5.331  19.231  0.00  0.00    +0.000 C 
ATOM      5  C   UNL     1       5.221   4.318  18.478  0.00  0.00    +0.000 C 
ATOM      6  C   UNL     1       5.215   4.590  16.954  0.00  0.00    +0.000 C 
ENDROOT
BRANCH   5   7
ATOM      7  C   UNL     1       3.810   4.302  19.049  0.00  0.00    +0.000 A 
ATOM      8  C   UNL     1       3.389   5.316  19.918  0.00  0.00    +0.000 A 
ATOM      9  C   UNL     1       2.092   5.311  20.436  0.00  0.00    +0.000 A 
ATOM     10  C   UNL     1       1.200   4.294  20.094  0.00  0.00    +0.000 A 
ATOM     11  C   UNL     1       1.598   3.272  19.229  0.00  0.00    +0.000 A 
ATOM     12  C   UNL     1       0.657   2.172  18.840  0.00  0.00    +0.000 C 
ATOM     13  C   UNL     1       2.900   3.285  18.713  0.00  0.00    +0.000 A 
ENDBRANCH   5   7
BRANCH   1  14
ATOM     14  C   UNL     1       6.476   4.974  14.930  0.00  0.00    +0.000 C 
BRANCH  14  16
ATOM     15  C   UNL     1       6.337   3.709  12.740  0.00  0.00    +0.000 C 
ATOM     16  C   UNL     1       5.797   3.832  14.157  0.00  0.00    +0.000 C 
ENDBRANCH  14  16
ENDBRANCH   1  14
TORSDOF 3
ENDMDL
MODEL 7
REMARK VINA RESULT:      -6.7      1.260      1.397
REMARK  Name = 
REMARK  5 active torsions:
REMARK  status: ('A' for Active; 'I' for Inactive)
REMARK    1  A    between atoms: C_1  and  C_2
REMARK    2  A    between atoms: C_2  and  C_3
REMARK    3  A    between atoms: C_3  and  N_4
REMARK    4  A    between atoms: C_8  and  C_9
REMARK    5  A    between atoms: C_13  and  C_14
REMARK                            x       y       z     vdW  Elec       q    Type
REMARK                         _______ _______ _______ _____ _____    ______ ____
ROOT
ATOM      1  N   UNL     1       6.097   4.961  16.583  0.00  0.00    +0.000 NA
ATOM      2  C   UNL     1       5.581   6.206  15.991  0.00  0.00    +0.000 C 
ATOM      3  C   UNL     1       4.914   7.079  17.049  0.00  0.00    +0.000 C 
ATOM      4  C   UNL     1       3.750   6.354  17.707  0.00  0.00    +0.000 C 
ATOM      5  C   UNL     1       4.190   4.980  18.240  0.00  0.00    +0.000 C 
ATOM      6  C   UNL     1       4.988   4.184  17.179  0.00  0.00    +0.000 C 
ENDROOT
BRANCH   5   7
ATOM      7  C   UNL     1       2.989   4.192  18.744  0.00  0.00    +0.000 A 
ATOM      8  C   UNL     1       1.955   3.843  17.867  0.00  0.00    +0.000 A 
ATOM      9  C   UNL     1       0.857   3.111  18.323  0.00  0.00    +0.000 A 
ATOM     10  C   UNL     1       0.776   2.720  19.660  0.00  0.00    +0.000 A 
ATOM     11  C   UNL     1       1.795   3.057  20.554  0.00  0.00    +0.000 A 
ATOM     12  C   UNL     1       1.736   2.643  21.993  0.00  0.00    +0.000 C 
ATOM     13  C   UNL     1       2.894   3.791  20.088  0.00  0.00    +0.000 A 
ENDBRANCH   5   7
BRANCH   1  14
ATOM     14  C   UNL     1       6.808   4.128  15.592  0.00  0.00    +0.000 C 
BRANCH  14  16
ATOM     15  C   UNL     1       6.081   3.709  13.203  0.00  0.00    +0.000 C 
ATOM     16  C   UNL     1       6.743   4.687  14.162  0.00  0.00    +0.000 C 
ENDBRANCH  14  16
ENDBRANCH   1  14
TORSDOF 3
ENDMDL
MODEL 8
REMARK VINA RESULT:      -6.7      1.528      1.978
REMARK  Name = 
REMARK  5 active torsions:
REMARK  status: ('A' for Active; 'I' for Inactive)
REMARK    1  A    between atoms: C_1  and  C_2
REMARK    2  A    between atoms: C_2  and  C_3
REMARK    3  A    between atoms: C_3  and  N_4
REMARK    4  A    between atoms: C_8  and  C_9
REMARK    5  A    between atoms: C_13  and  C_14
REMARK                            x       y       z     vdW  Elec       q    Type
REMARK                         _______ _______ _______ _____ _____    ______ ____
ROOT
ATOM      1  N   UNL     1       5.872   4.674  16.010  0.00  0.00    +0.000 NA
ATOM      2  C   UNL     1       5.577   5.997  15.435  0.00  0.00    +0.000 C 
ATOM      3  C   UNL     1       5.409   7.044  16.531  0.00  0.00    +0.000 C 
ATOM      4  C   UNL     1       4.273   6.677  17.474  0.00  0.00    +0.000 C 
ATOM      5  C   UNL     1       4.450   5.250  18.018  0.00  0.00    +0.000 C 
ATOM      6  C   UNL     1       4.760   4.241  16.886  0.00  0.00    +0.000 C 
ENDROOT
BRANCH   5   7
ATOM      7  C   UNL     1       3.229   4.829  18.824  0.00  0.00    +0.000 A 
ATOM      8  C   UNL     1       2.822   5.579  19.933  0.00  0.00    +0.000 A 
ATOM      9  C   UNL     1       1.696   5.203  20.668  0.00  0.00    +0.000 A 
ATOM     10  C   UNL     1       0.963   4.072  20.306  0.00  0.00    +0.000 A 
ATOM     11  C   UNL     1       1.351   3.307  19.204  0.00  0.00    +0.000 A 
ATOM     12  C   UNL     1       0.577   2.091  18.790  0.00  0.00    +0.000 C 
ATOM     13  C   UNL     1       2.481   3.693  18.471  0.00  0.00    +0.000 A 
ENDBRANCH   5   7
BRANCH   1  14
ATOM     14  C   UNL     1       6.106   3.655  14.967  0.00  0.00    +0.000 C 
BRANCH  14  16
ATOM     15  C   UNL     1       6.299   3.462  12.449  0.00  0.00    +0.000 C 
ATOM     16  C   UNL     1       5.483   4.015  13.609  0.00  0.00    +0.000 C 
ENDBRANCH  14  16
ENDBRANCH   1  14
TORSDOF 3
ENDMDL
MODEL 9
REMARK VINA RESULT:      -6.6      2.229      6.025
REMARK  Name = 
REMARK  5 active torsions:
REMARK  status: ('A' for Active; 'I' for Inactive)
REMARK    1  A    between atoms: C_1  and  C_2
REMARK    2  A    between atoms: C_2  and  C_3
REMARK    3  A    between atoms: C_3  and  N_4
REMARK    4  A    between atoms: C_8  and  C_9
REMARK    5  A    between atoms: C_13  and  C_14
REMARK                            x       y       z     vdW  Elec       q    Type
REMARK                         _______ _______ _______ _____ _____    ______ ____
ROOT
ATOM      1  N   UNL     1       2.273   5.209  19.808  0.00  0.00    +0.000 NA
ATOM      2  C   UNL     1       2.277   6.671  19.974  0.00  0.00    +0.000 C 
ATOM      3  C   UNL     1       2.268   7.375  18.620  0.00  0.00    +0.000 C 
ATOM      4  C   UNL     1       3.485   6.992  17.793  0.00  0.00    +0.000 C 
ATOM      5  C   UNL     1       3.617   5.464  17.683  0.00  0.00    +0.000 C 
ATOM      6  C   UNL     1       3.478   4.778  19.065  0.00  0.00    +0.000 C 
ENDROOT
BRANCH   5   7
ATOM      7  C   UNL     1       4.924   5.086  17.000  0.00  0.00    +0.000 A 
ATOM      8  C   UNL     1       6.130   5.129  17.711  0.00  0.00    +0.000 A 
ATOM      9  C   UNL     1       7.329   4.773  17.092  0.00  0.00    +0.000 A 
ATOM     10  C   UNL     1       7.341   4.372  15.755  0.00  0.00    +0.000 A 
ATOM     11  C   UNL     1       6.150   4.322  15.026  0.00  0.00    +0.000 A 
ATOM     12  C   UNL     1       6.134   3.887  13.592  0.00  0.00    +0.000 C 
ATOM     13  C   UNL     1       4.951   4.679  15.656  0.00  0.00    +0.000 A 
ENDBRANCH   5   7
BRANCH   1  14
ATOM     14  C   UNL     1       2.213   4.503  21.105  0.00  0.00    +0.000 C 
BRANCH  14  16
ATOM     15  C   UNL     1       0.749   2.990  19.699  0.00  0.00    +0.000 C 
ATOM     16  C   UNL     1       1.292   3.274  21.091  0.00  0.00    +0.000 C 
ENDBRANCH  14  16
ENDBRANCH   1  14
TORSDOF 3
ENDMDL
