MODEL 1
REMARK VINA RESULT:      -7.3      0.000      0.000
REMARK  Name = 
REMARK  8 active torsions:
REMARK  status: ('A' for Active; 'I' for Inactive)
REMARK    1  A    between atoms: C_1  and  C_2
REMARK    2  A    between atoms: N_7  and  C_8
REMARK    3  A    between atoms: C_11  and  O_12
REMARK    4  A    between atoms: O_12  and  C_13
REMARK    5  A    between atoms: C_13  and  C_14
REMARK    6  A    between atoms: C_14  and  N_15
REMARK    7  A    between atoms: N_15  and  C_16
REMARK    8  A    between atoms: N_15  and  C_17
REMARK                            x       y       z     vdW  Elec       q    Type
REMARK                         _______ _______ _______ _____ _____    ______ ____
ROOT
ATOM      1  C   UNL     1       5.212   4.867  15.746  0.00  0.00    +0.000 A 
ATOM      2  C   UNL     1       4.990   6.192  16.124  0.00  0.00    +0.000 A 
ATOM      3  C   UNL     1       4.493   6.522  17.382  0.00  0.00    +0.000 A 
ATOM      4  C   UNL     1       4.162   5.537  18.308  0.00  0.00    +0.000 A 
ATOM      5  C   UNL     1       4.305   4.204  17.935  0.00  0.00    +0.000 A 
ATOM      6  C   UNL     1       4.823   3.872  16.667  0.00  0.00    +0.000 A 
ENDROOT
BRANCH   1  13
ATOM      7  C   UNL     1       4.979   2.558  11.365  0.00  0.00    +0.000 C 
ATOM      8  C   UNL     1       5.696   3.429  12.346  0.00  0.00    +0.000 A 
ATOM      9  C   UNL     1       6.992   3.947  11.985  0.00  0.00    +0.000 A 
ATOM     10  C   UNL     1       7.665   4.727  12.833  0.00  0.00    +0.000 A 
ATOM     11  C   UNL     1       7.111   5.062  14.171  0.00  0.00    +0.000 A 
ATOM     12  O   UNL     1       7.851   5.720  14.902  0.00  0.00    +0.000 OA
ATOM     13  N   UNL     1       5.817   4.558  14.468  0.00  0.00    +0.000 N 
ATOM     14  C   UNL     1       5.168   3.745  13.538  0.00  0.00    +0.000 A 
ENDBRANCH   1  13
BRANCH   4  15
ATOM     15  O   UNL     1       3.709   5.792  19.585  0.00  0.00    +0.000 OA
BRANCH  15  16
ATOM     16  C   UNL     1       3.094   4.644  20.186  0.00  0.00    +0.000 C 
BRANCH  16  17
ATOM     17  C   UNL     1       1.583   4.793  20.374  0.00  0.00    +0.000 C 
BRANCH  17  18
ATOM     18  N   UNL     1       0.914   3.474  20.468  0.00  0.00    +0.000 NA
ATOM     19  C   UNL     1       0.950   2.728  19.205  0.00  0.00    +0.000 C 
ATOM     20  C   UNL     1       1.517   2.675  21.533  0.00  0.00    +0.000 C 
ENDBRANCH  17  18
ENDBRANCH  16  17
ENDBRANCH  15  16
ENDBRANCH   4  15
TORSDOF 5
ENDMDL
MODEL 2
REMARK VINA RESULT:      -7.2      0.229      1.093
REMARK  Name = 
REMARK  8 active torsions:
REMARK  status: ('A' for Active; 'I' for Inactive)
REMARK    1  A    between atoms: C_1  and  C_2
REMARK    2  A    between atoms: N_7  and  C_8
REMARK    3  A    between atoms: C_11  and  O_12
REMARK    4  A    between atoms: O_12  and  C_13
REMARK    5  A    between atoms: C_13  and  C_14
REMARK    6  A    between atoms: C_14  and  N_15
REMARK    7  A    between atoms: N_15  and  C_16
REMARK    8  A    between atoms: N_15  and  C_17
REMARK                            x       y       z     vdW  Elec       q    Type
REMARK                         _______ _______ _______ _____ _____    ______ ____
ROOT
ATOM      1  C   UNL     1       5.251   4.993  15.788  0.00  0.00    +0.000 A 
ATOM      2  C   UNL     1       4.894   3.996  16.698  0.00  0.00    +0.000 A 
ATOM      3  C   UNL     1       4.269   4.297  17.905  0.00  0.00    +0.000 A 
ATOM      4  C   UNL     1       4.003   5.613  18.272  0.00  0.00    +0.000 A 
ATOM      5  C   UNL     1       4.410   6.633  17.416  0.00  0.00    +0.000 A 
ATOM      6  C   UNL     1       5.029   6.326  16.188  0.00  0.00    +0.000 A 
ENDROOT
BRANCH   1  13
ATOM      7  C   UNL     1       4.825   2.643  11.442  0.00  0.00    +0.000 C 
ATOM      8  C   UNL     1       5.599   3.496  12.396  0.00  0.00    +0.000 A 
ATOM      9  C   UNL     1       6.907   3.955  12.000  0.00  0.00    +0.000 A 
ATOM     10  C   UNL     1       7.631   4.717  12.823  0.00  0.00    +0.000 A 
ATOM     11  C   UNL     1       7.121   5.090  14.168  0.00  0.00    +0.000 A 
ATOM     12  O   UNL     1       7.904   5.725  14.875  0.00  0.00    +0.000 OA
ATOM     13  N   UNL     1       5.814   4.644  14.500  0.00  0.00    +0.000 N 
ATOM     14  C   UNL     1       5.111   3.848  13.595  0.00  0.00    +0.000 A 
ENDBRANCH   1  13
BRANCH   4  15
ATOM     15  O   UNL     1       3.347   5.980  19.428  0.00  0.00    +0.000 OA
BRANCH  15  16
ATOM     16  C   UNL     1       2.905   4.848  20.189  0.00  0.00    +0.000 C 
BRANCH  16  17
ATOM     17  C   UNL     1       1.385   4.678  20.201  0.00  0.00    +0.000 C 
BRANCH  17  18
ATOM     18  N   UNL     1       0.998   3.250  20.275  0.00  0.00    +0.000 NA
ATOM     19  C   UNL     1       0.965   2.601  18.960  0.00  0.00    +0.000 C 
ATOM     20  C   UNL     1       1.904   2.525  21.163  0.00  0.00    +0.000 C 
ENDBRANCH  17  18
ENDBRANCH  16  17
ENDBRANCH  15  16
ENDBRANCH   4  15
TORSDOF 5
ENDMDL
MODEL 3
REMARK VINA RESULT:      -6.8      1.049      1.499
REMARK  Name = 
REMARK  8 active torsions:
REMARK  status: ('A' for Active; 'I' for Inactive)
REMARK    1  A    between atoms: C_1  and  C_2
REMARK    2  A    between atoms: N_7  and  C_8
REMARK    3  A    between atoms: C_11  and  O_12
REMARK    4  A    between atoms: O_12  and  C_13
REMARK    5  A    between atoms: C_13  and  C_14
REMARK    6  A    between atoms: C_14  and  N_15
REMARK    7  A    between atoms: N_15  and  C_16
REMARK    8  A    between atoms: N_15  and  C_17
REMARK                            x       y       z     vdW  Elec       q    Type
REMARK                         _______ _______ _______ _____ _____    ______ ____
ROOT
ATOM      1  C   UNL     1       5.849   4.894  15.696  0.00  0.00    +0.000 A 
ATOM      2  C   UNL     1       6.462   4.236  16.764  0.00  0.00    +0.000 A 
ATOM      3  C   UNL     1       6.065   4.449  18.081  0.00  0.00    +0.000 A 
ATOM      4  C   UNL     1       5.058   5.358  18.394  0.00  0.00    +0.000 A 
ATOM      5  C   UNL     1       4.476   6.082  17.356  0.00  0.00    +0.000 A 
ATOM      6  C   UNL     1       4.869   5.853  16.022  0.00  0.00    +0.000 A 
ENDROOT
BRANCH   1  13
ATOM      7  C   UNL     1       4.848   2.572  11.431  0.00  0.00    +0.000 C 
ATOM      8  C   UNL     1       5.726   3.447  12.267  0.00  0.00    +0.000 A 
ATOM      9  C   UNL     1       6.937   3.966  11.681  0.00  0.00    +0.000 A 
ATOM     10  C   UNL     1       7.748   4.750  12.394  0.00  0.00    +0.000 A 
ATOM     11  C   UNL     1       7.439   5.088  13.809  0.00  0.00    +0.000 A 
ATOM     12  O   UNL     1       8.296   5.748  14.396  0.00  0.00    +0.000 OA
ATOM     13  N   UNL     1       6.219   4.583  14.332  0.00  0.00    +0.000 N 
ATOM     14  C   UNL     1       5.417   3.767  13.534  0.00  0.00    +0.000 A 
ENDBRANCH   1  13
BRANCH   4  15
ATOM     15  O   UNL     1       4.583   5.585  19.668  0.00  0.00    +0.000 OA
BRANCH  15  16
ATOM     16  C   UNL     1       3.181   5.307  19.786  0.00  0.00    +0.000 C 
BRANCH  16  17
ATOM     17  C   UNL     1       2.871   3.824  19.997  0.00  0.00    +0.000 C 
BRANCH  17  18
ATOM     18  N   UNL     1       2.227   3.228  18.803  0.00  0.00    +0.000 NA
ATOM     19  C   UNL     1       3.072   2.225  18.144  0.00  0.00    +0.000 C 
ATOM     20  C   UNL     1       0.942   2.634  19.164  0.00  0.00    +0.000 C 
ENDBRANCH  17  18
ENDBRANCH  16  17
ENDBRANCH  15  16
ENDBRANCH   4  15
TORSDOF 5
ENDMDL
MODEL 4
REMARK VINA RESULT:      -6.7      3.667      7.357
REMARK  Name = 
REMARK  8 active torsions:
REMARK  status: ('A' for Active; 'I' for Inactive)
REMARK    1  A    between atoms: C_1  and  C_2
REMARK    2  A    between atoms: N_7  and  C_8
REMARK    3  A    between atoms: C_11  and  O_12
REMARK    4  A    between atoms: O_12  and  C_13
REMARK    5  A    between atoms: C_13  and  C_14
REMARK    6  A    between atoms: C_14  and  N_15
REMARK    7  A    between atoms: N_15  and  C_16
REMARK    8  A    between atoms: N_15  and  C_17
REMARK                            x       y       z     vdW  Elec       q    Type
REMARK                         _______ _______ _______ _____ _____    ______ ____
ROOT
ATOM      1  C   UNL     1       4.565   5.083  18.340  0.00  0.00    +0.000 A 
ATOM      2  C   UNL     1       4.295   6.091  17.413  0.00  0.00    +0.000 A 
ATOM      3  C   UNL     1       5.288   6.954  16.958  0.00  0.00    +0.000 A 
ATOM      4  C   UNL     1       6.593   6.869  17.437  0.00  0.00    +0.000 A 
ATOM      5  C   UNL     1       6.877   5.919  18.415  0.00  0.00    +0.000 A 
ATOM      6  C   UNL     1       5.873   5.037  18.862  0.00  0.00    +0.000 A 
ENDROOT
BRANCH   1  13
ATOM      7  C   UNL     1       1.838   2.960  21.895  0.00  0.00    +0.000 C 
ATOM      8  C   UNL     1       2.219   3.114  20.458  0.00  0.00    +0.000 A 
ATOM      9  C   UNL     1       1.537   2.307  19.477  0.00  0.00    +0.000 A 
ATOM     10  C   UNL     1       1.849   2.413  18.183  0.00  0.00    +0.000 A 
ATOM     11  C   UNL     1       2.915   3.342  17.726  0.00  0.00    +0.000 A 
ATOM     12  O   UNL     1       3.176   3.299  16.524  0.00  0.00    +0.000 OA
ATOM     13  N   UNL     1       3.534   4.141  18.723  0.00  0.00    +0.000 N 
ATOM     14  C   UNL     1       3.164   3.979  20.059  0.00  0.00    +0.000 A 
ENDBRANCH   1  13
BRANCH   4  15
ATOM     15  O   UNL     1       7.635   7.658  16.999  0.00  0.00    +0.000 OA
BRANCH  15  16
ATOM     16  C   UNL     1       8.299   8.334  18.075  0.00  0.00    +0.000 C 
BRANCH  16  17
ATOM     17  C   UNL     1       8.166   9.856  18.013  0.00  0.00    +0.000 C 
BRANCH  17  18
ATOM     18  N   UNL     1       9.392  10.530  18.501  0.00  0.00    +0.000 NA
ATOM     19  C   UNL     1       9.574  11.866  17.923  0.00  0.00    +0.000 C 
ATOM     20  C   UNL     1       9.375  10.618  19.959  0.00  0.00    +0.000 C 
ENDBRANCH  17  18
ENDBRANCH  16  17
ENDBRANCH  15  16
ENDBRANCH   4  15
TORSDOF 5
ENDMDL
MODEL 5
REMARK VINA RESULT:      -6.7      4.014      7.398
REMARK  Name = 
REMARK  8 active torsions:
REMARK  status: ('A' for Active; 'I' for Inactive)
REMARK    1  A    between atoms: C_1  and  C_2
REMARK    2  A    between atoms: N_7  and  C_8
REMARK    3  A    between atoms: C_11  and  O_12
REMARK    4  A    between atoms: O_12  and  C_13
REMARK    5  A    between atoms: C_13  and  C_14
REMARK    6  A    between atoms: C_14  and  N_15
REMARK    7  A    between atoms: N_15  and  C_16
REMARK    8  A    between atoms: N_15  and  C_17
REMARK                            x       y       z     vdW  Elec       q    Type
REMARK                         _______ _______ _______ _____ _____    ______ ____
ROOT
ATOM      1  C   UNL     1       5.110   5.172  18.382  0.00  0.00    +0.000 A 
ATOM      2  C   UNL     1       4.796   6.211  17.504  0.00  0.00    +0.000 A 
ATOM      3  C   UNL     1       5.746   7.150  17.111  0.00  0.00    +0.000 A 
ATOM      4  C   UNL     1       7.046   7.113  17.607  0.00  0.00    +0.000 A 
ATOM      5  C   UNL     1       7.370   6.131  18.540  0.00  0.00    +0.000 A 
ATOM      6  C   UNL     1       6.411   5.172  18.924  0.00  0.00    +0.000 A 
ENDROOT
BRANCH   1  13
ATOM      7  C   UNL     1       1.711   3.353  21.501  0.00  0.00    +0.000 C 
ATOM      8  C   UNL     1       2.484   3.279  20.223  0.00  0.00    +0.000 A 
ATOM      9  C   UNL     1       2.225   2.180  19.326  0.00  0.00    +0.000 A 
ATOM     10  C   UNL     1       2.895   2.077  18.176  0.00  0.00    +0.000 A 
ATOM     11  C   UNL     1       3.933   3.073  17.802  0.00  0.00    +0.000 A 
ATOM     12  O   UNL     1       4.545   2.835  16.761  0.00  0.00    +0.000 OA
ATOM     13  N   UNL     1       4.128   4.156  18.699  0.00  0.00    +0.000 N 
ATOM     14  C   UNL     1       3.397   4.203  19.887  0.00  0.00    +0.000 A 
ENDBRANCH   1  13
BRANCH   4  15
ATOM     15  O   UNL     1       8.048   7.981  17.228  0.00  0.00    +0.000 OA
BRANCH  15  16
ATOM     16  C   UNL     1       7.896   9.280  17.815  0.00  0.00    +0.000 C 
BRANCH  16  17
ATOM     17  C   UNL     1       9.002   9.630  18.812  0.00  0.00    +0.000 C 
BRANCH  17  18
ATOM     18  N   UNL     1       9.258  11.089  18.851  0.00  0.00    +0.000 NA
ATOM     19  C   UNL     1       9.445  11.597  20.215  0.00  0.00    +0.000 C 
ATOM     20  C   UNL     1      10.424  11.421  18.035  0.00  0.00    +0.000 C 
ENDBRANCH  17  18
ENDBRANCH  16  17
ENDBRANCH  15  16
ENDBRANCH   4  15
TORSDOF 5
ENDMDL
MODEL 6
REMARK VINA RESULT:      -6.7      4.299      7.474
REMARK  Name = 
REMARK  8 active torsions:
REMARK  status: ('A' for Active; 'I' for Inactive)
REMARK    1  A    between atoms: C_1  and  C_2
REMARK    2  A    between atoms: N_7  and  C_8
REMARK    3  A    between atoms: C_11  and  O_12
REMARK    4  A    between atoms: O_12  and  C_13
REMARK    5  A    between atoms: C_13  and  C_14
REMARK    6  A    between atoms: C_14  and  N_15
REMARK    7  A    between atoms: N_15  and  C_16
REMARK    8  A    between atoms: N_15  and  C_17
REMARK                            x       y       z     vdW  Elec       q    Type
REMARK                         _______ _______ _______ _____ _____    ______ ____
ROOT
ATOM      1  C   UNL     1       5.344   5.536  18.203  0.00  0.00    +0.000 A 
ATOM      2  C   UNL     1       6.404   5.226  19.057  0.00  0.00    +0.000 A 
ATOM      3  C   UNL     1       7.537   6.030  19.139  0.00  0.00    +0.000 A 
ATOM      4  C   UNL     1       7.677   7.164  18.344  0.00  0.00    +0.000 A 
ATOM      5  C   UNL     1       6.668   7.459  17.431  0.00  0.00    +0.000 A 
ATOM      6  C   UNL     1       5.515   6.653  17.361  0.00  0.00    +0.000 A 
ENDROOT
BRANCH   1  13
ATOM      7  C   UNL     1       1.096   4.235  20.406  0.00  0.00    +0.000 C 
ATOM      8  C   UNL     1       2.081   4.106  19.288  0.00  0.00    +0.000 A 
ATOM      9  C   UNL     1       1.798   3.171  18.227  0.00  0.00    +0.000 A 
ATOM     10  C   UNL     1       2.652   3.025  17.213  0.00  0.00    +0.000 A 
ATOM     11  C   UNL     1       3.919   3.800  17.160  0.00  0.00    +0.000 A 
ATOM     12  O   UNL     1       4.670   3.527  16.224  0.00  0.00    +0.000 OA
ATOM     13  N   UNL     1       4.138   4.734  18.208  0.00  0.00    +0.000 N 
ATOM     14  C   UNL     1       3.207   4.835  19.241  0.00  0.00    +0.000 A 
ENDBRANCH   1  13
BRANCH   4  15
ATOM     15  O   UNL     1       8.749   8.029  18.405  0.00  0.00    +0.000 OA
BRANCH  15  16
ATOM     16  C   UNL     1       8.376   9.382  18.110  0.00  0.00    +0.000 C 
BRANCH  16  17
ATOM     17  C   UNL     1       9.236  10.421  18.830  0.00  0.00    +0.000 C 
BRANCH  17  18
ATOM     18  N   UNL     1       9.707  11.476  17.903  0.00  0.00    +0.000 NA
ATOM     19  C   UNL     1       9.002  12.750  18.086  0.00  0.00    +0.000 C 
ATOM     20  C   UNL     1      11.146  11.679  18.055  0.00  0.00    +0.000 C 
ENDBRANCH  17  18
ENDBRANCH  16  17
ENDBRANCH  15  16
ENDBRANCH   4  15
TORSDOF 5
ENDMDL
MODEL 7
REMARK VINA RESULT:      -6.6      4.091      7.488
REMARK  Name = 
REMARK  8 active torsions:
REMARK  status: ('A' for Active; 'I' for Inactive)
REMARK    1  A    between atoms: C_1  and  C_2
REMARK    2  A    between atoms: N_7  and  C_8
REMARK    3  A    between atoms: C_11  and  O_12
REMARK    4  A    between atoms: O_12  and  C_13
REMARK    5  A    between atoms: C_13  and  C_14
REMARK    6  A    between atoms: C_14  and  N_15
REMARK    7  A    between atoms: N_15  and  C_16
REMARK    8  A    between atoms: N_15  and  C_17
REMARK                            x       y       z     vdW  Elec       q    Type
REMARK                         _______ _______ _______ _____ _____    ______ ____
ROOT
ATOM      1  C   UNL     1       5.163   5.142  18.195  0.00  0.00    +0.000 A 
ATOM      2  C   UNL     1       6.473   5.081  18.672  0.00  0.00    +0.000 A 
ATOM      3  C   UNL     1       7.412   6.061  18.363  0.00  0.00    +0.000 A 
ATOM      4  C   UNL     1       7.092   7.132  17.533  0.00  0.00    +0.000 A 
ATOM      5  C   UNL     1       5.813   7.183  16.985  0.00  0.00    +0.000 A 
ATOM      6  C   UNL     1       4.860   6.198  17.311  0.00  0.00    +0.000 A 
ENDROOT
BRANCH   1  13
ATOM      7  C   UNL     1       2.006   3.450  21.624  0.00  0.00    +0.000 C 
ATOM      8  C   UNL     1       2.658   3.344  20.282  0.00  0.00    +0.000 A 
ATOM      9  C   UNL     1       2.285   2.248  19.422  0.00  0.00    +0.000 A 
ATOM     10  C   UNL     1       2.845   2.117  18.218  0.00  0.00    +0.000 A 
ATOM     11  C   UNL     1       3.875   3.077  17.743  0.00  0.00    +0.000 A 
ATOM     12  O   UNL     1       4.383   2.814  16.653  0.00  0.00    +0.000 OA
ATOM     13  N   UNL     1       4.183   4.160  18.608  0.00  0.00    +0.000 N 
ATOM     14  C   UNL     1       3.565   4.237  19.857  0.00  0.00    +0.000 A 
ENDBRANCH   1  13
BRANCH   4  15
ATOM     15  O   UNL     1       7.955   8.161  17.223  0.00  0.00    +0.000 OA
BRANCH  15  16
ATOM     16  C   UNL     1       8.421   8.854  18.389  0.00  0.00    +0.000 C 
BRANCH  16  17
ATOM     17  C   UNL     1       8.693  10.339  18.146  0.00  0.00    +0.000 C 
BRANCH  17  18
ATOM     18  N   UNL     1       9.987  10.759  18.734  0.00  0.00    +0.000 NA
ATOM     19  C   UNL     1      10.709  11.718  17.891  0.00  0.00    +0.000 C 
ATOM     20  C   UNL     1       9.778  11.326  20.064  0.00  0.00    +0.000 C 
ENDBRANCH  17  18
ENDBRANCH  16  17
ENDBRANCH  15  16
ENDBRANCH   4  15
TORSDOF 5
ENDMDL
MODEL 8
REMARK VINA RESULT:      -6.5      0.900      1.029
REMARK  Name = 
REMARK  8 active torsions:
REMARK  status: ('A' for Active; 'I' for Inactive)
REMARK    1  A    between atoms: C_1  and  C_2
REMARK    2  A    between atoms: N_7  and  C_8
REMARK    3  A    between atoms: C_11  and  O_12
REMARK    4  A    between atoms: O_12  and  C_13
REMARK    5  A    between atoms: C_13  and  C_14
REMARK    6  A    between atoms: C_14  and  N_15
REMARK    7  A    between atoms: N_15  and  C_16
REMARK    8  A    between atoms: N_15  and  C_17
REMARK                            x       y       z     vdW  Elec       q    Type
REMARK                         _______ _______ _______ _____ _____    ______ ____
ROOT
ATOM      1  C   UNL     1       5.628   4.353  15.872  0.00  0.00    +0.000 A 
ATOM      2  C   UNL     1       4.256   4.331  16.127  0.00  0.00    +0.000 A 
ATOM      3  C   UNL     1       3.746   4.509  17.411  0.00  0.00    +0.000 A 
ATOM      4  C   UNL     1       4.589   4.683  18.505  0.00  0.00    +0.000 A 
ATOM      5  C   UNL     1       5.965   4.638  18.292  0.00  0.00    +0.000 A 
ATOM      6  C   UNL     1       6.478   4.474  16.990  0.00  0.00    +0.000 A 
ENDROOT
BRANCH   1  13
ATOM      7  C   UNL     1       5.330   2.336  11.352  0.00  0.00    +0.000 C 
ATOM      8  C   UNL     1       5.974   3.270  12.326  0.00  0.00    +0.000 A 
ATOM      9  C   UNL     1       7.091   4.065  11.879  0.00  0.00    +0.000 A 
ATOM     10  C   UNL     1       7.695   4.909  12.718  0.00  0.00    +0.000 A 
ATOM     11  C   UNL     1       7.250   5.035  14.131  0.00  0.00    +0.000 A 
ATOM     12  O   UNL     1       7.929   5.781  14.837  0.00  0.00    +0.000 OA
ATOM     13  N   UNL     1       6.125   4.259  14.516  0.00  0.00    +0.000 N 
ATOM     14  C   UNL     1       5.541   3.393  13.590  0.00  0.00    +0.000 A 
ENDBRANCH   1  13
BRANCH   4  15
ATOM     15  O   UNL     1       4.155   4.910  19.793  0.00  0.00    +0.000 OA
BRANCH  15  16
ATOM     16  C   UNL     1       2.778   5.305  19.844  0.00  0.00    +0.000 C 
BRANCH  16  17
ATOM     17  C   UNL     1       2.080   4.913  21.147  0.00  0.00    +0.000 C 
BRANCH  17  18
ATOM     18  N   UNL     1       1.357   3.627  21.012  0.00  0.00    +0.000 NA
ATOM     19  C   UNL     1       0.987   3.326  19.624  0.00  0.00    +0.000 C 
ATOM     20  C   UNL     1       2.159   2.535  21.559  0.00  0.00    +0.000 C 
ENDBRANCH  17  18
ENDBRANCH  16  17
ENDBRANCH  15  16
ENDBRANCH   4  15
TORSDOF 5
ENDMDL
MODEL 9
REMARK VINA RESULT:      -6.5      4.564      6.257
REMARK  Name = 
REMARK  8 active torsions:
REMARK  status: ('A' for Active; 'I' for Inactive)
REMARK    1  A    between atoms: C_1  and  C_2
REMARK    2  A    between atoms: N_7  and  C_8
REMARK    3  A    between atoms: C_11  and  O_12
REMARK    4  A    between atoms: O_12  and  C_13
REMARK    5  A    between atoms: C_13  and  C_14
REMARK    6  A    between atoms: C_14  and  N_15
REMARK    7  A    between atoms: N_15  and  C_16
REMARK    8  A    between atoms: N_15  and  C_17
REMARK                            x       y       z     vdW  Elec       q    Type
REMARK                         _______ _______ _______ _____ _____    ______ ____
ROOT
ATOM      1  C   UNL     1       2.439   7.150  18.534  0.00  0.00    +0.000 A 
ATOM      2  C   UNL     1       2.080   7.410  19.858  0.00  0.00    +0.000 A 
ATOM      3  C   UNL     1       1.477   8.607  20.232  0.00  0.00    +0.000 A 
ATOM      4  C   UNL     1       1.237   9.616  19.303  0.00  0.00    +0.000 A 
ATOM      5  C   UNL     1       1.648   9.415  17.988  0.00  0.00    +0.000 A 
ATOM      6  C   UNL     1       2.244   8.196  17.608  0.00  0.00    +0.000 A 
ENDROOT
BRANCH   1  13
ATOM      7  C   UNL     1       1.927   2.225  18.282  0.00  0.00    +0.000 C 
ATOM      8  C   UNL     1       2.721   3.469  18.045  0.00  0.00    +0.000 A 
ATOM      9  C   UNL     1       4.023   3.348  17.438  0.00  0.00    +0.000 A 
ATOM     10  C   UNL     1       4.764   4.435  17.211  0.00  0.00    +0.000 A 
ATOM     11  C   UNL     1       4.279   5.787  17.595  0.00  0.00    +0.000 A 
ATOM     12  O   UNL     1       5.077   6.707  17.416  0.00  0.00    +0.000 OA
ATOM     13  N   UNL     1       2.978   5.860  18.158  0.00  0.00    +0.000 N 
ATOM     14  C   UNL     1       2.256   4.685  18.372  0.00  0.00    +0.000 A 
ENDBRANCH   1  13
BRANCH   4  15
ATOM     15  O   UNL     1       0.604  10.806  19.594  0.00  0.00    +0.000 OA
BRANCH  15  16
ATOM     16  C   UNL     1      -0.350  10.672  20.656  0.00  0.00    +0.000 C 
BRANCH  16  17
ATOM     17  C   UNL     1      -0.281  11.806  21.681  0.00  0.00    +0.000 C 
BRANCH  17  18
ATOM     18  N   UNL     1      -0.695  11.348  23.028  0.00  0.00    +0.000 NA
ATOM     19  C   UNL     1      -2.096  11.662  23.329  0.00  0.00    +0.000 C 
ATOM     20  C   UNL     1      -0.467   9.911  23.166  0.00  0.00    +0.000 C 
ENDBRANCH  17  18
ENDBRANCH  16  17
ENDBRANCH  15  16
ENDBRANCH   4  15
TORSDOF 5
ENDMDL
