MODEL 1
REMARK VINA RESULT:      -9.3      0.000      0.000
REMARK  Name = 
REMARK  4 active torsions:
REMARK  status: ('A' for Active; 'I' for Inactive)
REMARK    1  A    between atoms: C_2  and  C_20
REMARK    2  A    between atoms: N_3  and  C_4
REMARK    3  A    between atoms: C_9  and  C_10
REMARK    4  A    between atoms: C_23  and  N_24
REMARK                            x       y       z     vdW  Elec       q    Type
REMARK                         _______ _______ _______ _____ _____    ______ ____
ROOT
ATOM      1  O   UNL     1       8.134   6.749  18.602  0.00  0.00    +0.000 OA
ATOM      2  C   UNL     1       7.726   7.683  17.933  0.00  0.00    +0.000 C 
ATOM      3  N   UNL     1       6.735   7.585  16.958  0.00  0.00    +0.000 N 
ATOM      4  H   UNL     1       6.917   8.170  16.150  0.00  0.00    +0.000 HD
ENDROOT
BRANCH   3   5
ATOM      5  C   UNL     1       6.266   6.292  16.616  0.00  0.00    +0.000 A 
ATOM      6  C   UNL     1       7.021   5.586  15.661  0.00  0.00    +0.000 A 
ATOM      7  C   UNL     1       6.656   4.297  15.270  0.00  0.00    +0.000 A 
ATOM      8  C   UNL     1       5.519   3.710  15.806  0.00  0.00    +0.000 A 
ATOM      9  C   UNL     1       4.752   4.412  16.737  0.00  0.00    +0.000 A 
ATOM     10  C   UNL     1       5.107   5.710  17.162  0.00  0.00    +0.000 A 
BRANCH  10  11
ATOM     11  C   UNL     1       4.138   6.353  18.118  0.00  0.00    +0.000 C 
ATOM     12  O   UNL     1       4.086   5.897  19.257  0.00  0.00    +0.000 OA
ATOM     13  N   UNL     1       3.358   7.388  17.640  0.00  0.00    +0.000 N 
ATOM     14  C   UNL     1       2.428   8.102  18.407  0.00  0.00    +0.000 A 
ATOM     15  C   UNL     1       1.778   9.186  17.819  0.00  0.00    +0.000 A 
ATOM     16  C   UNL     1       0.861   9.927  18.577  0.00  0.00    +0.000 A 
ATOM     17  C   UNL     1       0.627   9.557  19.890  0.00  0.00    +0.000 A 
ATOM     18  F   UNL     1      -0.236  10.247  20.648  0.00  0.00    +0.000 F 
ATOM     19  C   UNL     1       1.299   8.467  20.401  0.00  0.00    +0.000 A 
ATOM     20  N   UNL     1       2.182   7.741  19.680  0.00  0.00    +0.000 NA
ATOM     21  H   UNL     1       3.499   7.679  16.688  0.00  0.00    +0.000 HD
ENDBRANCH  10  11
ENDBRANCH   3   5
BRANCH   2  22
ATOM     22  C   UNL     1       8.264   9.062  18.186  0.00  0.00    +0.000 A 
ATOM     23  C   UNL     1       7.974  10.178  17.387  0.00  0.00    +0.000 A 
ATOM     24  C   UNL     1       8.477  11.439  17.733  0.00  0.00    +0.000 A 
ATOM     25  C   UNL     1       9.303  11.589  18.852  0.00  0.00    +0.000 A 
ATOM     26  C   UNL     1       9.599  10.472  19.642  0.00  0.00    +0.000 A 
ATOM     27  C   UNL     1       9.071   9.223  19.319  0.00  0.00    +0.000 A 
BRANCH  25  28
ATOM     28  N   UNL     1       9.881  12.851  19.175  0.00  0.00    +0.000 N 
ATOM     29  C   UNL     1       9.198  13.729  20.010  0.00  0.00    +0.000 A 
ATOM     30  C   UNL     1       9.682  14.939  20.311  0.00  0.00    +0.000 A 
ATOM     31  C   UNL     1      10.916  15.382  19.723  0.00  0.00    +0.000 A 
ATOM     32  C   UNL     1      11.614  14.570  18.920  0.00  0.00    +0.000 A 
ATOM     33  C   UNL     1      11.126  13.192  18.618  0.00  0.00    +0.000 A 
ATOM     34  O   UNL     1      11.807  12.482  17.880  0.00  0.00    +0.000 OA
ENDBRANCH  25  28
ENDBRANCH   2  22
TORSDOF 4
ENDMDL
MODEL 2
REMARK VINA RESULT:      -9.2      5.477      7.693
REMARK  Name = 
REMARK  4 active torsions:
REMARK  status: ('A' for Active; 'I' for Inactive)
REMARK    1  A    between atoms: C_2  and  C_20
REMARK    2  A    between atoms: N_3  and  C_4
REMARK    3  A    between atoms: C_9  and  C_10
REMARK    4  A    between atoms: C_23  and  N_24
REMARK                            x       y       z     vdW  Elec       q    Type
REMARK                         _______ _______ _______ _____ _____    ______ ____
ROOT
ATOM      1  O   UNL     1       1.939   5.852  18.103  0.00  0.00    +0.000 OA
ATOM      2  C   UNL     1       2.193   6.567  19.058  0.00  0.00    +0.000 C 
ATOM      3  N   UNL     1       2.754   6.122  20.253  0.00  0.00    +0.000 N 
ATOM      4  H   UNL     1       2.370   6.589  21.067  0.00  0.00    +0.000 HD
ENDROOT
BRANCH   3   5
ATOM      5  C   UNL     1       2.908   4.724  20.433  0.00  0.00    +0.000 A 
ATOM      6  C   UNL     1       2.094   4.128  21.414  0.00  0.00    +0.000 A 
ATOM      7  C   UNL     1       2.154   2.754  21.656  0.00  0.00    +0.000 A 
ATOM      8  C   UNL     1       3.047   1.967  20.943  0.00  0.00    +0.000 A 
ATOM      9  C   UNL     1       3.874   2.554  19.985  0.00  0.00    +0.000 A 
ATOM     10  C   UNL     1       3.823   3.938  19.708  0.00  0.00    +0.000 A 
BRANCH  10  11
ATOM     11  C   UNL     1       4.826   4.422  18.696  0.00  0.00    +0.000 C 
ATOM     12  O   UNL     1       5.727   5.150  19.102  0.00  0.00    +0.000 OA
ATOM     13  N   UNL     1       4.646   4.038  17.382  0.00  0.00    +0.000 N 
ATOM     14  C   UNL     1       5.501   4.386  16.328  0.00  0.00    +0.000 A 
ATOM     15  C   UNL     1       5.249   3.848  15.066  0.00  0.00    +0.000 A 
ATOM     16  C   UNL     1       6.107   4.165  14.004  0.00  0.00    +0.000 A 
ATOM     17  C   UNL     1       7.180   5.007  14.241  0.00  0.00    +0.000 A 
ATOM     18  F   UNL     1       8.027   5.325  13.253  0.00  0.00    +0.000 F 
ATOM     19  C   UNL     1       7.360   5.509  15.513  0.00  0.00    +0.000 A 
ATOM     20  N   UNL     1       6.538   5.215  16.544  0.00  0.00    +0.000 NA
ATOM     21  H   UNL     1       3.872   3.430  17.173  0.00  0.00    +0.000 HD
ENDBRANCH  10  11
ENDBRANCH   3   5
BRANCH   2  22
ATOM     22  C   UNL     1       1.954   8.045  18.955  0.00  0.00    +0.000 A 
ATOM     23  C   UNL     1       2.283   8.819  17.832  0.00  0.00    +0.000 A 
ATOM     24  C   UNL     1       1.970  10.184  17.803  0.00  0.00    +0.000 A 
ATOM     25  C   UNL     1       1.366  10.796  18.907  0.00  0.00    +0.000 A 
ATOM     26  C   UNL     1       1.048  10.024  20.030  0.00  0.00    +0.000 A 
ATOM     27  C   UNL     1       1.326   8.658  20.047  0.00  0.00    +0.000 A 
BRANCH  25  28
ATOM     28  N   UNL     1       1.109  12.197  18.921  0.00  0.00    +0.000 N 
ATOM     29  C   UNL     1       2.104  13.077  19.332  0.00  0.00    +0.000 A 
ATOM     30  C   UNL     1       1.897  14.397  19.399  0.00  0.00    +0.000 A 
ATOM     31  C   UNL     1       0.600  14.934  19.091  0.00  0.00    +0.000 A 
ATOM     32  C   UNL     1      -0.387  14.128  18.682  0.00  0.00    +0.000 A 
ATOM     33  C   UNL     1      -0.163  12.659  18.540  0.00  0.00    +0.000 A 
ATOM     34  O   UNL     1      -1.101  11.961  18.155  0.00  0.00    +0.000 OA
ENDBRANCH  25  28
ENDBRANCH   2  22
TORSDOF 4
ENDMDL
MODEL 3
REMARK VINA RESULT:      -9.1      0.837      1.185
REMARK  Name = 
REMARK  4 active torsions:
REMARK  status: ('A' for Active; 'I' for Inactive)
REMARK    1  A    between atoms: C_2  and  C_20
REMARK    2  A    between atoms: N_3  and  C_4
REMARK    3  A    between atoms: C_9  and  C_10
REMARK    4  A    between atoms: C_23  and  N_24
REMARK                            x       y       z     vdW  Elec       q    Type
REMARK                         _______ _______ _______ _____ _____    ______ ____
ROOT
ATOM      1  O   UNL     1       8.078   6.693  18.542  0.00  0.00    +0.000 OA
ATOM      2  C   UNL     1       7.693   7.643  17.880  0.00  0.00    +0.000 C 
ATOM      3  N   UNL     1       6.709   7.576  16.897  0.00  0.00    +0.000 N 
ATOM      4  H   UNL     1       6.908   8.168  16.098  0.00  0.00    +0.000 HD
ENDROOT
BRANCH   3   5
ATOM      5  C   UNL     1       6.218   6.296  16.535  0.00  0.00    +0.000 A 
ATOM      6  C   UNL     1       6.950   5.602  15.554  0.00  0.00    +0.000 A 
ATOM      7  C   UNL     1       6.563   4.326  15.141  0.00  0.00    +0.000 A 
ATOM      8  C   UNL     1       5.426   3.742  15.681  0.00  0.00    +0.000 A 
ATOM      9  C   UNL     1       4.681   4.434  16.637  0.00  0.00    +0.000 A 
ATOM     10  C   UNL     1       5.059   5.718  17.085  0.00  0.00    +0.000 A 
BRANCH  10  11
ATOM     11  C   UNL     1       4.112   6.353  18.068  0.00  0.00    +0.000 C 
ATOM     12  O   UNL     1       4.105   5.904  19.211  0.00  0.00    +0.000 OA
ATOM     13  N   UNL     1       3.301   7.372  17.610  0.00  0.00    +0.000 N 
ATOM     14  C   UNL     1       2.386   8.077  18.402  0.00  0.00    +0.000 A 
ATOM     15  C   UNL     1       1.699   9.147  17.828  0.00  0.00    +0.000 A 
ATOM     16  C   UNL     1       0.797   9.879  18.611  0.00  0.00    +0.000 A 
ATOM     17  C   UNL     1       0.612   9.515  19.934  0.00  0.00    +0.000 A 
ATOM     18  F   UNL     1      -0.236  10.197  20.715  0.00  0.00    +0.000 F 
ATOM     19  C   UNL     1       1.317   8.439  20.429  0.00  0.00    +0.000 A 
ATOM     20  N   UNL     1       2.187   7.722  19.684  0.00  0.00    +0.000 NA
ATOM     21  H   UNL     1       3.406   7.659  16.651  0.00  0.00    +0.000 HD
ENDBRANCH  10  11
ENDBRANCH   3   5
BRANCH   2  22
ATOM     22  C   UNL     1       8.255   9.008  18.156  0.00  0.00    +0.000 A 
ATOM     23  C   UNL     1       7.976  10.144  17.381  0.00  0.00    +0.000 A 
ATOM     24  C   UNL     1       8.501  11.390  17.747  0.00  0.00    +0.000 A 
ATOM     25  C   UNL     1       9.339  11.505  18.862  0.00  0.00    +0.000 A 
ATOM     26  C   UNL     1       9.624  10.369  19.628  0.00  0.00    +0.000 A 
ATOM     27  C   UNL     1       9.074   9.134  19.285  0.00  0.00    +0.000 A 
BRANCH  25  28
ATOM     28  N   UNL     1       9.939  12.751  19.204  0.00  0.00    +0.000 N 
ATOM     29  C   UNL     1      11.004  13.235  18.452  0.00  0.00    +0.000 A 
ATOM     30  C   UNL     1      11.623  14.380  18.757  0.00  0.00    +0.000 A 
ATOM     31  C   UNL     1      11.226  15.119  19.924  0.00  0.00    +0.000 A 
ATOM     32  C   UNL     1      10.202  14.699  20.675  0.00  0.00    +0.000 A 
ATOM     33  C   UNL     1       9.454  13.457  20.320  0.00  0.00    +0.000 A 
ATOM     34  O   UNL     1       8.516  13.116  21.039  0.00  0.00    +0.000 OA
ENDBRANCH  25  28
ENDBRANCH   2  22
TORSDOF 4
ENDMDL
MODEL 4
REMARK VINA RESULT:      -8.9      5.776      9.577
REMARK  Name = 
REMARK  4 active torsions:
REMARK  status: ('A' for Active; 'I' for Inactive)
REMARK    1  A    between atoms: C_2  and  C_20
REMARK    2  A    between atoms: N_3  and  C_4
REMARK    3  A    between atoms: C_9  and  C_10
REMARK    4  A    between atoms: C_23  and  N_24
REMARK                            x       y       z     vdW  Elec       q    Type
REMARK                         _______ _______ _______ _____ _____    ______ ____
ROOT
ATOM      1  O   UNL     1       0.985  10.708  20.659  0.00  0.00    +0.000 OA
ATOM      2  C   UNL     1       1.355  10.369  19.547  0.00  0.00    +0.000 C 
ATOM      3  N   UNL     1       1.567  11.244  18.483  0.00  0.00    +0.000 N 
ATOM      4  H   UNL     1       1.275  10.859  17.592  0.00  0.00    +0.000 HD
ENDROOT
BRANCH   3   5
ATOM      5  C   UNL     1       1.192  12.600  18.655  0.00  0.00    +0.000 A 
ATOM      6  C   UNL     1       2.228  13.499  18.967  0.00  0.00    +0.000 A 
ATOM      7  C   UNL     1       1.969  14.860  19.137  0.00  0.00    +0.000 A 
ATOM      8  C   UNL     1       0.669  15.334  19.026  0.00  0.00    +0.000 A 
ATOM      9  C   UNL     1      -0.368  14.445  18.740  0.00  0.00    +0.000 A 
ATOM     10  C   UNL     1      -0.132  13.066  18.547  0.00  0.00    +0.000 A 
BRANCH  10  11
ATOM     11  C   UNL     1      -1.365  12.236  18.312  0.00  0.00    +0.000 C 
ATOM     12  O   UNL     1      -1.256  11.267  17.568  0.00  0.00    +0.000 OA
ATOM     13  N   UNL     1      -2.535  12.640  18.925  0.00  0.00    +0.000 N 
ATOM     14  C   UNL     1      -3.759  11.966  18.824  0.00  0.00    +0.000 A 
ATOM     15  C   UNL     1      -4.837  12.435  19.575  0.00  0.00    +0.000 A 
ATOM     16  C   UNL     1      -6.063  11.760  19.505  0.00  0.00    +0.000 A 
ATOM     17  C   UNL     1      -6.167  10.646  18.690  0.00  0.00    +0.000 A 
ATOM     18  F   UNL     1      -7.321   9.971  18.606  0.00  0.00    +0.000 F 
ATOM     19  C   UNL     1      -5.062  10.248  17.969  0.00  0.00    +0.000 A 
ATOM     20  N   UNL     1      -3.875  10.892  18.023  0.00  0.00    +0.000 NA
ATOM     21  H   UNL     1      -2.496  13.449  19.521  0.00  0.00    +0.000 HD
ENDBRANCH  10  11
ENDBRANCH   3   5
BRANCH   2  22
ATOM     22  C   UNL     1       1.669   8.925  19.283  0.00  0.00    +0.000 A 
ATOM     23  C   UNL     1       2.053   8.420  18.032  0.00  0.00    +0.000 A 
ATOM     24  C   UNL     1       2.382   7.066  17.892  0.00  0.00    +0.000 A 
ATOM     25  C   UNL     1       2.293   6.199  18.986  0.00  0.00    +0.000 A 
ATOM     26  C   UNL     1       1.901   6.703  20.231  0.00  0.00    +0.000 A 
ATOM     27  C   UNL     1       1.607   8.058  20.380  0.00  0.00    +0.000 A 
BRANCH  25  28
ATOM     28  N   UNL     1       2.554   4.805  18.843  0.00  0.00    +0.000 N 
ATOM     29  C   UNL     1       1.521   3.942  18.496  0.00  0.00    +0.000 A 
ATOM     30  C   UNL     1       1.709   2.622  18.386  0.00  0.00    +0.000 A 
ATOM     31  C   UNL     1       2.996   2.056  18.685  0.00  0.00    +0.000 A 
ATOM     32  C   UNL     1       4.024   2.847  19.015  0.00  0.00    +0.000 A 
ATOM     33  C   UNL     1       3.855   4.329  19.083  0.00  0.00    +0.000 A 
ATOM     34  O   UNL     1       4.832   5.013  19.386  0.00  0.00    +0.000 OA
ENDBRANCH  25  28
ENDBRANCH   2  22
TORSDOF 4
ENDMDL
MODEL 5
REMARK VINA RESULT:      -8.8      5.458      7.530
REMARK  Name = 
REMARK  4 active torsions:
REMARK  status: ('A' for Active; 'I' for Inactive)
REMARK    1  A    between atoms: C_2  and  C_20
REMARK    2  A    between atoms: N_3  and  C_4
REMARK    3  A    between atoms: C_9  and  C_10
REMARK    4  A    between atoms: C_23  and  N_24
REMARK                            x       y       z     vdW  Elec       q    Type
REMARK                         _______ _______ _______ _____ _____    ______ ____
ROOT
ATOM      1  O   UNL     1       2.005   5.781  18.087  0.00  0.00    +0.000 OA
ATOM      2  C   UNL     1       2.212   6.501  19.050  0.00  0.00    +0.000 C 
ATOM      3  N   UNL     1       2.752   6.068  20.260  0.00  0.00    +0.000 N 
ATOM      4  H   UNL     1       2.333   6.521  21.064  0.00  0.00    +0.000 HD
ENDROOT
BRANCH   3   5
ATOM      5  C   UNL     1       2.944   4.675  20.440  0.00  0.00    +0.000 A 
ATOM      6  C   UNL     1       2.152   4.059  21.427  0.00  0.00    +0.000 A 
ATOM      7  C   UNL     1       2.250   2.688  21.670  0.00  0.00    +0.000 A 
ATOM      8  C   UNL     1       3.158   1.923  20.952  0.00  0.00    +0.000 A 
ATOM      9  C   UNL     1       3.963   2.531  19.988  0.00  0.00    +0.000 A 
ATOM     10  C   UNL     1       3.874   3.912  19.710  0.00  0.00    +0.000 A 
BRANCH  10  11
ATOM     11  C   UNL     1       4.858   4.421  18.691  0.00  0.00    +0.000 C 
ATOM     12  O   UNL     1       5.730   5.189  19.087  0.00  0.00    +0.000 OA
ATOM     13  N   UNL     1       4.694   4.012  17.382  0.00  0.00    +0.000 N 
ATOM     14  C   UNL     1       5.535   4.379  16.324  0.00  0.00    +0.000 A 
ATOM     15  C   UNL     1       5.305   3.814  15.069  0.00  0.00    +0.000 A 
ATOM     16  C   UNL     1       6.150   4.150  14.003  0.00  0.00    +0.000 A 
ATOM     17  C   UNL     1       7.189   5.036  14.228  0.00  0.00    +0.000 A 
ATOM     18  F   UNL     1       8.023   5.373  13.235  0.00  0.00    +0.000 F 
ATOM     19  C   UNL     1       7.349   5.562  15.493  0.00  0.00    +0.000 A 
ATOM     20  N   UNL     1       6.539   5.250  16.528  0.00  0.00    +0.000 NA
ATOM     21  H   UNL     1       3.945   3.371  17.183  0.00  0.00    +0.000 HD
ENDBRANCH  10  11
ENDBRANCH   3   5
BRANCH   2  22
ATOM     22  C   UNL     1       1.930   7.972  18.945  0.00  0.00    +0.000 A 
ATOM     23  C   UNL     1       2.157   8.734  17.790  0.00  0.00    +0.000 A 
ATOM     24  C   UNL     1       1.811  10.092  17.765  0.00  0.00    +0.000 A 
ATOM     25  C   UNL     1       1.276  10.707  18.903  0.00  0.00    +0.000 A 
ATOM     26  C   UNL     1       1.059   9.946  20.057  0.00  0.00    +0.000 A 
ATOM     27  C   UNL     1       1.370   8.587  20.072  0.00  0.00    +0.000 A 
BRANCH  25  28
ATOM     28  N   UNL     1       0.987  12.102  18.917  0.00  0.00    +0.000 N 
ATOM     29  C   UNL     1      -0.290  12.539  19.253  0.00  0.00    +0.000 A 
ATOM     30  C   UNL     1      -0.619  13.835  19.244  0.00  0.00    +0.000 A 
ATOM     31  C   UNL     1       0.346  14.815  18.825  0.00  0.00    +0.000 A 
ATOM     32  C   UNL     1       1.590  14.445  18.500  0.00  0.00    +0.000 A 
ATOM     33  C   UNL     1       2.000  13.010  18.562  0.00  0.00    +0.000 A 
ATOM     34  O   UNL     1       3.157  12.721  18.259  0.00  0.00    +0.000 OA
ENDBRANCH  25  28
ENDBRANCH   2  22
TORSDOF 4
ENDMDL
MODEL 6
REMARK VINA RESULT:      -8.7      5.998      9.672
REMARK  Name = 
REMARK  4 active torsions:
REMARK  status: ('A' for Active; 'I' for Inactive)
REMARK    1  A    between atoms: C_2  and  C_20
REMARK    2  A    between atoms: N_3  and  C_4
REMARK    3  A    between atoms: C_9  and  C_10
REMARK    4  A    between atoms: C_23  and  N_24
REMARK                            x       y       z     vdW  Elec       q    Type
REMARK                         _______ _______ _______ _____ _____    ______ ____
ROOT
ATOM      1  O   UNL     1       1.103  10.601  20.914  0.00  0.00    +0.000 OA
ATOM      2  C   UNL     1       1.430  10.167  19.822  0.00  0.00    +0.000 C 
ATOM      3  N   UNL     1       1.616  10.949  18.683  0.00  0.00    +0.000 N 
ATOM      4  H   UNL     1       1.289  10.497  17.837  0.00  0.00    +0.000 HD
ENDROOT
BRANCH   3   5
ATOM      5  C   UNL     1       1.264  12.321  18.755  0.00  0.00    +0.000 A 
ATOM      6  C   UNL     1       2.310  13.218  19.040  0.00  0.00    +0.000 A 
ATOM      7  C   UNL     1       2.074  14.592  19.114  0.00  0.00    +0.000 A 
ATOM      8  C   UNL     1       0.788  15.081  18.933  0.00  0.00    +0.000 A 
ATOM      9  C   UNL     1      -0.258  14.195  18.674  0.00  0.00    +0.000 A 
ATOM     10  C   UNL     1      -0.046  12.803  18.577  0.00  0.00    +0.000 A 
BRANCH  10  11
ATOM     11  C   UNL     1      -1.289  11.983  18.360  0.00  0.00    +0.000 C 
ATOM     12  O   UNL     1      -1.170  10.940  17.724  0.00  0.00    +0.000 OA
ATOM     13  N   UNL     1      -2.477  12.475  18.865  0.00  0.00    +0.000 N 
ATOM     14  C   UNL     1      -3.713  11.822  18.766  0.00  0.00    +0.000 A 
ATOM     15  C   UNL     1      -4.814  12.391  19.406  0.00  0.00    +0.000 A 
ATOM     16  C   UNL     1      -6.054  11.741  19.338  0.00  0.00    +0.000 A 
ATOM     17  C   UNL     1      -6.148  10.553  18.634  0.00  0.00    +0.000 A 
ATOM     18  F   UNL     1      -7.315   9.900  18.554  0.00  0.00    +0.000 F 
ATOM     19  C   UNL     1      -5.019  10.057  18.017  0.00  0.00    +0.000 A 
ATOM     20  N   UNL     1      -3.818  10.675  18.071  0.00  0.00    +0.000 NA
ATOM     21  H   UNL     1      -2.445  13.339  19.379  0.00  0.00    +0.000 HD
ENDBRANCH  10  11
ENDBRANCH   3   5
BRANCH   2  22
ATOM     22  C   UNL     1       1.716   8.702  19.667  0.00  0.00    +0.000 A 
ATOM     23  C   UNL     1       1.452   7.741  20.654  0.00  0.00    +0.000 A 
ATOM     24  C   UNL     1       1.701   6.386  20.399  0.00  0.00    +0.000 A 
ATOM     25  C   UNL     1       2.251   5.985  19.177  0.00  0.00    +0.000 A 
ATOM     26  C   UNL     1       2.522   6.946  18.197  0.00  0.00    +0.000 A 
ATOM     27  C   UNL     1       2.243   8.291  18.436  0.00  0.00    +0.000 A 
BRANCH  25  28
ATOM     28  N   UNL     1       2.577   4.620  18.931  0.00  0.00    +0.000 N 
ATOM     29  C   UNL     1       3.598   4.013  19.653  0.00  0.00    +0.000 A 
ATOM     30  C   UNL     1       3.965   2.746  19.431  0.00  0.00    +0.000 A 
ATOM     31  C   UNL     1       3.334   1.991  18.384  0.00  0.00    +0.000 A 
ATOM     32  C   UNL     1       2.340   2.528  17.667  0.00  0.00    +0.000 A 
ATOM     33  C   UNL     1       1.870   3.919  17.937  0.00  0.00    +0.000 A 
ATOM     34  O   UNL     1       0.949   4.366  17.254  0.00  0.00    +0.000 OA
ENDBRANCH  25  28
ENDBRANCH   2  22
TORSDOF 4
ENDMDL
MODEL 7
REMARK VINA RESULT:      -8.6      5.859      9.756
REMARK  Name = 
REMARK  4 active torsions:
REMARK  status: ('A' for Active; 'I' for Inactive)
REMARK    1  A    between atoms: C_2  and  C_20
REMARK    2  A    between atoms: N_3  and  C_4
REMARK    3  A    between atoms: C_9  and  C_10
REMARK    4  A    between atoms: C_23  and  N_24
REMARK                            x       y       z     vdW  Elec       q    Type
REMARK                         _______ _______ _______ _____ _____    ______ ____
ROOT
ATOM      1  O   UNL     1       0.817  11.936  19.802  0.00  0.00    +0.000 OA
ATOM      2  C   UNL     1       0.403  10.854  20.185  0.00  0.00    +0.000 C 
ATOM      3  N   UNL     1      -0.699  10.679  21.020  0.00  0.00    +0.000 N 
ATOM      4  H   UNL     1      -0.570   9.931  21.691  0.00  0.00    +0.000 HD
ENDROOT
BRANCH   3   5
ATOM      5  C   UNL     1      -1.296  11.836  21.582  0.00  0.00    +0.000 A 
ATOM      6  C   UNL     1      -0.830  12.225  22.851  0.00  0.00    +0.000 A 
ATOM      7  C   UNL     1      -1.338  13.360  23.484  0.00  0.00    +0.000 A 
ATOM      8  C   UNL     1      -2.337  14.103  22.869  0.00  0.00    +0.000 A 
ATOM      9  C   UNL     1      -2.821  13.710  21.621  0.00  0.00    +0.000 A 
ATOM     10  C   UNL     1      -2.313  12.576  20.951  0.00  0.00    +0.000 A 
BRANCH  10  11
ATOM     11  C   UNL     1      -2.989  12.252  19.646  0.00  0.00    +0.000 C 
ATOM     12  O   UNL     1      -4.085  12.765  19.439  0.00  0.00    +0.000 OA
ATOM     13  N   UNL     1      -2.344  11.381  18.790  0.00  0.00    +0.000 N 
ATOM     14  C   UNL     1      -2.830  10.997  17.533  0.00  0.00    +0.000 A 
ATOM     15  C   UNL     1      -2.027  10.184  16.734  0.00  0.00    +0.000 A 
ATOM     16  C   UNL     1      -2.485   9.808  15.463  0.00  0.00    +0.000 A 
ATOM     17  C   UNL     1      -3.724  10.257  15.041  0.00  0.00    +0.000 A 
ATOM     18  F   UNL     1      -4.191   9.925  13.829  0.00  0.00    +0.000 F 
ATOM     19  C   UNL     1      -4.467  11.049  15.890  0.00  0.00    +0.000 A 
ATOM     20  N   UNL     1      -4.040  11.415  17.119  0.00  0.00    +0.000 NA
ATOM     21  H   UNL     1      -1.443  11.032  19.069  0.00  0.00    +0.000 HD
ENDBRANCH  10  11
ENDBRANCH   3   5
BRANCH   2  22
ATOM     22  C   UNL     1       1.064   9.598  19.698  0.00  0.00    +0.000 A 
ATOM     23  C   UNL     1       1.429   8.529  20.529  0.00  0.00    +0.000 A 
ATOM     24  C   UNL     1       1.991   7.370  19.978  0.00  0.00    +0.000 A 
ATOM     25  C   UNL     1       2.231   7.286  18.602  0.00  0.00    +0.000 A 
ATOM     26  C   UNL     1       1.876   8.358  17.776  0.00  0.00    +0.000 A 
ATOM     27  C   UNL     1       1.284   9.497  18.318  0.00  0.00    +0.000 A 
BRANCH  25  28
ATOM     28  N   UNL     1       2.869   6.144  18.036  0.00  0.00    +0.000 N 
ATOM     29  C   UNL     1       2.199   4.926  18.001  0.00  0.00    +0.000 A 
ATOM     30  C   UNL     1       2.770   3.819  17.514  0.00  0.00    +0.000 A 
ATOM     31  C   UNL     1       4.133   3.858  17.059  0.00  0.00    +0.000 A 
ATOM     32  C   UNL     1       4.817   5.008  17.065  0.00  0.00    +0.000 A 
ATOM     33  C   UNL     1       4.181   6.270  17.545  0.00  0.00    +0.000 A 
ATOM     34  O   UNL     1       4.849   7.304  17.525  0.00  0.00    +0.000 OA
ENDBRANCH  25  28
ENDBRANCH   2  22
TORSDOF 4
ENDMDL
MODEL 8
REMARK VINA RESULT:      -8.6      2.890      7.514
REMARK  Name = 
REMARK  4 active torsions:
REMARK  status: ('A' for Active; 'I' for Inactive)
REMARK    1  A    between atoms: C_2  and  C_20
REMARK    2  A    between atoms: N_3  and  C_4
REMARK    3  A    between atoms: C_9  and  C_10
REMARK    4  A    between atoms: C_23  and  N_24
REMARK                            x       y       z     vdW  Elec       q    Type
REMARK                         _______ _______ _______ _____ _____    ______ ____
ROOT
ATOM      1  O   UNL     1       2.940   5.568  18.122  0.00  0.00    +0.000 OA
ATOM      2  C   UNL     1       3.304   6.727  18.009  0.00  0.00    +0.000 C 
ATOM      3  N   UNL     1       4.439   7.137  17.313  0.00  0.00    +0.000 N 
ATOM      4  H   UNL     1       4.925   7.903  17.766  0.00  0.00    +0.000 HD
ENDROOT
BRANCH   3   5
ATOM      5  C   UNL     1       5.314   6.134  16.822  0.00  0.00    +0.000 A 
ATOM      6  C   UNL     1       4.715   5.077  16.113  0.00  0.00    +0.000 A 
ATOM      7  C   UNL     1       5.489   4.050  15.572  0.00  0.00    +0.000 A 
ATOM      8  C   UNL     1       6.865   4.051  15.756  0.00  0.00    +0.000 A 
ATOM      9  C   UNL     1       7.463   5.085  16.478  0.00  0.00    +0.000 A 
ATOM     10  C   UNL     1       6.707   6.145  17.023  0.00  0.00    +0.000 A 
BRANCH  10  11
ATOM     11  C   UNL     1       7.496   7.141  17.829  0.00  0.00    +0.000 C 
ATOM     12  O   UNL     1       8.057   6.727  18.840  0.00  0.00    +0.000 OA
ATOM     13  N   UNL     1       7.509   8.451  17.393  0.00  0.00    +0.000 N 
ATOM     14  C   UNL     1       8.211   9.490  18.019  0.00  0.00    +0.000 A 
ATOM     15  C   UNL     1       8.211  10.747  17.413  0.00  0.00    +0.000 A 
ATOM     16  C   UNL     1       8.927  11.793  18.011  0.00  0.00    +0.000 A 
ATOM     17  C   UNL     1       9.613  11.546  19.188  0.00  0.00    +0.000 A 
ATOM     18  F   UNL     1      10.315  12.519  19.783  0.00  0.00    +0.000 F 
ATOM     19  C   UNL     1       9.558  10.280  19.734  0.00  0.00    +0.000 A 
ATOM     20  N   UNL     1       8.868   9.264  19.171  0.00  0.00    +0.000 NA
ATOM     21  H   UNL     1       7.016   8.666  16.543  0.00  0.00    +0.000 HD
ENDBRANCH  10  11
ENDBRANCH   3   5
BRANCH   2  22
ATOM     22  C   UNL     1       2.464   7.823  18.599  0.00  0.00    +0.000 A 
ATOM     23  C   UNL     1       1.926   7.790  19.894  0.00  0.00    +0.000 A 
ATOM     24  C   UNL     1       1.201   8.885  20.382  0.00  0.00    +0.000 A 
ATOM     25  C   UNL     1       0.973  10.001  19.570  0.00  0.00    +0.000 A 
ATOM     26  C   UNL     1       1.503  10.028  18.275  0.00  0.00    +0.000 A 
ATOM     27  C   UNL     1       2.254   8.954  17.800  0.00  0.00    +0.000 A 
BRANCH  25  28
ATOM     28  N   UNL     1       0.176  11.091  20.025  0.00  0.00    +0.000 N 
ATOM     29  C   UNL     1      -1.188  11.107  19.758  0.00  0.00    +0.000 A 
ATOM     30  C   UNL     1      -1.970  12.126  20.132  0.00  0.00    +0.000 A 
ATOM     31  C   UNL     1      -1.392  13.270  20.783  0.00  0.00    +0.000 A 
ATOM     32  C   UNL     1      -0.085  13.298  21.069  0.00  0.00    +0.000 A 
ATOM     33  C   UNL     1       0.797  12.146  20.717  0.00  0.00    +0.000 A 
ATOM     34  O   UNL     1       1.991  12.217  21.007  0.00  0.00    +0.000 OA
ENDBRANCH  25  28
ENDBRANCH   2  22
TORSDOF 4
ENDMDL
MODEL 9
REMARK VINA RESULT:      -8.6      6.133      9.790
REMARK  Name = 
REMARK  4 active torsions:
REMARK  status: ('A' for Active; 'I' for Inactive)
REMARK    1  A    between atoms: C_2  and  C_20
REMARK    2  A    between atoms: N_3  and  C_4
REMARK    3  A    between atoms: C_9  and  C_10
REMARK    4  A    between atoms: C_23  and  N_24
REMARK                            x       y       z     vdW  Elec       q    Type
REMARK                         _______ _______ _______ _____ _____    ______ ____
ROOT
ATOM      1  O   UNL     1       1.105  11.722  20.015  0.00  0.00    +0.000 OA
ATOM      2  C   UNL     1       0.578  10.633  20.168  0.00  0.00    +0.000 C 
ATOM      3  N   UNL     1      -0.654  10.429  20.788  0.00  0.00    +0.000 N 
ATOM      4  H   UNL     1      -0.676   9.589  21.354  0.00  0.00    +0.000 HD
ENDROOT
BRANCH   3   5
ATOM      5  C   UNL     1      -1.274  11.541  21.412  0.00  0.00    +0.000 A 
ATOM      6  C   UNL     1      -0.841  11.846  22.715  0.00  0.00    +0.000 A 
ATOM      7  C   UNL     1      -1.374  12.933  23.411  0.00  0.00    +0.000 A 
ATOM      8  C   UNL     1      -2.364  13.708  22.824  0.00  0.00    +0.000 A 
ATOM      9  C   UNL     1      -2.815  13.398  21.541  0.00  0.00    +0.000 A 
ATOM     10  C   UNL     1      -2.282  12.315  20.808  0.00  0.00    +0.000 A 
BRANCH  10  11
ATOM     11  C   UNL     1      -2.925  12.076  19.468  0.00  0.00    +0.000 C 
ATOM     12  O   UNL     1      -3.951  12.701  19.218  0.00  0.00    +0.000 OA
ATOM     13  N   UNL     1      -2.332  11.152  18.630  0.00  0.00    +0.000 N 
ATOM     14  C   UNL     1      -2.794  10.833  17.346  0.00  0.00    +0.000 A 
ATOM     15  C   UNL     1      -2.041   9.949  16.573  0.00  0.00    +0.000 A 
ATOM     16  C   UNL     1      -2.473   9.636  15.277  0.00  0.00    +0.000 A 
ATOM     17  C   UNL     1      -3.639  10.214  14.804  0.00  0.00    +0.000 A 
ATOM     18  F   UNL     1      -4.078   9.945  13.568  0.00  0.00    +0.000 F 
ATOM     19  C   UNL     1      -4.336  11.070  15.630  0.00  0.00    +0.000 A 
ATOM     20  N   UNL     1      -3.933  11.377  16.883  0.00  0.00    +0.000 NA
ATOM     21  H   UNL     1      -1.485  10.710  18.945  0.00  0.00    +0.000 HD
ENDBRANCH  10  11
ENDBRANCH   3   5
BRANCH   2  22
ATOM     22  C   UNL     1       1.244   9.408  19.612  0.00  0.00    +0.000 A 
ATOM     23  C   UNL     1       1.663   9.276  18.280  0.00  0.00    +0.000 A 
ATOM     24  C   UNL     1       2.328   8.116  17.864  0.00  0.00    +0.000 A 
ATOM     25  C   UNL     1       2.544   7.063  18.760  0.00  0.00    +0.000 A 
ATOM     26  C   UNL     1       2.117   7.193  20.086  0.00  0.00    +0.000 A 
ATOM     27  C   UNL     1       1.486   8.361  20.511  0.00  0.00    +0.000 A 
BRANCH  25  28
ATOM     28  N   UNL     1       3.154   5.848  18.334  0.00  0.00    +0.000 N 
ATOM     29  C   UNL     1       4.532   5.697  18.430  0.00  0.00    +0.000 A 
ATOM     30  C   UNL     1       5.154   4.591  18.008  0.00  0.00    +0.000 A 
ATOM     31  C   UNL     1       4.398   3.538  17.386  0.00  0.00    +0.000 A 
ATOM     32  C   UNL     1       3.067   3.633  17.279  0.00  0.00    +0.000 A 
ATOM     33  C   UNL     1       2.343   4.831  17.798  0.00  0.00    +0.000 A 
ATOM     34  O   UNL     1       1.119   4.869  17.681  0.00  0.00    +0.000 OA
ENDBRANCH  25  28
ENDBRANCH   2  22
TORSDOF 4
ENDMDL
