MODEL 1
REMARK VINA RESULT:      -8.6      0.000      0.000
REMARK  Name = 
REMARK  5 active torsions:
REMARK  status: ('A' for Active; 'I' for Inactive)
REMARK    1  A    between atoms: O_1  and  C_2
REMARK    2  A    between atoms: C_4  and  C_5
REMARK    3  A    between atoms: C_5  and  C_6
REMARK    4  A    between atoms: C_14  and  O_15
REMARK    5  A    between atoms: O_15  and  C_16
REMARK                            x       y       z     vdW  Elec       q    Type
REMARK                         _______ _______ _______ _____ _____    ______ ____
ROOT
ATOM      1  C   UNL     1       6.613   5.111  17.851  0.00  0.00    +0.000 A 
ATOM      2  C   UNL     1       5.641   5.194  18.847  0.00  0.00    +0.000 A 
ATOM      3  C   UNL     1       4.495   5.970  18.636  0.00  0.00    +0.000 A 
ATOM      4  C   UNL     1       4.412   6.768  17.483  0.00  0.00    +0.000 A 
ATOM      5  C   UNL     1       5.413   6.723  16.516  0.00  0.00    +0.000 A 
ATOM      6  C   UNL     1       6.461   5.811  16.648  0.00  0.00    +0.000 A 
ENDROOT
BRANCH   1   7
ATOM      7  O   UNL     1       7.712   4.318  18.031  0.00  0.00    +0.000 OA
ATOM      8  H   UNL     1       7.417   3.426  18.277  0.00  0.00    +0.000 HD
ENDBRANCH   1   7
BRANCH   3   9
ATOM      9  C   UNL     1       3.361   5.954  19.635  0.00  0.00    +0.000 C 
BRANCH   9  10
ATOM     10  C   UNL     1       2.450   4.760  19.505  0.00  0.00    +0.000 A 
ATOM     11  C   UNL     1       1.815   4.227  20.625  0.00  0.00    +0.000 A 
ATOM     12  C   UNL     1       1.010   3.104  20.471  0.00  0.00    +0.000 A 
ATOM     13  C   UNL     1       0.843   2.560  19.204  0.00  0.00    +0.000 A 
ATOM     14  C   UNL     1       1.491   3.159  18.136  0.00  0.00    +0.000 A 
ATOM     15  N   UNL     1       2.289   4.241  18.260  0.00  0.00    +0.000 NA
ENDBRANCH   9  10
ENDBRANCH   3   9
BRANCH   6  16
ATOM     16  O   UNL     1       7.365   5.545  15.647  0.00  0.00    +0.000 OA
BRANCH  16  17
ATOM     17  C   UNL     1       6.973   4.852  14.521  0.00  0.00    +0.000 A 
ATOM     18  C   UNL     1       5.828   4.069  14.722  0.00  0.00    +0.000 A 
ATOM     19  C   UNL     1       5.280   3.321  13.679  0.00  0.00    +0.000 A 
ATOM     20  C   UNL     1       5.889   3.339  12.428  0.00  0.00    +0.000 A 
ATOM     21 CL   UNL     1       5.226   2.410  11.141  0.00  0.00    +0.000 Cl
ATOM     22  C   UNL     1       7.010   4.131  12.201  0.00  0.00    +0.000 A 
ATOM     23  C   UNL     1       7.532   4.922  13.232  0.00  0.00    +0.000 A 
ATOM     24 CL   UNL     1       8.811   5.998  12.783  0.00  0.00    +0.000 Cl
ENDBRANCH  16  17
ENDBRANCH   6  16
TORSDOF 5
ENDMDL
MODEL 2
REMARK VINA RESULT:      -8.6      0.612      1.006
REMARK  Name = 
REMARK  5 active torsions:
REMARK  status: ('A' for Active; 'I' for Inactive)
REMARK    1  A    between atoms: O_1  and  C_2
REMARK    2  A    between atoms: C_4  and  C_5
REMARK    3  A    between atoms: C_5  and  C_6
REMARK    4  A    between atoms: C_14  and  O_15
REMARK    5  A    between atoms: O_15  and  C_16
REMARK                            x       y       z     vdW  Elec       q    Type
REMARK                         _______ _______ _______ _____ _____    ______ ____
ROOT
ATOM      1  C   UNL     1       6.477   5.148  17.839  0.00  0.00    +0.000 A 
ATOM      2  C   UNL     1       5.474   5.277  18.799  0.00  0.00    +0.000 A 
ATOM      3  C   UNL     1       4.374   6.105  18.549  0.00  0.00    +0.000 A 
ATOM      4  C   UNL     1       4.370   6.907  17.395  0.00  0.00    +0.000 A 
ATOM      5  C   UNL     1       5.402   6.814  16.464  0.00  0.00    +0.000 A 
ATOM      6  C   UNL     1       6.401   5.855  16.633  0.00  0.00    +0.000 A 
ENDROOT
BRANCH   1   7
ATOM      7  O   UNL     1       7.530   4.304  18.057  0.00  0.00    +0.000 OA
ATOM      8  H   UNL     1       8.357   4.792  17.911  0.00  0.00    +0.000 HD
ENDBRANCH   1   7
BRANCH   3   9
ATOM      9  C   UNL     1       3.205   6.143  19.506  0.00  0.00    +0.000 C 
BRANCH   9  10
ATOM     10  C   UNL     1       2.394   4.873  19.527  0.00  0.00    +0.000 A 
ATOM     11  C   UNL     1       1.976   4.279  18.338  0.00  0.00    +0.000 A 
ATOM     12  C   UNL     1       1.199   3.128  18.398  0.00  0.00    +0.000 A 
ATOM     13  C   UNL     1       0.882   2.589  19.638  0.00  0.00    +0.000 A 
ATOM     14  C   UNL     1       1.352   3.225  20.775  0.00  0.00    +0.000 A 
ATOM     15  N   UNL     1       2.096   4.352  20.745  0.00  0.00    +0.000 NA
ENDBRANCH   9  10
ENDBRANCH   3   9
BRANCH   6  16
ATOM     16  O   UNL     1       7.327   5.547  15.664  0.00  0.00    +0.000 OA
BRANCH  16  17
ATOM     17  C   UNL     1       6.948   4.855  14.533  0.00  0.00    +0.000 A 
ATOM     18  C   UNL     1       5.790   4.086  14.715  0.00  0.00    +0.000 A 
ATOM     19  C   UNL     1       5.253   3.341  13.664  0.00  0.00    +0.000 A 
ATOM     20  C   UNL     1       5.885   3.348  12.424  0.00  0.00    +0.000 A 
ATOM     21 CL   UNL     1       5.235   2.423  11.128  0.00  0.00    +0.000 Cl
ATOM     22  C   UNL     1       7.019   4.127  12.216  0.00  0.00    +0.000 A 
ATOM     23  C   UNL     1       7.531   4.914  13.255  0.00  0.00    +0.000 A 
ATOM     24 CL   UNL     1       8.831   5.974  12.825  0.00  0.00    +0.000 Cl
ENDBRANCH  16  17
ENDBRANCH   6  16
TORSDOF 5
ENDMDL
MODEL 3
REMARK VINA RESULT:      -7.8      6.759      8.733
REMARK  Name = 
REMARK  5 active torsions:
REMARK  status: ('A' for Active; 'I' for Inactive)
REMARK    1  A    between atoms: O_1  and  C_2
REMARK    2  A    between atoms: C_4  and  C_5
REMARK    3  A    between atoms: C_5  and  C_6
REMARK    4  A    between atoms: C_14  and  O_15
REMARK    5  A    between atoms: O_15  and  C_16
REMARK                            x       y       z     vdW  Elec       q    Type
REMARK                         _______ _______ _______ _____ _____    ______ ____
ROOT
ATOM      1  C   UNL     1       1.745   9.095  18.472  0.00  0.00    +0.000 A 
ATOM      2  C   UNL     1       2.193   7.834  18.864  0.00  0.00    +0.000 A 
ATOM      3  C   UNL     1       1.806   7.314  20.104  0.00  0.00    +0.000 A 
ATOM      4  C   UNL     1       1.091   8.132  20.996  0.00  0.00    +0.000 A 
ATOM      5  C   UNL     1       0.692   9.412  20.619  0.00  0.00    +0.000 A 
ATOM      6  C   UNL     1       0.925   9.853  19.316  0.00  0.00    +0.000 A 
ENDROOT
BRANCH   1   7
ATOM      7  O   UNL     1       2.081   9.589  17.242  0.00  0.00    +0.000 OA
ATOM      8  H   UNL     1       2.333   8.849  16.666  0.00  0.00    +0.000 HD
ENDBRANCH   1   7
BRANCH   3   9
ATOM      9  C   UNL     1       2.153   5.894  20.485  0.00  0.00    +0.000 C 
BRANCH   9  10
ATOM     10  C   UNL     1       2.710   5.076  19.348  0.00  0.00    +0.000 A 
ATOM     11  C   UNL     1       1.858   4.473  18.425  0.00  0.00    +0.000 A 
ATOM     12  C   UNL     1       2.406   3.698  17.410  0.00  0.00    +0.000 A 
ATOM     13  C   UNL     1       3.787   3.567  17.329  0.00  0.00    +0.000 A 
ATOM     14  C   UNL     1       4.569   4.215  18.271  0.00  0.00    +0.000 A 
ATOM     15  N   UNL     1       4.061   4.961  19.275  0.00  0.00    +0.000 NA
ENDBRANCH   9  10
ENDBRANCH   3   9
BRANCH   6  16
ATOM     16  O   UNL     1       0.379  11.003  18.796  0.00  0.00    +0.000 OA
BRANCH  16  17
ATOM     17  C   UNL     1      -0.986  11.110  18.624  0.00  0.00    +0.000 A 
ATOM     18  C   UNL     1      -1.501  10.200  17.691  0.00  0.00    +0.000 A 
ATOM     19  C   UNL     1      -2.867  10.156  17.414  0.00  0.00    +0.000 A 
ATOM     20  C   UNL     1      -3.728  11.038  18.059  0.00  0.00    +0.000 A 
ATOM     21 CL   UNL     1      -5.412  10.997  17.713  0.00  0.00    +0.000 Cl
ATOM     22  C   UNL     1      -3.240  11.931  19.009  0.00  0.00    +0.000 A 
ATOM     23  C   UNL     1      -1.876  11.942  19.326  0.00  0.00    +0.000 A 
ATOM     24 CL   UNL     1      -1.419  12.964  20.647  0.00  0.00    +0.000 Cl
ENDBRANCH  16  17
ENDBRANCH   6  16
TORSDOF 5
ENDMDL
MODEL 4
REMARK VINA RESULT:      -7.8      3.691      7.035
REMARK  Name = 
REMARK  5 active torsions:
REMARK  status: ('A' for Active; 'I' for Inactive)
REMARK    1  A    between atoms: O_1  and  C_2
REMARK    2  A    between atoms: C_4  and  C_5
REMARK    3  A    between atoms: C_5  and  C_6
REMARK    4  A    between atoms: C_14  and  O_15
REMARK    5  A    between atoms: O_15  and  C_16
REMARK                            x       y       z     vdW  Elec       q    Type
REMARK                         _______ _______ _______ _____ _____    ______ ____
ROOT
ATOM      1  C   UNL     1       6.895   4.633  16.978  0.00  0.00    +0.000 A 
ATOM      2  C   UNL     1       7.328   4.468  15.663  0.00  0.00    +0.000 A 
ATOM      3  C   UNL     1       6.563   4.983  14.610  0.00  0.00    +0.000 A 
ATOM      4  C   UNL     1       5.299   5.529  14.887  0.00  0.00    +0.000 A 
ATOM      5  C   UNL     1       4.847   5.643  16.200  0.00  0.00    +0.000 A 
ATOM      6  C   UNL     1       5.693   5.295  17.254  0.00  0.00    +0.000 A 
ENDROOT
BRANCH   1   7
ATOM      7  O   UNL     1       7.661   4.175  18.014  0.00  0.00    +0.000 OA
ATOM      8  H   UNL     1       7.542   3.214  18.090  0.00  0.00    +0.000 HD
ENDBRANCH   1   7
BRANCH   3   9
ATOM      9  C   UNL     1       7.084   4.949  13.192  0.00  0.00    +0.000 C 
BRANCH   9  10
ATOM     10  C   UNL     1       6.632   3.746  12.405  0.00  0.00    +0.000 A 
ATOM     11  C   UNL     1       5.275   3.460  12.265  0.00  0.00    +0.000 A 
ATOM     12  C   UNL     1       4.897   2.322  11.561  0.00  0.00    +0.000 A 
ATOM     13  C   UNL     1       5.879   1.517  10.997  0.00  0.00    +0.000 A 
ATOM     14  C   UNL     1       7.206   1.879  11.162  0.00  0.00    +0.000 A 
ATOM     15  N   UNL     1       7.601   2.971  11.853  0.00  0.00    +0.000 NA
ENDBRANCH   9  10
ENDBRANCH   3   9
BRANCH   6  16
ATOM     16  O   UNL     1       5.417   5.576  18.571  0.00  0.00    +0.000 OA
BRANCH  16  17
ATOM     17  C   UNL     1       4.334   4.994  19.195  0.00  0.00    +0.000 A 
ATOM     18  C   UNL     1       4.584   3.687  19.637  0.00  0.00    +0.000 A 
ATOM     19  C   UNL     1       3.602   2.960  20.311  0.00  0.00    +0.000 A 
ATOM     20  C   UNL     1       2.353   3.532  20.532  0.00  0.00    +0.000 A 
ATOM     21 CL   UNL     1       1.135   2.636  21.352  0.00  0.00    +0.000 Cl
ATOM     22  C   UNL     1       2.094   4.838  20.126  0.00  0.00    +0.000 A 
ATOM     23  C   UNL     1       3.095   5.588  19.494  0.00  0.00    +0.000 A 
ATOM     24 CL   UNL     1       2.715   7.251  19.200  0.00  0.00    +0.000 Cl
ENDBRANCH  16  17
ENDBRANCH   6  16
TORSDOF 5
ENDMDL
MODEL 5
REMARK VINA RESULT:      -7.7      3.560      7.066
REMARK  Name = 
REMARK  5 active torsions:
REMARK  status: ('A' for Active; 'I' for Inactive)
REMARK    1  A    between atoms: O_1  and  C_2
REMARK    2  A    between atoms: C_4  and  C_5
REMARK    3  A    between atoms: C_5  and  C_6
REMARK    4  A    between atoms: C_14  and  O_15
REMARK    5  A    between atoms: O_15  and  C_16
REMARK                            x       y       z     vdW  Elec       q    Type
REMARK                         _______ _______ _______ _____ _____    ______ ____
ROOT
ATOM      1  C   UNL     1       6.951   4.569  16.934  0.00  0.00    +0.000 A 
ATOM      2  C   UNL     1       7.356   4.415  15.609  0.00  0.00    +0.000 A 
ATOM      3  C   UNL     1       6.553   4.910  14.575  0.00  0.00    +0.000 A 
ATOM      4  C   UNL     1       5.282   5.424  14.882  0.00  0.00    +0.000 A 
ATOM      5  C   UNL     1       4.860   5.527  16.206  0.00  0.00    +0.000 A 
ATOM      6  C   UNL     1       5.739   5.201  17.239  0.00  0.00    +0.000 A 
ENDROOT
BRANCH   1   7
ATOM      7  O   UNL     1       7.753   4.131  17.951  0.00  0.00    +0.000 OA
ATOM      8  H   UNL     1       7.407   4.472  18.792  0.00  0.00    +0.000 HD
ENDBRANCH   1   7
BRANCH   3   9
ATOM      9  C   UNL     1       7.041   4.889  13.145  0.00  0.00    +0.000 C 
BRANCH   9  10
ATOM     10  C   UNL     1       6.624   3.661  12.377  0.00  0.00    +0.000 A 
ATOM     11  C   UNL     1       7.581   2.787  11.864  0.00  0.00    +0.000 A 
ATOM     12  C   UNL     1       7.160   1.683  11.131  0.00  0.00    +0.000 A 
ATOM     13  C   UNL     1       5.799   1.469  10.952  0.00  0.00    +0.000 A 
ATOM     14  C   UNL     1       4.908   2.371  11.511  0.00  0.00    +0.000 A 
ATOM     15  N   UNL     1       5.291   3.458  12.214  0.00  0.00    +0.000 NA
ENDBRANCH   9  10
ENDBRANCH   3   9
BRANCH   6  16
ATOM     16  O   UNL     1       5.488   5.476  18.563  0.00  0.00    +0.000 OA
BRANCH  16  17
ATOM     17  C   UNL     1       4.407   4.903  19.200  0.00  0.00    +0.000 A 
ATOM     18  C   UNL     1       4.635   3.579  19.599  0.00  0.00    +0.000 A 
ATOM     19  C   UNL     1       3.653   2.858  20.279  0.00  0.00    +0.000 A 
ATOM     20  C   UNL     1       2.426   3.454  20.549  0.00  0.00    +0.000 A 
ATOM     21 CL   UNL     1       1.207   2.566  21.376  0.00  0.00    +0.000 Cl
ATOM     22  C   UNL     1       2.190   4.777  20.185  0.00  0.00    +0.000 A 
ATOM     23  C   UNL     1       3.192   5.519  19.547  0.00  0.00    +0.000 A 
ATOM     24 CL   UNL     1       2.847   7.198  19.309  0.00  0.00    +0.000 Cl
ENDBRANCH  16  17
ENDBRANCH   6  16
TORSDOF 5
ENDMDL
MODEL 6
REMARK VINA RESULT:      -7.7      5.223      6.335
REMARK  Name = 
REMARK  5 active torsions:
REMARK  status: ('A' for Active; 'I' for Inactive)
REMARK    1  A    between atoms: O_1  and  C_2
REMARK    2  A    between atoms: C_4  and  C_5
REMARK    3  A    between atoms: C_5  and  C_6
REMARK    4  A    between atoms: C_14  and  O_15
REMARK    5  A    between atoms: O_15  and  C_16
REMARK                            x       y       z     vdW  Elec       q    Type
REMARK                         _______ _______ _______ _____ _____    ______ ____
ROOT
ATOM      1  C   UNL     1       1.800   7.862  20.065  0.00  0.00    +0.000 A 
ATOM      2  C   UNL     1       1.158   9.100  20.060  0.00  0.00    +0.000 A 
ATOM      3  C   UNL     1       1.113   9.855  18.882  0.00  0.00    +0.000 A 
ATOM      4  C   UNL     1       1.841   9.419  17.763  0.00  0.00    +0.000 A 
ATOM      5  C   UNL     1       2.526   8.206  17.790  0.00  0.00    +0.000 A 
ATOM      6  C   UNL     1       2.415   7.375  18.905  0.00  0.00    +0.000 A 
ENDROOT
BRANCH   1   7
ATOM      7  O   UNL     1       1.807   7.098  21.199  0.00  0.00    +0.000 OA
ATOM      8  H   UNL     1       1.814   7.686  21.972  0.00  0.00    +0.000 HD
ENDBRANCH   1   7
BRANCH   3   9
ATOM      9  C   UNL     1       0.296  11.124  18.813  0.00  0.00    +0.000 C 
BRANCH   9  10
ATOM     10  C   UNL     1      -1.131  10.907  18.380  0.00  0.00    +0.000 A 
ATOM     11  C   UNL     1      -1.453   9.896  17.476  0.00  0.00    +0.000 A 
ATOM     12  C   UNL     1      -2.775   9.749  17.074  0.00  0.00    +0.000 A 
ATOM     13  C   UNL     1      -3.741  10.596  17.600  0.00  0.00    +0.000 A 
ATOM     14  C   UNL     1      -3.347  11.565  18.510  0.00  0.00    +0.000 A 
ATOM     15  N   UNL     1      -2.068  11.738  18.906  0.00  0.00    +0.000 NA
ENDBRANCH   9  10
ENDBRANCH   3   9
BRANCH   6  16
ATOM     16  O   UNL     1       2.872   6.078  18.932  0.00  0.00    +0.000 OA
BRANCH  16  17
ATOM     17  C   UNL     1       3.777   5.640  17.989  0.00  0.00    +0.000 A 
ATOM     18  C   UNL     1       4.946   6.413  17.940  0.00  0.00    +0.000 A 
ATOM     19  C   UNL     1       5.978   6.094  17.057  0.00  0.00    +0.000 A 
ATOM     20  C   UNL     1       5.839   5.004  16.202  0.00  0.00    +0.000 A 
ATOM     21 CL   UNL     1       7.103   4.613  15.104  0.00  0.00    +0.000 Cl
ATOM     22  C   UNL     1       4.699   4.208  16.256  0.00  0.00    +0.000 A 
ATOM     23  C   UNL     1       3.683   4.497  17.176  0.00  0.00    +0.000 A 
ATOM     24 CL   UNL     1       2.404   3.335  17.273  0.00  0.00    +0.000 Cl
ENDBRANCH  16  17
ENDBRANCH   6  16
TORSDOF 5
ENDMDL
MODEL 7
REMARK VINA RESULT:      -7.7      6.669      8.469
REMARK  Name = 
REMARK  5 active torsions:
REMARK  status: ('A' for Active; 'I' for Inactive)
REMARK    1  A    between atoms: O_1  and  C_2
REMARK    2  A    between atoms: C_4  and  C_5
REMARK    3  A    between atoms: C_5  and  C_6
REMARK    4  A    between atoms: C_14  and  O_15
REMARK    5  A    between atoms: O_15  and  C_16
REMARK                            x       y       z     vdW  Elec       q    Type
REMARK                         _______ _______ _______ _____ _____    ______ ____
ROOT
ATOM      1  C   UNL     1       1.104   8.908  20.202  0.00  0.00    +0.000 A 
ATOM      2  C   UNL     1       1.754   7.695  20.427  0.00  0.00    +0.000 A 
ATOM      3  C   UNL     1       2.453   7.077  19.383  0.00  0.00    +0.000 A 
ATOM      4  C   UNL     1       2.367   7.617  18.089  0.00  0.00    +0.000 A 
ATOM      5  C   UNL     1       1.671   8.802  17.859  0.00  0.00    +0.000 A 
ATOM      6  C   UNL     1       1.131   9.506  18.937  0.00  0.00    +0.000 A 
ENDROOT
BRANCH   1   7
ATOM      7  O   UNL     1       0.459   9.540  21.229  0.00  0.00    +0.000 OA
ATOM      8  H   UNL     1      -0.494   9.538  21.048  0.00  0.00    +0.000 HD
ENDBRANCH   1   7
BRANCH   3   9
ATOM      9  C   UNL     1       3.289   5.844  19.640  0.00  0.00    +0.000 C 
BRANCH   9  10
ATOM     10  C   UNL     1       2.573   4.551  19.342  0.00  0.00    +0.000 A 
ATOM     11  C   UNL     1       1.457   4.171  20.084  0.00  0.00    +0.000 A 
ATOM     12  C   UNL     1       0.845   2.956  19.803  0.00  0.00    +0.000 A 
ATOM     13  C   UNL     1       1.347   2.166  18.777  0.00  0.00    +0.000 A 
ATOM     14  C   UNL     1       2.448   2.621  18.070  0.00  0.00    +0.000 A 
ATOM     15  N   UNL     1       3.070   3.791  18.332  0.00  0.00    +0.000 NA
ENDBRANCH   9  10
ENDBRANCH   3   9
BRANCH   6  16
ATOM     16  O   UNL     1       0.623  10.779  18.832  0.00  0.00    +0.000 OA
BRANCH  16  17
ATOM     17  C   UNL     1      -0.728  10.976  18.641  0.00  0.00    +0.000 A 
ATOM     18  C   UNL     1      -1.278  10.142  17.658  0.00  0.00    +0.000 A 
ATOM     19  C   UNL     1      -2.639  10.193  17.355  0.00  0.00    +0.000 A 
ATOM     20  C   UNL     1      -3.458  11.096  18.025  0.00  0.00    +0.000 A 
ATOM     21 CL   UNL     1      -5.134  11.173  17.648  0.00  0.00    +0.000 Cl
ATOM     22  C   UNL     1      -2.937  11.914  19.024  0.00  0.00    +0.000 A 
ATOM     23  C   UNL     1      -1.581  11.828  19.365  0.00  0.00    +0.000 A 
ATOM     24 CL   UNL     1      -1.091  12.760  20.739  0.00  0.00    +0.000 Cl
ENDBRANCH  16  17
ENDBRANCH   6  16
TORSDOF 5
ENDMDL
MODEL 8
REMARK VINA RESULT:      -7.6      5.488      6.620
REMARK  Name = 
REMARK  5 active torsions:
REMARK  status: ('A' for Active; 'I' for Inactive)
REMARK    1  A    between atoms: O_1  and  C_2
REMARK    2  A    between atoms: C_4  and  C_5
REMARK    3  A    between atoms: C_5  and  C_6
REMARK    4  A    between atoms: C_14  and  O_15
REMARK    5  A    between atoms: O_15  and  C_16
REMARK                            x       y       z     vdW  Elec       q    Type
REMARK                         _______ _______ _______ _____ _____    ______ ____
ROOT
ATOM      1  C   UNL     1       1.618   8.270  20.336  0.00  0.00    +0.000 A 
ATOM      2  C   UNL     1       0.993   9.499  20.129  0.00  0.00    +0.000 A 
ATOM      3  C   UNL     1       0.954  10.052  18.844  0.00  0.00    +0.000 A 
ATOM      4  C   UNL     1       1.674   9.429  17.810  0.00  0.00    +0.000 A 
ATOM      5  C   UNL     1       2.343   8.228  18.035  0.00  0.00    +0.000 A 
ATOM      6  C   UNL     1       2.224   7.592  19.271  0.00  0.00    +0.000 A 
ENDROOT
BRANCH   1   7
ATOM      7  O   UNL     1       1.618   7.702  21.580  0.00  0.00    +0.000 OA
ATOM      8  H   UNL     1       1.541   6.739  21.483  0.00  0.00    +0.000 HD
ENDBRANCH   1   7
BRANCH   3   9
ATOM      9  C   UNL     1       0.154  11.304  18.568  0.00  0.00    +0.000 C 
BRANCH   9  10
ATOM     10  C   UNL     1      -1.295  11.042  18.244  0.00  0.00    +0.000 A 
ATOM     11  C   UNL     1      -2.298  11.846  18.781  0.00  0.00    +0.000 A 
ATOM     12  C   UNL     1      -3.624  11.552  18.488  0.00  0.00    +0.000 A 
ATOM     13  C   UNL     1      -3.912  10.482  17.651  0.00  0.00    +0.000 A 
ATOM     14  C   UNL     1      -2.859   9.741  17.139  0.00  0.00    +0.000 A 
ATOM     15  N   UNL     1      -1.563   9.997  17.419  0.00  0.00    +0.000 NA
ENDBRANCH   9  10
ENDBRANCH   3   9
BRANCH   6  16
ATOM     16  O   UNL     1       2.664   6.311  19.510  0.00  0.00    +0.000 OA
BRANCH  16  17
ATOM     17  C   UNL     1       3.347   5.617  18.534  0.00  0.00    +0.000 A 
ATOM     18  C   UNL     1       4.684   6.016  18.402  0.00  0.00    +0.000 A 
ATOM     19  C   UNL     1       5.527   5.400  17.476  0.00  0.00    +0.000 A 
ATOM     20  C   UNL     1       5.029   4.388  16.661  0.00  0.00    +0.000 A 
ATOM     21 CL   UNL     1       6.059   3.632  15.510  0.00  0.00    +0.000 Cl
ATOM     22  C   UNL     1       3.712   3.958  16.796  0.00  0.00    +0.000 A 
ATOM     23  C   UNL     1       2.879   4.541  17.759  0.00  0.00    +0.000 A 
ATOM     24 CL   UNL     1       1.325   3.803  17.956  0.00  0.00    +0.000 Cl
ENDBRANCH  16  17
ENDBRANCH   6  16
TORSDOF 5
ENDMDL
MODEL 9
REMARK VINA RESULT:      -7.5      6.738      8.726
REMARK  Name = 
REMARK  5 active torsions:
REMARK  status: ('A' for Active; 'I' for Inactive)
REMARK    1  A    between atoms: O_1  and  C_2
REMARK    2  A    between atoms: C_4  and  C_5
REMARK    3  A    between atoms: C_5  and  C_6
REMARK    4  A    between atoms: C_14  and  O_15
REMARK    5  A    between atoms: O_15  and  C_16
REMARK                            x       y       z     vdW  Elec       q    Type
REMARK                         _______ _______ _______ _____ _____    ______ ____
ROOT
ATOM      1  C   UNL     1       1.731   9.086  18.482  0.00  0.00    +0.000 A 
ATOM      2  C   UNL     1       2.173   7.819  18.860  0.00  0.00    +0.000 A 
ATOM      3  C   UNL     1       1.810   7.300  20.109  0.00  0.00    +0.000 A 
ATOM      4  C   UNL     1       1.127   8.124  21.019  0.00  0.00    +0.000 A 
ATOM      5  C   UNL     1       0.734   9.410  20.655  0.00  0.00    +0.000 A 
ATOM      6  C   UNL     1       0.940   9.851  19.347  0.00  0.00    +0.000 A 
ENDROOT
BRANCH   1   7
ATOM      7  O   UNL     1       2.042   9.579  17.245  0.00  0.00    +0.000 OA
ATOM      8  H   UNL     1       1.260   9.506  16.674  0.00  0.00    +0.000 HD
ENDBRANCH   1   7
BRANCH   3   9
ATOM      9  C   UNL     1       2.150   5.874  20.478  0.00  0.00    +0.000 C 
BRANCH   9  10
ATOM     10  C   UNL     1       2.747   5.078  19.347  0.00  0.00    +0.000 A 
ATOM     11  C   UNL     1       4.129   4.995  19.190  0.00  0.00    +0.000 A 
ATOM     12  C   UNL     1       4.642   4.279  18.115  0.00  0.00    +0.000 A 
ATOM     13  C   UNL     1       3.766   3.648  17.241  0.00  0.00    +0.000 A 
ATOM     14  C   UNL     1       2.405   3.760  17.474  0.00  0.00    +0.000 A 
ATOM     15  N   UNL     1       1.880   4.460  18.503  0.00  0.00    +0.000 NA
ENDBRANCH   9  10
ENDBRANCH   3   9
BRANCH   6  16
ATOM     16  O   UNL     1       0.396  11.009  18.844  0.00  0.00    +0.000 OA
BRANCH  16  17
ATOM     17  C   UNL     1      -0.967  11.113  18.657  0.00  0.00    +0.000 A 
ATOM     18  C   UNL     1      -1.470  10.203  17.717  0.00  0.00    +0.000 A 
ATOM     19  C   UNL     1      -2.833  10.157  17.424  0.00  0.00    +0.000 A 
ATOM     20  C   UNL     1      -3.703  11.037  18.061  0.00  0.00    +0.000 A 
ATOM     21 CL   UNL     1      -5.383  10.992  17.696  0.00  0.00    +0.000 Cl
ATOM     22  C   UNL     1      -3.227  11.928  19.018  0.00  0.00    +0.000 A 
ATOM     23  C   UNL     1      -1.867  11.942  19.350  0.00  0.00    +0.000 A 
ATOM     24 CL   UNL     1      -1.426  12.962  20.678  0.00  0.00    +0.000 Cl
ENDBRANCH  16  17
ENDBRANCH   6  16
TORSDOF 5
ENDMDL
