MODEL 1
REMARK VINA RESULT:      -7.1      0.000      0.000
REMARK  Name = 
REMARK  4 active torsions:
REMARK  status: ('A' for Active; 'I' for Inactive)
REMARK    1  A    between atoms: N_14  and  C_15
REMARK    2  A    between atoms: C_15  and  N_16
REMARK    3  A    between atoms: N_16  and  C_17
REMARK    4  A    between atoms: N_16  and  C_23
REMARK                            x       y       z     vdW  Elec       q    Type
REMARK                         _______ _______ _______ _____ _____    ______ ____
ROOT
ATOM      1  O   UNL     1       6.109   5.192  19.677  0.00  0.00    +0.000 OA
ATOM      2  C   UNL     1       5.048   5.344  19.092  0.00  0.00    +0.000 C 
ATOM      3  N   UNL     1       3.949   4.537  19.305  0.00  0.00    +0.000 N 
ATOM      4  C   UNL     1       2.718   5.204  18.970  0.00  0.00    +0.000 C 
ATOM      5  C   UNL     1       1.930   5.527  20.244  0.00  0.00    +0.000 C 
ATOM      6  C   UNL     1       0.999   4.429  20.766  0.00  0.00    +0.000 C 
ATOM      7  C   UNL     1       1.633   3.084  21.124  0.00  0.00    +0.000 C 
ATOM      8  C   UNL     1       1.954   2.065  20.021  0.00  0.00    +0.000 C 
ATOM      9  C   UNL     1       1.236   2.196  18.685  0.00  0.00    +0.000 C 
ATOM     10  C   UNL     1       1.979   3.043  17.660  0.00  0.00    +0.000 C 
ATOM     11  C   UNL     1       1.875   4.551  17.849  0.00  0.00    +0.000 C 
ATOM     12  C   UNL     1       3.321   6.497  18.352  0.00  0.00    +0.000 C 
ATOM     13  O   UNL     1       2.674   7.475  17.990  0.00  0.00    +0.000 OA
ATOM     14  N   UNL     1       4.673   6.336  18.257  0.00  0.00    +0.000 N 
ATOM     15  H   UNL     1       4.049   3.856  20.049  0.00  0.00    +0.000 HD
ENDROOT
BRANCH  14  16
ATOM     16  C   UNL     1       5.563   7.316  17.702  0.00  0.00    +0.000 C 
BRANCH  16  17
ATOM     17  N   UNL     1       6.750   6.694  17.061  0.00  0.00    +0.000 NA
BRANCH  17  18
ATOM     18  C   UNL     1       6.572   6.329  15.615  0.00  0.00    +0.000 C 
ATOM     19  C   UNL     1       7.496   5.145  15.234  0.00  0.00    +0.000 C 
ATOM     20  C   UNL     1       7.088   3.886  15.995  0.00  0.00    +0.000 C 
ATOM     21  C   UNL     1       5.735   3.397  15.510  0.00  0.00    +0.000 C 
ATOM     22  C   UNL     1       4.678   4.497  15.487  0.00  0.00    +0.000 C 
ATOM     23  C   UNL     1       5.176   5.896  15.094  0.00  0.00    +0.000 C 
ENDBRANCH  17  18
BRANCH  17  24
ATOM     24  C   UNL     1       7.905   7.642  17.211  0.00  0.00    +0.000 C 
ATOM     25  C   UNL     1       7.738   9.006  17.830  0.00  0.00    +0.000 C 
ATOM     26  C   UNL     1       8.453   7.937  18.588  0.00  0.00    +0.000 C 
ENDBRANCH  17  24
ENDBRANCH  16  17
ENDBRANCH  14  16
TORSDOF 4
ENDMDL
MODEL 2
REMARK VINA RESULT:      -6.7      4.181      6.230
REMARK  Name = 
REMARK  4 active torsions:
REMARK  status: ('A' for Active; 'I' for Inactive)
REMARK    1  A    between atoms: N_14  and  C_15
REMARK    2  A    between atoms: C_15  and  N_16
REMARK    3  A    between atoms: N_16  and  C_17
REMARK    4  A    between atoms: N_16  and  C_23
REMARK                            x       y       z     vdW  Elec       q    Type
REMARK                         _______ _______ _______ _____ _____    ______ ____
ROOT
ATOM      1  O   UNL     1       1.441   8.491  21.767  0.00  0.00    +0.000 OA
ATOM      2  C   UNL     1       1.232   8.689  20.580  0.00  0.00    +0.000 C 
ATOM      3  N   UNL     1       0.374   9.667  20.121  0.00  0.00    +0.000 N 
ATOM      4  C   UNL     1       0.699  10.084  18.782  0.00  0.00    +0.000 C 
ATOM      5  C   UNL     1       1.283  11.501  18.799  0.00  0.00    +0.000 C 
ATOM      6  C   UNL     1       0.277  12.654  18.736  0.00  0.00    +0.000 C 
ATOM      7  C   UNL     1      -0.768  12.735  19.848  0.00  0.00    +0.000 C 
ATOM      8  C   UNL     1      -2.022  11.850  19.796  0.00  0.00    +0.000 C 
ATOM      9  C   UNL     1      -2.436  11.264  18.453  0.00  0.00    +0.000 C 
ATOM     10  C   UNL     1      -1.855   9.884  18.170  0.00  0.00    +0.000 C 
ATOM     11  C   UNL     1      -0.401   9.862  17.716  0.00  0.00    +0.000 C 
ATOM     12  C   UNL     1       1.805   9.034  18.480  0.00  0.00    +0.000 C 
ATOM     13  O   UNL     1       2.504   9.015  17.471  0.00  0.00    +0.000 OA
ATOM     14  N   UNL     1       1.835   8.136  19.507  0.00  0.00    +0.000 N 
ATOM     15  H   UNL     1      -0.011  10.276  20.835  0.00  0.00    +0.000 HD
ENDROOT
BRANCH  14  16
ATOM     16  C   UNL     1       2.713   7.002  19.558  0.00  0.00    +0.000 C 
BRANCH  16  17
ATOM     17  N   UNL     1       2.158   5.831  18.832  0.00  0.00    +0.000 NA
BRANCH  17  18
ATOM     18  C   UNL     1       2.856   5.493  17.547  0.00  0.00    +0.000 C 
ATOM     19  C   UNL     1       4.255   6.156  17.495  0.00  0.00    +0.000 C 
ATOM     20  C   UNL     1       5.159   5.578  18.581  0.00  0.00    +0.000 C 
ATOM     21  C   UNL     1       5.488   4.128  18.270  0.00  0.00    +0.000 C 
ATOM     22  C   UNL     1       4.251   3.292  17.959  0.00  0.00    +0.000 C 
ATOM     23  C   UNL     1       3.133   4.009  17.186  0.00  0.00    +0.000 C 
ENDBRANCH  17  18
BRANCH  17  24
ATOM     24  C   UNL     1       2.196   4.651  19.762  0.00  0.00    +0.000 C 
ATOM     25  C   UNL     1       1.842   4.779  21.221  0.00  0.00    +0.000 C 
ATOM     26  C   UNL     1       0.901   4.081  20.294  0.00  0.00    +0.000 C 
ENDBRANCH  17  24
ENDBRANCH  16  17
ENDBRANCH  14  16
TORSDOF 4
ENDMDL
MODEL 3
REMARK VINA RESULT:      -6.1      3.850      5.971
REMARK  Name = 
REMARK  4 active torsions:
REMARK  status: ('A' for Active; 'I' for Inactive)
REMARK    1  A    between atoms: N_14  and  C_15
REMARK    2  A    between atoms: C_15  and  N_16
REMARK    3  A    between atoms: N_16  and  C_17
REMARK    4  A    between atoms: N_16  and  C_23
REMARK                            x       y       z     vdW  Elec       q    Type
REMARK                         _______ _______ _______ _____ _____    ______ ____
ROOT
ATOM      1  O   UNL     1       1.609   8.056  21.608  0.00  0.00    +0.000 OA
ATOM      2  C   UNL     1       1.462   8.290  20.419  0.00  0.00    +0.000 C 
ATOM      3  N   UNL     1       0.659   9.308  19.947  0.00  0.00    +0.000 N 
ATOM      4  C   UNL     1       1.060   9.746  18.635  0.00  0.00    +0.000 C 
ATOM      5  C   UNL     1       1.690  11.141  18.716  0.00  0.00    +0.000 C 
ATOM      6  C   UNL     1       0.726  12.329  18.636  0.00  0.00    +0.000 C 
ATOM      7  C   UNL     1      -0.367  12.419  19.701  0.00  0.00    +0.000 C 
ATOM      8  C   UNL     1      -1.645  11.579  19.568  0.00  0.00    +0.000 C 
ATOM      9  C   UNL     1      -2.015  11.041  18.193  0.00  0.00    +0.000 C 
ATOM     10  C   UNL     1      -1.467   9.649  17.901  0.00  0.00    +0.000 C 
ATOM     11  C   UNL     1       0.005   9.588  17.514  0.00  0.00    +0.000 C 
ATOM     12  C   UNL     1       2.144   8.667  18.357  0.00  0.00    +0.000 C 
ATOM     13  O   UNL     1       2.888   8.649  17.381  0.00  0.00    +0.000 OA
ATOM     14  N   UNL     1       2.096   7.743  19.361  0.00  0.00    +0.000 N 
ATOM     15  H   UNL     1       0.261   9.912  20.658  0.00  0.00    +0.000 HD
ENDROOT
BRANCH  14  16
ATOM     16  C   UNL     1       2.933   6.579  19.423  0.00  0.00    +0.000 C 
BRANCH  16  17
ATOM     17  N   UNL     1       2.829   5.750  18.195  0.00  0.00    +0.000 NA
BRANCH  17  18
ATOM     18  C   UNL     1       3.974   4.804  17.970  0.00  0.00    +0.000 C 
ATOM     19  C   UNL     1       4.463   4.880  16.501  0.00  0.00    +0.000 C 
ATOM     20  C   UNL     1       5.047   6.259  16.206  0.00  0.00    +0.000 C 
ATOM     21  C   UNL     1       6.341   6.454  16.978  0.00  0.00    +0.000 C 
ATOM     22  C   UNL     1       6.203   6.126  18.461  0.00  0.00    +0.000 C 
ATOM     23  C   UNL     1       5.273   4.951  18.804  0.00  0.00    +0.000 C 
ENDBRANCH  17  18
BRANCH  17  24
ATOM     24  C   UNL     1       1.538   4.984  18.263  0.00  0.00    +0.000 C 
ATOM     25  C   UNL     1       1.495   3.485  18.106  0.00  0.00    +0.000 C 
ATOM     26  C   UNL     1       1.263   4.091  19.452  0.00  0.00    +0.000 C 
ENDBRANCH  17  24
ENDBRANCH  16  17
ENDBRANCH  14  16
TORSDOF 4
ENDMDL
MODEL 4
REMARK VINA RESULT:      -6.0      9.186     11.082
REMARK  Name = 
REMARK  4 active torsions:
REMARK  status: ('A' for Active; 'I' for Inactive)
REMARK    1  A    between atoms: N_14  and  C_15
REMARK    2  A    between atoms: C_15  and  N_16
REMARK    3  A    between atoms: N_16  and  C_17
REMARK    4  A    between atoms: N_16  and  C_23
REMARK                            x       y       z     vdW  Elec       q    Type
REMARK                         _______ _______ _______ _____ _____    ______ ____
ROOT
ATOM      1  O   UNL     1      -2.832  11.487  23.733  0.00  0.00    +0.000 OA
ATOM      2  C   UNL     1      -3.111  12.128  22.733  0.00  0.00    +0.000 C 
ATOM      3  N   UNL     1      -4.393  12.548  22.441  0.00  0.00    +0.000 N 
ATOM      4  C   UNL     1      -4.400  13.702  21.581  0.00  0.00    +0.000 C 
ATOM      5  C   UNL     1      -4.857  14.939  22.362  0.00  0.00    +0.000 C 
ATOM      6  C   UNL     1      -6.367  15.184  22.426  0.00  0.00    +0.000 C 
ATOM      7  C   UNL     1      -7.231  14.086  23.047  0.00  0.00    +0.000 C 
ATOM      8  C   UNL     1      -7.628  12.856  22.220  0.00  0.00    +0.000 C 
ATOM      9  C   UNL     1      -7.561  12.954  20.702  0.00  0.00    +0.000 C 
ATOM     10  C   UNL     1      -6.230  12.513  20.107  0.00  0.00    +0.000 C 
ATOM     11  C   UNL     1      -5.094  13.523  20.209  0.00  0.00    +0.000 C 
ATOM     12  C   UNL     1      -2.875  13.771  21.281  0.00  0.00    +0.000 C 
ATOM     13  O   UNL     1      -2.319  14.667  20.654  0.00  0.00    +0.000 OA
ATOM     14  N   UNL     1      -2.286  12.657  21.805  0.00  0.00    +0.000 N 
ATOM     15  H   UNL     1      -5.084  12.363  23.160  0.00  0.00    +0.000 HD
ENDROOT
BRANCH  14  16
ATOM     16  C   UNL     1      -0.886  12.361  21.694  0.00  0.00    +0.000 C 
BRANCH  16  17
ATOM     17  N   UNL     1      -0.630  11.180  20.830  0.00  0.00    +0.000 NA
BRANCH  17  18
ATOM     18  C   UNL     1       0.012  11.489  19.508  0.00  0.00    +0.000 C 
ATOM     19  C   UNL     1       0.151  10.203  18.655  0.00  0.00    +0.000 C 
ATOM     20  C   UNL     1      -1.227   9.656  18.288  0.00  0.00    +0.000 C 
ATOM     21  C   UNL     1      -1.923  10.599  17.323  0.00  0.00    +0.000 C 
ATOM     22  C   UNL     1      -1.919  12.048  17.800  0.00  0.00    +0.000 C 
ATOM     23  C   UNL     1      -0.655  12.506  18.544  0.00  0.00    +0.000 C 
ENDBRANCH  17  18
BRANCH  17  24
ATOM     24  C   UNL     1       0.227  10.218  21.603  0.00  0.00    +0.000 C 
ATOM     25  C   UNL     1      -0.098   9.831  23.023  0.00  0.00    +0.000 C 
ATOM     26  C   UNL     1      -0.303   8.840  21.924  0.00  0.00    +0.000 C 
ENDBRANCH  17  24
ENDBRANCH  16  17
ENDBRANCH  14  16
TORSDOF 4
ENDMDL
MODEL 5
REMARK VINA RESULT:      -6.0      4.175      6.461
REMARK  Name = 
REMARK  4 active torsions:
REMARK  status: ('A' for Active; 'I' for Inactive)
REMARK    1  A    between atoms: N_14  and  C_15
REMARK    2  A    between atoms: C_15  and  N_16
REMARK    3  A    between atoms: N_16  and  C_17
REMARK    4  A    between atoms: N_16  and  C_23
REMARK                            x       y       z     vdW  Elec       q    Type
REMARK                         _______ _______ _______ _____ _____    ______ ____
ROOT
ATOM      1  O   UNL     1       2.361   8.661  17.160  0.00  0.00    +0.000 OA
ATOM      2  C   UNL     1       2.004   8.975  18.285  0.00  0.00    +0.000 C 
ATOM      3  N   UNL     1       1.303  10.132  18.556  0.00  0.00    +0.000 N 
ATOM      4  C   UNL     1       0.533  10.024  19.768  0.00  0.00    +0.000 C 
ATOM      5  C   UNL     1      -0.961   9.953  19.438  0.00  0.00    +0.000 C 
ATOM      6  C   UNL     1      -1.691  11.291  19.291  0.00  0.00    +0.000 C 
ATOM      7  C   UNL     1      -1.181  12.254  18.219  0.00  0.00    +0.000 C 
ATOM      8  C   UNL     1       0.045  13.136  18.493  0.00  0.00    +0.000 C 
ATOM      9  C   UNL     1       0.446  13.384  19.941  0.00  0.00    +0.000 C 
ATOM     10  C   UNL     1       1.457  12.383  20.488  0.00  0.00    +0.000 C 
ATOM     11  C   UNL     1       0.890  11.027  20.891  0.00  0.00    +0.000 C 
ATOM     12  C   UNL     1       1.059   8.642  20.248  0.00  0.00    +0.000 C 
ATOM     13  O   UNL     1       0.631   8.021  21.217  0.00  0.00    +0.000 OA
ATOM     14  N   UNL     1       2.086   8.267  19.431  0.00  0.00    +0.000 N 
ATOM     15  H   UNL     1       1.022  10.670  17.743  0.00  0.00    +0.000 HD
ENDROOT
BRANCH  14  16
ATOM     16  C   UNL     1       2.839   7.055  19.590  0.00  0.00    +0.000 C 
BRANCH  16  17
ATOM     17  N   UNL     1       2.274   5.937  18.791  0.00  0.00    +0.000 NA
BRANCH  17  18
ATOM     18  C   UNL     1       3.053   5.582  17.557  0.00  0.00    +0.000 C 
ATOM     19  C   UNL     1       4.484   6.172  17.628  0.00  0.00    +0.000 C 
ATOM     20  C   UNL     1       5.269   5.530  18.769  0.00  0.00    +0.000 C 
ATOM     21  C   UNL     1       5.546   4.070  18.455  0.00  0.00    +0.000 C 
ATOM     22  C   UNL     1       4.296   3.305  18.033  0.00  0.00    +0.000 C 
ATOM     23  C   UNL     1       3.281   4.092  17.190  0.00  0.00    +0.000 C 
ENDBRANCH  17  18
BRANCH  17  24
ATOM     24  C   UNL     1       2.164   4.738  19.689  0.00  0.00    +0.000 C 
ATOM     25  C   UNL     1       2.004   4.876  21.182  0.00  0.00    +0.000 C 
ATOM     26  C   UNL     1       0.844   4.424  20.356  0.00  0.00    +0.000 C 
ENDBRANCH  17  24
ENDBRANCH  16  17
ENDBRANCH  14  16
TORSDOF 4
ENDMDL
MODEL 6
REMARK VINA RESULT:      -6.0      8.946     11.594
REMARK  Name = 
REMARK  4 active torsions:
REMARK  status: ('A' for Active; 'I' for Inactive)
REMARK    1  A    between atoms: N_14  and  C_15
REMARK    2  A    between atoms: C_15  and  N_16
REMARK    3  A    between atoms: N_16  and  C_17
REMARK    4  A    between atoms: N_16  and  C_23
REMARK                            x       y       z     vdW  Elec       q    Type
REMARK                         _______ _______ _______ _____ _____    ______ ____
ROOT
ATOM      1  O   UNL     1       6.710  14.512  18.750  0.00  0.00    +0.000 OA
ATOM      2  C   UNL     1       7.727  14.446  19.423  0.00  0.00    +0.000 C 
ATOM      3  N   UNL     1       8.887  13.847  18.977  0.00  0.00    +0.000 N 
ATOM      4  C   UNL     1      10.052  14.359  19.650  0.00  0.00    +0.000 C 
ATOM      5  C   UNL     1      10.881  15.217  18.688  0.00  0.00    +0.000 C 
ATOM      6  C   UNL     1      11.909  14.476  17.829  0.00  0.00    +0.000 C 
ATOM      7  C   UNL     1      11.386  13.381  16.898  0.00  0.00    +0.000 C 
ATOM      8  C   UNL     1      11.077  11.982  17.450  0.00  0.00    +0.000 C 
ATOM      9  C   UNL     1      11.715  11.569  18.769  0.00  0.00    +0.000 C 
ATOM     10  C   UNL     1      10.864  11.878  19.995  0.00  0.00    +0.000 C 
ATOM     11  C   UNL     1      10.877  13.330  20.458  0.00  0.00    +0.000 C 
ATOM     12  C   UNL     1       9.332  15.250  20.703  0.00  0.00    +0.000 C 
ATOM     13  O   UNL     1       9.893  16.010  21.486  0.00  0.00    +0.000 OA
ATOM     14  N   UNL     1       7.991  15.011  20.621  0.00  0.00    +0.000 N 
ATOM     15  H   UNL     1       8.871  13.536  18.012  0.00  0.00    +0.000 HD
ENDROOT
BRANCH  14  16
ATOM     16  C   UNL     1       7.010  15.632  21.464  0.00  0.00    +0.000 C 
BRANCH  16  17
ATOM     17  N   UNL     1       6.210  14.634  22.219  0.00  0.00    +0.000 NA
BRANCH  17  18
ATOM     18  C   UNL     1       6.645  14.415  23.640  0.00  0.00    +0.000 C 
ATOM     19  C   UNL     1       5.931  13.180  24.244  0.00  0.00    +0.000 C 
ATOM     20  C   UNL     1       6.360  11.908  23.516  0.00  0.00    +0.000 C 
ATOM     21  C   UNL     1       7.819  11.604  23.812  0.00  0.00    +0.000 C 
ATOM     22  C   UNL     1       8.733  12.805  23.589  0.00  0.00    +0.000 C 
ATOM     23  C   UNL     1       8.144  14.174  23.959  0.00  0.00    +0.000 C 
ENDBRANCH  17  18
BRANCH  17  24
ATOM     24  C   UNL     1       4.773  15.074  22.186  0.00  0.00    +0.000 C 
ATOM     25  C   UNL     1       4.144  15.636  20.937  0.00  0.00    +0.000 C 
ATOM     26  C   UNL     1       3.765  14.268  21.400  0.00  0.00    +0.000 C 
ENDBRANCH  17  24
ENDBRANCH  16  17
ENDBRANCH  14  16
TORSDOF 4
ENDMDL
MODEL 7
REMARK VINA RESULT:      -5.9      9.195     11.686
REMARK  Name = 
REMARK  4 active torsions:
REMARK  status: ('A' for Active; 'I' for Inactive)
REMARK    1  A    between atoms: N_14  and  C_15
REMARK    2  A    between atoms: C_15  and  N_16
REMARK    3  A    between atoms: N_16  and  C_17
REMARK    4  A    between atoms: N_16  and  C_23
REMARK                            x       y       z     vdW  Elec       q    Type
REMARK                         _______ _______ _______ _____ _____    ______ ____
ROOT
ATOM      1  O   UNL     1       6.742  13.855  17.380  0.00  0.00    +0.000 OA
ATOM      2  C   UNL     1       7.533  14.282  18.206  0.00  0.00    +0.000 C 
ATOM      3  N   UNL     1       8.741  13.671  18.476  0.00  0.00    +0.000 N 
ATOM      4  C   UNL     1       9.703  14.595  19.019  0.00  0.00    +0.000 C 
ATOM      5  C   UNL     1      10.801  14.878  17.989  0.00  0.00    +0.000 C 
ATOM      6  C   UNL     1      11.988  13.910  17.974  0.00  0.00    +0.000 C 
ATOM      7  C   UNL     1      11.686  12.434  17.711  0.00  0.00    +0.000 C 
ATOM      8  C   UNL     1      11.173  11.537  18.846  0.00  0.00    +0.000 C 
ATOM      9  C   UNL     1      11.409  11.984  20.283  0.00  0.00    +0.000 C 
ATOM     10  C   UNL     1      10.273  12.812  20.871  0.00  0.00    +0.000 C 
ATOM     11  C   UNL     1      10.229  14.272  20.438  0.00  0.00    +0.000 C 
ATOM     12  C   UNL     1       8.767  15.827  19.180  0.00  0.00    +0.000 C 
ATOM     13  O   UNL     1       9.130  16.949  19.522  0.00  0.00    +0.000 OA
ATOM     14  N   UNL     1       7.489  15.432  18.911  0.00  0.00    +0.000 N 
ATOM     15  H   UNL     1       8.973  12.886  17.877  0.00  0.00    +0.000 HD
ENDROOT
BRANCH  14  16
ATOM     16  C   UNL     1       6.346  16.297  18.990  0.00  0.00    +0.000 C 
BRANCH  16  17
ATOM     17  N   UNL     1       5.261  15.715  19.820  0.00  0.00    +0.000 NA
BRANCH  17  18
ATOM     18  C   UNL     1       5.151  16.279  21.207  0.00  0.00    +0.000 C 
ATOM     19  C   UNL     1       4.308  15.344  22.111  0.00  0.00    +0.000 C 
ATOM     20  C   UNL     1       5.019  14.005  22.301  0.00  0.00    +0.000 C 
ATOM     21  C   UNL     1       6.276  14.195  23.132  0.00  0.00    +0.000 C 
ATOM     22  C   UNL     1       7.166  15.320  22.614  0.00  0.00    +0.000 C 
ATOM     23  C   UNL     1       6.435  16.542  22.038  0.00  0.00    +0.000 C 
ENDBRANCH  17  18
BRANCH  17  24
ATOM     24  C   UNL     1       3.964  15.907  19.085  0.00  0.00    +0.000 C 
ATOM     25  C   UNL     1       3.853  15.679  17.599  0.00  0.00    +0.000 C 
ATOM     26  C   UNL     1       3.230  14.702  18.543  0.00  0.00    +0.000 C 
ENDBRANCH  17  24
ENDBRANCH  16  17
ENDBRANCH  14  16
TORSDOF 4
ENDMDL
MODEL 8
REMARK VINA RESULT:      -5.9      9.893     12.870
REMARK  Name = 
REMARK  4 active torsions:
REMARK  status: ('A' for Active; 'I' for Inactive)
REMARK    1  A    between atoms: N_14  and  C_15
REMARK    2  A    between atoms: C_15  and  N_16
REMARK    3  A    between atoms: N_16  and  C_17
REMARK    4  A    between atoms: N_16  and  C_23
REMARK                            x       y       z     vdW  Elec       q    Type
REMARK                         _______ _______ _______ _____ _____    ______ ____
ROOT
ATOM      1  O   UNL     1      -4.073  12.370  19.330  0.00  0.00    +0.000 OA
ATOM      2  C   UNL     1      -3.296  12.652  20.229  0.00  0.00    +0.000 C 
ATOM      3  N   UNL     1      -2.236  11.845  20.587  0.00  0.00    +0.000 N 
ATOM      4  C   UNL     1      -1.183  12.589  21.228  0.00  0.00    +0.000 C 
ATOM      5  C   UNL     1       0.032  12.688  20.300  0.00  0.00    +0.000 C 
ATOM      6  C   UNL     1       1.036  11.533  20.366  0.00  0.00    +0.000 C 
ATOM      7  C   UNL     1       0.514  10.131  20.049  0.00  0.00    +0.000 C 
ATOM      8  C   UNL     1      -0.239   9.327  21.118  0.00  0.00    +0.000 C 
ATOM      9  C   UNL     1      -0.056   9.720  22.578  0.00  0.00    +0.000 C 
ATOM     10  C   UNL     1      -1.083  10.725  23.085  0.00  0.00    +0.000 C 
ATOM     11  C   UNL     1      -0.844  12.174  22.679  0.00  0.00    +0.000 C 
ATOM     12  C   UNL     1      -1.909  13.961  21.335  0.00  0.00    +0.000 C 
ATOM     13  O   UNL     1      -1.393  15.003  21.728  0.00  0.00    +0.000 OA
ATOM     14  N   UNL     1      -3.207  13.790  20.950  0.00  0.00    +0.000 N 
ATOM     15  H   UNL     1      -2.088  11.035  19.995  0.00  0.00    +0.000 HD
ENDROOT
BRANCH  14  16
ATOM     16  C   UNL     1      -4.190  14.835  20.950  0.00  0.00    +0.000 C 
BRANCH  16  17
ATOM     17  N   UNL     1      -5.441  14.426  21.639  0.00  0.00    +0.000 NA
BRANCH  17  18
ATOM     18  C   UNL     1      -5.552  14.869  23.069  0.00  0.00    +0.000 C 
ATOM     19  C   UNL     1      -6.611  14.024  23.821  0.00  0.00    +0.000 C 
ATOM     20  C   UNL     1      -6.163  12.567  23.910  0.00  0.00    +0.000 C 
ATOM     21  C   UNL     1      -4.957  12.446  24.825  0.00  0.00    +0.000 C 
ATOM     22  C   UNL     1      -3.847  13.432  24.478  0.00  0.00    +0.000 C 
ATOM     23  C   UNL     1      -4.306  14.816  23.993  0.00  0.00    +0.000 C 
ENDBRANCH  17  18
BRANCH  17  24
ATOM     24  C   UNL     1      -6.600  14.960  20.846  0.00  0.00    +0.000 C 
ATOM     25  C   UNL     1      -6.643  14.868  19.342  0.00  0.00    +0.000 C 
ATOM     26  C   UNL     1      -7.540  13.997  20.159  0.00  0.00    +0.000 C 
ENDBRANCH  17  24
ENDBRANCH  16  17
ENDBRANCH  14  16
TORSDOF 4
ENDMDL
MODEL 9
REMARK VINA RESULT:      -5.9      8.782     10.267
REMARK  Name = 
REMARK  4 active torsions:
REMARK  status: ('A' for Active; 'I' for Inactive)
REMARK    1  A    between atoms: N_14  and  C_15
REMARK    2  A    between atoms: C_15  and  N_16
REMARK    3  A    between atoms: N_16  and  C_17
REMARK    4  A    between atoms: N_16  and  C_23
REMARK                            x       y       z     vdW  Elec       q    Type
REMARK                         _______ _______ _______ _____ _____    ______ ____
ROOT
ATOM      1  O   UNL     1      10.296  14.337  20.984  0.00  0.00    +0.000 OA
ATOM      2  C   UNL     1       9.122  14.118  21.243  0.00  0.00    +0.000 C 
ATOM      3  N   UNL     1       8.683  13.766  22.502  0.00  0.00    +0.000 N 
ATOM      4  C   UNL     1       7.297  14.103  22.703  0.00  0.00    +0.000 C 
ATOM      5  C   UNL     1       7.176  15.274  23.683  0.00  0.00    +0.000 C 
ATOM      6  C   UNL     1       7.132  14.917  25.171  0.00  0.00    +0.000 C 
ATOM      7  C   UNL     1       8.326  14.153  25.745  0.00  0.00    +0.000 C 
ATOM      8  C   UNL     1       8.439  12.635  25.547  0.00  0.00    +0.000 C 
ATOM      9  C   UNL     1       7.176  11.856  25.206  0.00  0.00    +0.000 C 
ATOM     10  C   UNL     1       6.927  11.698  23.711  0.00  0.00    +0.000 C 
ATOM     11  C   UNL     1       6.348  12.918  23.006  0.00  0.00    +0.000 C 
ATOM     12  C   UNL     1       6.963  14.557  21.254  0.00  0.00    +0.000 C 
ATOM     13  O   UNL     1       5.898  15.055  20.898  0.00  0.00    +0.000 OA
ATOM     14  N   UNL     1       8.035  14.277  20.458  0.00  0.00    +0.000 N 
ATOM     15  H   UNL     1       9.390  13.786  23.229  0.00  0.00    +0.000 HD
ENDROOT
BRANCH  14  16
ATOM     16  C   UNL     1       8.078  14.530  19.046  0.00  0.00    +0.000 C 
BRANCH  16  17
ATOM     17  N   UNL     1       9.447  14.376  18.492  0.00  0.00    +0.000 NA
BRANCH  17  18
ATOM     18  C   UNL     1       9.653  13.157  17.640  0.00  0.00    +0.000 C 
ATOM     19  C   UNL     1      11.120  13.077  17.148  0.00  0.00    +0.000 C 
ATOM     20  C   UNL     1      12.068  12.879  18.330  0.00  0.00    +0.000 C 
ATOM     21  C   UNL     1      11.864  11.501  18.936  0.00  0.00    +0.000 C 
ATOM     22  C   UNL     1      10.401  11.194  19.236  0.00  0.00    +0.000 C 
ATOM     23  C   UNL     1       9.380  11.748  18.230  0.00  0.00    +0.000 C 
ENDBRANCH  17  18
BRANCH  17  24
ATOM     24  C   UNL     1       9.766  15.613  17.700  0.00  0.00    +0.000 C 
ATOM     25  C   UNL     1       9.360  16.986  18.173  0.00  0.00    +0.000 C 
ATOM     26  C   UNL     1      10.798  16.586  18.222  0.00  0.00    +0.000 C 
ENDBRANCH  17  24
ENDBRANCH  16  17
ENDBRANCH  14  16
TORSDOF 4
ENDMDL
