MODEL 1
REMARK VINA RESULT:      -7.3      0.000      0.000
REMARK  Name = 
REMARK  5 active torsions:
REMARK  status: ('A' for Active; 'I' for Inactive)
REMARK    1  A    between atoms: C_1  and  C_2
REMARK    2  A    between atoms: C_2  and  C_3
REMARK    3  A    between atoms: C_8  and  C_9
REMARK    4  A    between atoms: C_13  and  N_14
REMARK    5  A    between atoms: C_19  and  O_20
REMARK                            x       y       z     vdW  Elec       q    Type
REMARK                         _______ _______ _______ _____ _____    ______ ____
ROOT
ATOM      1  C   UNL     1       2.921   2.234  19.945  0.00  0.00    +0.000 C 
ATOM      2  C   UNL     1       2.681   3.538  19.161  0.00  0.00    +0.000 C 
ATOM      3  C   UNL     1       1.462   3.306  18.247  0.00  0.00    +0.000 C 
ATOM      4  O   UNL     1       2.402   4.553  20.148  0.00  0.00    +0.000 OA
ATOM      5  C   UNL     1       2.390   5.841  19.685  0.00  0.00    +0.000 A 
ATOM      6  C   UNL     1       1.827   6.791  20.542  0.00  0.00    +0.000 A 
ATOM      7  C   UNL     1       1.681   8.118  20.127  0.00  0.00    +0.000 A 
ATOM      8  C   UNL     1       1.990   8.466  18.816  0.00  0.00    +0.000 A 
ATOM      9  C   UNL     1       2.519   7.495  17.957  0.00  0.00    +0.000 A 
ATOM     10  C   UNL     1       2.878   6.219  18.430  0.00  0.00    +0.000 A 
ATOM     11  C   UNL     1       3.779   5.281  17.633  0.00  0.00    +0.000 C 
ATOM     12  C   UNL     1       3.963   3.919  18.393  0.00  0.00    +0.000 C 
ENDROOT
BRANCH  11  13
ATOM     13  N   UNL     1       5.122   5.799  17.231  0.00  0.00    +0.000 NA
ATOM     14  C   UNL     1       5.242   6.361  15.878  0.00  0.00    +0.000 C 
ATOM     15  C   UNL     1       5.673   5.197  15.010  0.00  0.00    +0.000 C 
ATOM     16  C   UNL     1       6.598   4.412  15.927  0.00  0.00    +0.000 C 
ATOM     17  C   UNL     1       6.254   4.876  17.349  0.00  0.00    +0.000 C 
ENDBRANCH  11  13
BRANCH   8  18
ATOM     18  C   UNL     1       1.866   9.828  18.369  0.00  0.00    +0.000 C 
ATOM     19  N   UNL     1       1.728  10.929  18.037  0.00  0.00    +0.000 NA
ENDBRANCH   8  18
BRANCH  12  20
ATOM     20  O   UNL     1       4.388   2.856  17.527  0.00  0.00    +0.000 OA
ATOM     21  H   UNL     1       4.252   2.014  17.978  0.00  0.00    +0.000 HD
ENDBRANCH  12  20
TORSDOF 3
ENDMDL
MODEL 2
REMARK VINA RESULT:      -7.2      1.900      4.128
REMARK  Name = 
REMARK  5 active torsions:
REMARK  status: ('A' for Active; 'I' for Inactive)
REMARK    1  A    between atoms: C_1  and  C_2
REMARK    2  A    between atoms: C_2  and  C_3
REMARK    3  A    between atoms: C_8  and  C_9
REMARK    4  A    between atoms: C_13  and  N_14
REMARK    5  A    between atoms: C_19  and  O_20
REMARK                            x       y       z     vdW  Elec       q    Type
REMARK                         _______ _______ _______ _____ _____    ______ ____
ROOT
ATOM      1  C   UNL     1       5.745   5.450  15.481  0.00  0.00    +0.000 C 
ATOM      2  C   UNL     1       5.118   5.714  16.862  0.00  0.00    +0.000 C 
ATOM      3  C   UNL     1       6.261   6.106  17.817  0.00  0.00    +0.000 C 
ATOM      4  O   UNL     1       4.196   6.810  16.681  0.00  0.00    +0.000 OA
ATOM      5  C   UNL     1       3.355   7.056  17.733  0.00  0.00    +0.000 A 
ATOM      6  C   UNL     1       2.683   8.281  17.702  0.00  0.00    +0.000 A 
ATOM      7  C   UNL     1       1.874   8.670  18.773  0.00  0.00    +0.000 A 
ATOM      8  C   UNL     1       1.830   7.886  19.922  0.00  0.00    +0.000 A 
ATOM      9  C   UNL     1       2.538   6.679  19.952  0.00  0.00    +0.000 A 
ATOM     10  C   UNL     1       3.170   6.173  18.802  0.00  0.00    +0.000 A 
ATOM     11  C   UNL     1       3.623   4.721  18.695  0.00  0.00    +0.000 C 
ATOM     12  C   UNL     1       4.334   4.466  17.318  0.00  0.00    +0.000 C 
ENDROOT
BRANCH  11  13
ATOM     13  N   UNL     1       2.590   3.663  18.911  0.00  0.00    +0.000 NA
ATOM     14  C   UNL     1       1.285   4.102  19.427  0.00  0.00    +0.000 C 
ATOM     15  C   UNL     1       1.402   3.987  20.933  0.00  0.00    +0.000 C 
ATOM     16  C   UNL     1       2.260   2.744  21.114  0.00  0.00    +0.000 C 
ATOM     17  C   UNL     1       2.962   2.532  19.766  0.00  0.00    +0.000 C 
ENDBRANCH  11  13
BRANCH   8  18
ATOM     18  C   UNL     1       0.990   8.255  21.031  0.00  0.00    +0.000 C 
ATOM     19  N   UNL     1       0.325   8.597  21.914  0.00  0.00    +0.000 NA
ENDBRANCH   8  18
BRANCH  12  20
ATOM     20  O   UNL     1       5.173   3.301  17.335  0.00  0.00    +0.000 OA
ATOM     21  H   UNL     1       5.681   3.297  18.155  0.00  0.00    +0.000 HD
ENDBRANCH  12  20
TORSDOF 3
ENDMDL
MODEL 3
REMARK VINA RESULT:      -7.1      3.274      6.176
REMARK  Name = 
REMARK  5 active torsions:
REMARK  status: ('A' for Active; 'I' for Inactive)
REMARK    1  A    between atoms: C_1  and  C_2
REMARK    2  A    between atoms: C_2  and  C_3
REMARK    3  A    between atoms: C_8  and  C_9
REMARK    4  A    between atoms: C_13  and  N_14
REMARK    5  A    between atoms: C_19  and  O_20
REMARK                            x       y       z     vdW  Elec       q    Type
REMARK                         _______ _______ _______ _____ _____    ______ ____
ROOT
ATOM      1  C   UNL     1       7.848   6.215  18.804  0.00  0.00    +0.000 C 
ATOM      2  C   UNL     1       6.825   5.926  17.690  0.00  0.00    +0.000 C 
ATOM      3  C   UNL     1       6.188   7.271  17.293  0.00  0.00    +0.000 C 
ATOM      4  O   UNL     1       7.575   5.364  16.593  0.00  0.00    +0.000 OA
ATOM      5  C   UNL     1       6.828   4.816  15.584  0.00  0.00    +0.000 A 
ATOM      6  C   UNL     1       7.511   4.552  14.394  0.00  0.00    +0.000 A 
ATOM      7  C   UNL     1       6.822   4.080  13.274  0.00  0.00    +0.000 A 
ATOM      8  C   UNL     1       5.434   3.985  13.310  0.00  0.00    +0.000 A 
ATOM      9  C   UNL     1       4.759   4.288  14.499  0.00  0.00    +0.000 A 
ATOM     10  C   UNL     1       5.459   4.545  15.692  0.00  0.00    +0.000 A 
ATOM     11  C   UNL     1       4.779   4.513  17.056  0.00  0.00    +0.000 C 
ATOM     12  C   UNL     1       5.803   4.884  18.190  0.00  0.00    +0.000 C 
ENDROOT
BRANCH  11  13
ATOM     13  N   UNL     1       4.067   3.256  17.437  0.00  0.00    +0.000 NA
ATOM     14  C   UNL     1       2.632   3.184  17.129  0.00  0.00    +0.000 C 
ATOM     15  C   UNL     1       1.939   3.695  18.375  0.00  0.00    +0.000 C 
ATOM     16  C   UNL     1       2.820   3.164  19.496  0.00  0.00    +0.000 C 
ATOM     17  C   UNL     1       4.165   2.832  18.837  0.00  0.00    +0.000 C 
ENDBRANCH  11  13
BRANCH   8  18
ATOM     18  C   UNL     1       4.703   3.485  12.176  0.00  0.00    +0.000 C 
ATOM     19  N   UNL     1       4.097   3.125  11.257  0.00  0.00    +0.000 NA
ENDBRANCH   8  18
BRANCH  12  20
ATOM     20  O   UNL     1       5.158   5.321  19.395  0.00  0.00    +0.000 OA
ATOM     21  H   UNL     1       4.468   4.688  19.626  0.00  0.00    +0.000 HD
ENDBRANCH  12  20
TORSDOF 3
ENDMDL
MODEL 4
REMARK VINA RESULT:      -7.1      1.952      4.077
REMARK  Name = 
REMARK  5 active torsions:
REMARK  status: ('A' for Active; 'I' for Inactive)
REMARK    1  A    between atoms: C_1  and  C_2
REMARK    2  A    between atoms: C_2  and  C_3
REMARK    3  A    between atoms: C_8  and  C_9
REMARK    4  A    between atoms: C_13  and  N_14
REMARK    5  A    between atoms: C_19  and  O_20
REMARK                            x       y       z     vdW  Elec       q    Type
REMARK                         _______ _______ _______ _____ _____    ______ ____
ROOT
ATOM      1  C   UNL     1       5.329   5.383  15.888  0.00  0.00    +0.000 C 
ATOM      2  C   UNL     1       4.616   5.772  17.196  0.00  0.00    +0.000 C 
ATOM      3  C   UNL     1       5.703   5.967  18.270  0.00  0.00    +0.000 C 
ATOM      4  O   UNL     1       3.928   7.011  16.924  0.00  0.00    +0.000 OA
ATOM      5  C   UNL     1       3.037   7.416  17.882  0.00  0.00    +0.000 A 
ATOM      6  C   UNL     1       2.600   8.740  17.787  0.00  0.00    +0.000 A 
ATOM      7  C   UNL     1       1.764   9.280  18.768  0.00  0.00    +0.000 A 
ATOM      8  C   UNL     1       1.460   8.531  19.901  0.00  0.00    +0.000 A 
ATOM      9  C   UNL     1       1.935   7.218  19.999  0.00  0.00    +0.000 A 
ATOM     10  C   UNL     1       2.586   6.592  18.920  0.00  0.00    +0.000 A 
ATOM     11  C   UNL     1       2.783   5.082  18.853  0.00  0.00    +0.000 C 
ATOM     12  C   UNL     1       3.579   4.687  17.558  0.00  0.00    +0.000 C 
ENDROOT
BRANCH  11  13
ATOM     13  N   UNL     1       1.561   4.227  18.951  0.00  0.00    +0.000 NA
ATOM     14  C   UNL     1       1.049   3.949  20.301  0.00  0.00    +0.000 C 
ATOM     15  C   UNL     1       1.720   2.656  20.714  0.00  0.00    +0.000 C 
ATOM     16  C   UNL     1       1.781   1.873  19.411  0.00  0.00    +0.000 C 
ATOM     17  C   UNL     1       1.611   2.916  18.298  0.00  0.00    +0.000 C 
ENDBRANCH  11  13
BRANCH   8  18
ATOM     18  C   UNL     1       0.586   9.057  20.916  0.00  0.00    +0.000 C 
ATOM     19  N   UNL     1      -0.081   9.478  21.763  0.00  0.00    +0.000 NA
ENDBRANCH   8  18
BRANCH  12  20
ATOM     20  O   UNL     1       4.191   3.393  17.658  0.00  0.00    +0.000 OA
ATOM     21  H   UNL     1       4.259   3.012  16.774  0.00  0.00    +0.000 HD
ENDBRANCH  12  20
TORSDOF 3
ENDMDL
MODEL 5
REMARK VINA RESULT:      -6.9      1.932      4.019
REMARK  Name = 
REMARK  5 active torsions:
REMARK  status: ('A' for Active; 'I' for Inactive)
REMARK    1  A    between atoms: C_1  and  C_2
REMARK    2  A    between atoms: C_2  and  C_3
REMARK    3  A    between atoms: C_8  and  C_9
REMARK    4  A    between atoms: C_13  and  N_14
REMARK    5  A    between atoms: C_19  and  O_20
REMARK                            x       y       z     vdW  Elec       q    Type
REMARK                         _______ _______ _______ _____ _____    ______ ____
ROOT
ATOM      1  C   UNL     1       6.263   5.430  15.935  0.00  0.00    +0.000 C 
ATOM      2  C   UNL     1       5.558   5.863  17.234  0.00  0.00    +0.000 C 
ATOM      3  C   UNL     1       6.581   6.657  18.068  0.00  0.00    +0.000 C 
ATOM      4  O   UNL     1       4.455   6.702  16.831  0.00  0.00    +0.000 OA
ATOM      5  C   UNL     1       3.553   7.007  17.815  0.00  0.00    +0.000 A 
ATOM      6  C   UNL     1       2.667   8.049  17.528  0.00  0.00    +0.000 A 
ATOM      7  C   UNL     1       1.769   8.501  18.499  0.00  0.00    +0.000 A 
ATOM      8  C   UNL     1       1.838   7.988  19.791  0.00  0.00    +0.000 A 
ATOM      9  C   UNL     1       2.756   6.969  20.073  0.00  0.00    +0.000 A 
ATOM     10  C   UNL     1       3.505   6.355  19.052  0.00  0.00    +0.000 A 
ATOM     11  C   UNL     1       4.221   5.025  19.257  0.00  0.00    +0.000 C 
ATOM     12  C   UNL     1       5.006   4.617  17.959  0.00  0.00    +0.000 C 
ENDROOT
BRANCH  11  13
ATOM     13  N   UNL     1       3.395   3.864  19.709  0.00  0.00    +0.000 NA
ATOM     14  C   UNL     1       2.673   3.116  18.670  0.00  0.00    +0.000 C 
ATOM     15  C   UNL     1       1.311   3.774  18.592  0.00  0.00    +0.000 C 
ATOM     16  C   UNL     1       1.025   4.139  20.040  0.00  0.00    +0.000 C 
ATOM     17  C   UNL     1       2.389   4.125  20.743  0.00  0.00    +0.000 C 
ENDBRANCH  11  13
BRANCH   8  18
ATOM     18  C   UNL     1       0.913   8.423  20.803  0.00  0.00    +0.000 C 
ATOM     19  N   UNL     1       0.160   8.810  21.592  0.00  0.00    +0.000 NA
ENDBRANCH   8  18
BRANCH  12  20
ATOM     20  O   UNL     1       6.045   3.662  18.218  0.00  0.00    +0.000 OA
ATOM     21  H   UNL     1       6.868   4.136  18.390  0.00  0.00    +0.000 HD
ENDBRANCH  12  20
TORSDOF 3
ENDMDL
MODEL 6
REMARK VINA RESULT:      -6.9      1.288      1.776
REMARK  Name = 
REMARK  5 active torsions:
REMARK  status: ('A' for Active; 'I' for Inactive)
REMARK    1  A    between atoms: C_1  and  C_2
REMARK    2  A    between atoms: C_2  and  C_3
REMARK    3  A    between atoms: C_8  and  C_9
REMARK    4  A    between atoms: C_13  and  N_14
REMARK    5  A    between atoms: C_19  and  O_20
REMARK                            x       y       z     vdW  Elec       q    Type
REMARK                         _______ _______ _______ _____ _____    ______ ____
ROOT
ATOM      1  C   UNL     1       2.123   2.106  21.453  0.00  0.00    +0.000 C 
ATOM      2  C   UNL     1       1.991   3.186  20.363  0.00  0.00    +0.000 C 
ATOM      3  C   UNL     1       0.631   2.974  19.670  0.00  0.00    +0.000 C 
ATOM      4  O   UNL     1       2.031   4.455  21.049  0.00  0.00    +0.000 OA
ATOM      5  C   UNL     1       2.166   5.557  20.248  0.00  0.00    +0.000 A 
ATOM      6  C   UNL     1       1.899   6.787  20.854  0.00  0.00    +0.000 A 
ATOM      7  C   UNL     1       1.916   7.964  20.101  0.00  0.00    +0.000 A 
ATOM      8  C   UNL     1       2.085   7.895  18.721  0.00  0.00    +0.000 A 
ATOM      9  C   UNL     1       2.315   6.651  18.123  0.00  0.00    +0.000 A 
ATOM     10  C   UNL     1       2.522   5.494  18.896  0.00  0.00    +0.000 A 
ATOM     11  C   UNL     1       3.129   4.224  18.312  0.00  0.00    +0.000 C 
ATOM     12  C   UNL     1       3.194   3.093  19.401  0.00  0.00    +0.000 C 
ENDROOT
BRANCH  11  13
ATOM     13  N   UNL     1       4.467   4.343  17.656  0.00  0.00    +0.000 NA
ATOM     14  C   UNL     1       5.647   4.253  18.528  0.00  0.00    +0.000 C 
ATOM     15  C   UNL     1       5.954   5.684  18.916  0.00  0.00    +0.000 C 
ATOM     16  C   UNL     1       5.615   6.461  17.653  0.00  0.00    +0.000 C 
ATOM     17  C   UNL     1       4.703   5.535  16.836  0.00  0.00    +0.000 C 
ENDBRANCH  11  13
BRANCH   8  18
ATOM     18  C   UNL     1       2.125   9.094  17.926  0.00  0.00    +0.000 C 
ATOM     19  N   UNL     1       2.125  10.077  17.315  0.00  0.00    +0.000 NA
ENDBRANCH   8  18
BRANCH  12  20
ATOM     20  O   UNL     1       3.306   1.781  18.830  0.00  0.00    +0.000 OA
ATOM     21  H   UNL     1       3.854   1.832  18.038  0.00  0.00    +0.000 HD
ENDBRANCH  12  20
TORSDOF 3
ENDMDL
MODEL 7
REMARK VINA RESULT:      -6.9      1.852      4.106
REMARK  Name = 
REMARK  5 active torsions:
REMARK  status: ('A' for Active; 'I' for Inactive)
REMARK    1  A    between atoms: C_1  and  C_2
REMARK    2  A    between atoms: C_2  and  C_3
REMARK    3  A    between atoms: C_8  and  C_9
REMARK    4  A    between atoms: C_13  and  N_14
REMARK    5  A    between atoms: C_19  and  O_20
REMARK                            x       y       z     vdW  Elec       q    Type
REMARK                         _______ _______ _______ _____ _____    ______ ____
ROOT
ATOM      1  C   UNL     1       6.500   4.343  16.974  0.00  0.00    +0.000 C 
ATOM      2  C   UNL     1       5.553   5.043  17.966  0.00  0.00    +0.000 C 
ATOM      3  C   UNL     1       6.419   5.593  19.116  0.00  0.00    +0.000 C 
ATOM      4  O   UNL     1       4.927   6.116  17.232  0.00  0.00    +0.000 OA
ATOM      5  C   UNL     1       3.871   6.724  17.857  0.00  0.00    +0.000 A 
ATOM      6  C   UNL     1       3.458   7.942  17.310  0.00  0.00    +0.000 A 
ATOM      7  C   UNL     1       2.451   8.688  17.929  0.00  0.00    +0.000 A 
ATOM      8  C   UNL     1       1.941   8.272  19.155  0.00  0.00    +0.000 A 
ATOM      9  C   UNL     1       2.392   7.068  19.709  0.00  0.00    +0.000 A 
ATOM     10  C   UNL     1       3.235   6.202  18.989  0.00  0.00    +0.000 A 
ATOM     11  C   UNL     1       3.443   4.747  19.395  0.00  0.00    +0.000 C 
ATOM     12  C   UNL     1       4.469   4.049  18.431  0.00  0.00    +0.000 C 
ENDROOT
BRANCH  11  13
ATOM     13  N   UNL     1       2.226   3.888  19.513  0.00  0.00    +0.000 NA
ATOM     14  C   UNL     1       1.297   4.196  20.609  0.00  0.00    +0.000 C 
ATOM     15  C   UNL     1       1.754   3.328  21.763  0.00  0.00    +0.000 C 
ATOM     16  C   UNL     1       2.205   2.051  21.072  0.00  0.00    +0.000 C 
ATOM     17  C   UNL     1       2.439   2.440  19.606  0.00  0.00    +0.000 C 
ENDBRANCH  11  13
BRANCH   8  18
ATOM     18  C   UNL     1       0.892   9.013  19.803  0.00  0.00    +0.000 C 
ATOM     19  N   UNL     1       0.038   9.629  20.284  0.00  0.00    +0.000 NA
ENDBRANCH   8  18
BRANCH  12  20
ATOM     20  O   UNL     1       5.054   2.871  19.006  0.00  0.00    +0.000 OA
ATOM     21  H   UNL     1       5.756   3.136  19.613  0.00  0.00    +0.000 HD
ENDBRANCH  12  20
TORSDOF 3
ENDMDL
MODEL 8
REMARK VINA RESULT:      -6.9      1.907      3.890
REMARK  Name = 
REMARK  5 active torsions:
REMARK  status: ('A' for Active; 'I' for Inactive)
REMARK    1  A    between atoms: C_1  and  C_2
REMARK    2  A    between atoms: C_2  and  C_3
REMARK    3  A    between atoms: C_8  and  C_9
REMARK    4  A    between atoms: C_13  and  N_14
REMARK    5  A    between atoms: C_19  and  O_20
REMARK                            x       y       z     vdW  Elec       q    Type
REMARK                         _______ _______ _______ _____ _____    ______ ____
ROOT
ATOM      1  C   UNL     1       5.652   5.848  15.303  0.00  0.00    +0.000 C 
ATOM      2  C   UNL     1       5.068   6.079  16.709  0.00  0.00    +0.000 C 
ATOM      3  C   UNL     1       6.222   6.558  17.611  0.00  0.00    +0.000 C 
ATOM      4  O   UNL     1       4.065   7.106  16.563  0.00  0.00    +0.000 OA
ATOM      5  C   UNL     1       3.255   7.302  17.649  0.00  0.00    +0.000 A 
ATOM      6  C   UNL     1       2.498   8.476  17.641  0.00  0.00    +0.000 A 
ATOM      7  C   UNL     1       1.710   8.817  18.744  0.00  0.00    +0.000 A 
ATOM      8  C   UNL     1       1.772   8.042  19.898  0.00  0.00    +0.000 A 
ATOM      9  C   UNL     1       2.563   6.887  19.904  0.00  0.00    +0.000 A 
ATOM     10  C   UNL     1       3.180   6.417  18.730  0.00  0.00    +0.000 A 
ATOM     11  C   UNL     1       3.728   4.999  18.612  0.00  0.00    +0.000 C 
ATOM     12  C   UNL     1       4.395   4.782  17.206  0.00  0.00    +0.000 C 
ENDROOT
BRANCH  11  13
ATOM     13  N   UNL     1       2.782   3.874  18.879  0.00  0.00    +0.000 NA
ATOM     14  C   UNL     1       2.999   3.099  20.109  0.00  0.00    +0.000 C 
ATOM     15  C   UNL     1       3.900   1.954  19.695  0.00  0.00    +0.000 C 
ATOM     16  C   UNL     1       3.406   1.621  18.295  0.00  0.00    +0.000 C 
ATOM     17  C   UNL     1       2.635   2.863  17.828  0.00  0.00    +0.000 C 
ENDBRANCH  11  13
BRANCH   8  18
ATOM     18  C   UNL     1       0.957   8.361  21.040  0.00  0.00    +0.000 C 
ATOM     19  N   UNL     1       0.295   8.660  21.942  0.00  0.00    +0.000 NA
ENDBRANCH   8  18
BRANCH  12  20
ATOM     20  O   UNL     1       5.314   3.680  17.193  0.00  0.00    +0.000 OA
ATOM     21  H   UNL     1       4.887   2.915  17.597  0.00  0.00    +0.000 HD
ENDBRANCH  12  20
TORSDOF 3
ENDMDL
MODEL 9
REMARK VINA RESULT:      -6.9      1.937      3.974
REMARK  Name = 
REMARK  5 active torsions:
REMARK  status: ('A' for Active; 'I' for Inactive)
REMARK    1  A    between atoms: C_1  and  C_2
REMARK    2  A    between atoms: C_2  and  C_3
REMARK    3  A    between atoms: C_8  and  C_9
REMARK    4  A    between atoms: C_13  and  N_14
REMARK    5  A    between atoms: C_19  and  O_20
REMARK                            x       y       z     vdW  Elec       q    Type
REMARK                         _______ _______ _______ _____ _____    ______ ____
ROOT
ATOM      1  C   UNL     1       5.912   4.231  16.701  0.00  0.00    +0.000 C 
ATOM      2  C   UNL     1       5.210   4.913  17.890  0.00  0.00    +0.000 C 
ATOM      3  C   UNL     1       6.302   5.591  18.740  0.00  0.00    +0.000 C 
ATOM      4  O   UNL     1       4.316   5.893  17.319  0.00  0.00    +0.000 OA
ATOM      5  C   UNL     1       3.419   6.453  18.188  0.00  0.00    +0.000 A 
ATOM      6  C   UNL     1       2.768   7.604  17.733  0.00  0.00    +0.000 A 
ATOM      7  C   UNL     1       1.904   8.306  18.578  0.00  0.00    +0.000 A 
ATOM      8  C   UNL     1       1.783   7.923  19.910  0.00  0.00    +0.000 A 
ATOM      9  C   UNL     1       2.470   6.790  20.360  0.00  0.00    +0.000 A 
ATOM     10  C   UNL     1       3.161   5.950  19.467  0.00  0.00    +0.000 A 
ATOM     11  C   UNL     1       3.597   4.540  19.850  0.00  0.00    +0.000 C 
ATOM     12  C   UNL     1       4.383   3.868  18.667  0.00  0.00    +0.000 C 
ENDROOT
BRANCH  11  13
ATOM     13  N   UNL     1       2.538   3.600  20.326  0.00  0.00    +0.000 NA
ATOM     14  C   UNL     1       2.510   2.263  19.715  0.00  0.00    +0.000 C 
ATOM     15  C   UNL     1       1.563   2.391  18.540  0.00  0.00    +0.000 C 
ATOM     16  C   UNL     1       0.503   3.350  19.060  0.00  0.00    +0.000 C 
ATOM     17  C   UNL     1       1.150   4.068  20.252  0.00  0.00    +0.000 C 
ENDBRANCH  11  13
BRANCH   8  18
ATOM     18  C   UNL     1       0.886   8.618  20.795  0.00  0.00    +0.000 C 
ATOM     19  N   UNL     1       0.135   9.142  21.503  0.00  0.00    +0.000 NA
ENDBRANCH   8  18
BRANCH  12  20
ATOM     20  O   UNL     1       5.203   2.772  19.100  0.00  0.00    +0.000 OA
ATOM     21  H   UNL     1       6.126   3.050  19.087  0.00  0.00    +0.000 HD
ENDBRANCH  12  20
TORSDOF 3
ENDMDL
