MODEL 1
REMARK VINA RESULT:      -7.3      0.000      0.000
REMARK  Name = 
REMARK  7 active torsions:
REMARK  status: ('A' for Active; 'I' for Inactive)
REMARK    1  A    between atoms: C_1  and  C_2
REMARK    2  A    between atoms: C_9  and  N_10
REMARK    3  A    between atoms: N_13  and  C_14
REMARK    4  A    between atoms: C_14  and  C_15
REMARK    5  A    between atoms: C_15  and  C_16
REMARK    6  A    between atoms: C_15  and  C_17
REMARK    7  A    between atoms: C_21  and  C_22
REMARK                            x       y       z     vdW  Elec       q    Type
REMARK                         _______ _______ _______ _____ _____    ______ ____
ROOT
ATOM      1  C   UNL     1       1.717   8.176  19.740  0.00  0.00    +0.000 C 
ATOM      2  C   UNL     1       2.249   6.759  19.806  0.00  0.00    +0.000 A 
ATOM      3  N   UNL     1       1.786   6.002  20.755  0.00  0.00    +0.000 NA
ATOM      4  C   UNL     1       2.236   4.724  20.798  0.00  0.00    +0.000 A 
ATOM      5  N   UNL     1       1.935   3.770  21.652  0.00  0.00    +0.000 NA
ATOM      6  C   UNL     1       2.658   2.710  21.215  0.00  0.00    +0.000 A 
ATOM      7  N   UNL     1       3.402   2.912  20.128  0.00  0.00    +0.000 NA
ATOM      8  N   UNL     1       3.148   4.225  19.853  0.00  0.00    +0.000 N 
ATOM      9  C   UNL     1       3.663   5.048  18.820  0.00  0.00    +0.000 A 
ATOM     10  C   UNL     1       3.252   6.337  18.760  0.00  0.00    +0.000 A 
ATOM     11  C   UNL     1       3.657   7.323  17.707  0.00  0.00    +0.000 C 
ENDROOT
BRANCH   9  12
ATOM     12  N   UNL     1       4.540   4.508  17.871  0.00  0.00    +0.000 N 
ATOM     13  C   UNL     1       4.069   3.890  16.629  0.00  0.00    +0.000 C 
ATOM     14  C   UNL     1       4.956   4.428  15.500  0.00  0.00    +0.000 C 
ATOM     15  N   UNL     1       6.385   4.206  15.740  0.00  0.00    +0.000 N 
ATOM     16  C   UNL     1       6.903   4.399  17.026  0.00  0.00    +0.000 C 
ATOM     17  O   UNL     1       8.091   4.650  17.236  0.00  0.00    +0.000 OA
ATOM     18  C   UNL     1       5.933   4.143  18.200  0.00  0.00    +0.000 C 
BRANCH  15  19
ATOM     19  C   UNL     1       7.284   4.198  14.588  0.00  0.00    +0.000 C 
BRANCH  19  20
ATOM     20  C   UNL     1       6.638   4.620  13.259  0.00  0.00    +0.000 C 
ATOM     21  C   UNL     1       7.620   5.350  12.342  0.00  0.00    +0.000 C 
ATOM     22  C   UNL     1       6.079   3.389  12.539  0.00  0.00    +0.000 C 
ENDBRANCH  19  20
ENDBRANCH  15  19
ENDBRANCH   9  12
TORSDOF 3
ENDMDL
MODEL 2
REMARK VINA RESULT:      -7.1      2.570      6.610
REMARK  Name = 
REMARK  7 active torsions:
REMARK  status: ('A' for Active; 'I' for Inactive)
REMARK    1  A    between atoms: C_1  and  C_2
REMARK    2  A    between atoms: C_9  and  N_10
REMARK    3  A    between atoms: N_13  and  C_14
REMARK    4  A    between atoms: C_14  and  C_15
REMARK    5  A    between atoms: C_15  and  C_16
REMARK    6  A    between atoms: C_15  and  C_17
REMARK    7  A    between atoms: C_21  and  C_22
REMARK                            x       y       z     vdW  Elec       q    Type
REMARK                         _______ _______ _______ _____ _____    ______ ____
ROOT
ATOM      1  C   UNL     1       7.915   7.355  18.234  0.00  0.00    +0.000 C 
ATOM      2  C   UNL     1       7.233   6.386  17.290  0.00  0.00    +0.000 A 
ATOM      3  N   UNL     1       7.725   6.291  16.091  0.00  0.00    +0.000 NA
ATOM      4  C   UNL     1       7.137   5.401  15.254  0.00  0.00    +0.000 A 
ATOM      5  N   UNL     1       7.433   5.124  14.002  0.00  0.00    +0.000 NA
ATOM      6  C   UNL     1       6.540   4.161  13.668  0.00  0.00    +0.000 A 
ATOM      7  N   UNL     1       5.687   3.791  14.623  0.00  0.00    +0.000 NA
ATOM      8  N   UNL     1       6.056   4.601  15.658  0.00  0.00    +0.000 N 
ATOM      9  C   UNL     1       5.511   4.706  16.963  0.00  0.00    +0.000 A 
ATOM     10  C   UNL     1       6.058   5.600  17.820  0.00  0.00    +0.000 A 
ATOM     11  C   UNL     1       5.638   5.800  19.244  0.00  0.00    +0.000 C 
ENDROOT
BRANCH   9  12
ATOM     12  N   UNL     1       4.458   3.865  17.347  0.00  0.00    +0.000 N 
ATOM     13  C   UNL     1       4.665   2.683  18.188  0.00  0.00    +0.000 C 
ATOM     14  C   UNL     1       3.561   2.697  19.253  0.00  0.00    +0.000 C 
ATOM     15  N   UNL     1       2.213   2.758  18.679  0.00  0.00    +0.000 N 
ATOM     16  C   UNL     1       1.972   3.595  17.583  0.00  0.00    +0.000 C 
ATOM     17  O   UNL     1       0.851   4.031  17.311  0.00  0.00    +0.000 OA
ATOM     18  C   UNL     1       3.165   3.841  16.634  0.00  0.00    +0.000 C 
BRANCH  15  19
ATOM     19  C   UNL     1       1.095   2.287  19.493  0.00  0.00    +0.000 C 
BRANCH  19  20
ATOM     20  C   UNL     1       0.882   3.053  20.808  0.00  0.00    +0.000 C 
ATOM     21  C   UNL     1       1.743   2.504  21.946  0.00  0.00    +0.000 C 
ATOM     22  C   UNL     1       1.190   4.539  20.599  0.00  0.00    +0.000 C 
ENDBRANCH  19  20
ENDBRANCH  15  19
ENDBRANCH   9  12
TORSDOF 3
ENDMDL
MODEL 3
REMARK VINA RESULT:      -6.5      1.296      2.815
REMARK  Name = 
REMARK  7 active torsions:
REMARK  status: ('A' for Active; 'I' for Inactive)
REMARK    1  A    between atoms: C_1  and  C_2
REMARK    2  A    between atoms: C_9  and  N_10
REMARK    3  A    between atoms: N_13  and  C_14
REMARK    4  A    between atoms: C_14  and  C_15
REMARK    5  A    between atoms: C_15  and  C_16
REMARK    6  A    between atoms: C_15  and  C_17
REMARK    7  A    between atoms: C_21  and  C_22
REMARK                            x       y       z     vdW  Elec       q    Type
REMARK                         _______ _______ _______ _____ _____    ______ ____
ROOT
ATOM      1  C   UNL     1       2.239   2.909  21.874  0.00  0.00    +0.000 C 
ATOM      2  C   UNL     1       2.537   3.953  20.818  0.00  0.00    +0.000 A 
ATOM      3  N   UNL     1       1.969   5.113  20.962  0.00  0.00    +0.000 NA
ATOM      4  C   UNL     1       2.259   6.059  20.035  0.00  0.00    +0.000 A 
ATOM      5  N   UNL     1       1.815   7.294  19.949  0.00  0.00    +0.000 NA
ATOM      6  C   UNL     1       2.437   7.782  18.848  0.00  0.00    +0.000 A 
ATOM      7  N   UNL     1       3.262   6.946  18.219  0.00  0.00    +0.000 NA
ATOM      8  N   UNL     1       3.145   5.814  18.973  0.00  0.00    +0.000 N 
ATOM      9  C   UNL     1       3.761   4.548  18.806  0.00  0.00    +0.000 A 
ATOM     10  C   UNL     1       3.478   3.571  19.700  0.00  0.00    +0.000 A 
ATOM     11  C   UNL     1       4.080   2.199  19.699  0.00  0.00    +0.000 C 
ENDROOT
BRANCH   9  12
ATOM     12  N   UNL     1       4.670   4.349  17.759  0.00  0.00    +0.000 N 
ATOM     13  C   UNL     1       4.477   3.316  16.738  0.00  0.00    +0.000 C 
ATOM     14  C   UNL     1       4.773   3.969  15.383  0.00  0.00    +0.000 C 
ATOM     15  N   UNL     1       6.101   4.587  15.323  0.00  0.00    +0.000 N 
ATOM     16  C   UNL     1       6.574   5.305  16.428  0.00  0.00    +0.000 C 
ATOM     17  O   UNL     1       7.437   6.180  16.335  0.00  0.00    +0.000 OA
ATOM     18  C   UNL     1       6.058   4.851  17.811  0.00  0.00    +0.000 C 
BRANCH  15  19
ATOM     19  C   UNL     1       6.707   4.793  14.009  0.00  0.00    +0.000 C 
BRANCH  19  20
ATOM     20  C   UNL     1       6.401   3.697  12.976  0.00  0.00    +0.000 C 
ATOM     21  C   UNL     1       4.999   3.834  12.383  0.00  0.00    +0.000 C 
ATOM     22  C   UNL     1       7.442   3.738  11.853  0.00  0.00    +0.000 C 
ENDBRANCH  19  20
ENDBRANCH  15  19
ENDBRANCH   9  12
TORSDOF 3
ENDMDL
MODEL 4
REMARK VINA RESULT:      -6.5      1.115      2.674
REMARK  Name = 
REMARK  7 active torsions:
REMARK  status: ('A' for Active; 'I' for Inactive)
REMARK    1  A    between atoms: C_1  and  C_2
REMARK    2  A    between atoms: C_9  and  N_10
REMARK    3  A    between atoms: N_13  and  C_14
REMARK    4  A    between atoms: C_14  and  C_15
REMARK    5  A    between atoms: C_15  and  C_16
REMARK    6  A    between atoms: C_15  and  C_17
REMARK    7  A    between atoms: C_21  and  C_22
REMARK                            x       y       z     vdW  Elec       q    Type
REMARK                         _______ _______ _______ _____ _____    ______ ____
ROOT
ATOM      1  C   UNL     1       1.530   2.705  21.804  0.00  0.00    +0.000 C 
ATOM      2  C   UNL     1       2.005   3.791  20.861  0.00  0.00    +0.000 A 
ATOM      3  N   UNL     1       1.523   4.983  21.049  0.00  0.00    +0.000 NA
ATOM      4  C   UNL     1       1.971   5.964  20.227  0.00  0.00    +0.000 A 
ATOM      5  N   UNL     1       1.638   7.237  20.203  0.00  0.00    +0.000 NA
ATOM      6  C   UNL     1       2.393   7.745  19.198  0.00  0.00    +0.000 A 
ATOM      7  N   UNL     1       3.200   6.887  18.575  0.00  0.00    +0.000 NA
ATOM      8  N   UNL     1       2.924   5.718  19.225  0.00  0.00    +0.000 N 
ATOM      9  C   UNL     1       3.447   4.419  19.011  0.00  0.00    +0.000 A 
ATOM     10  C   UNL     1       3.007   3.409  19.798  0.00  0.00    +0.000 A 
ATOM     11  C   UNL     1       3.493   1.993  19.738  0.00  0.00    +0.000 C 
ENDROOT
BRANCH   9  12
ATOM     12  N   UNL     1       4.426   4.216  18.029  0.00  0.00    +0.000 N 
ATOM     13  C   UNL     1       4.091   3.844  16.652  0.00  0.00    +0.000 C 
ATOM     14  C   UNL     1       4.944   4.726  15.732  0.00  0.00    +0.000 C 
ATOM     15  N   UNL     1       6.379   4.628  16.015  0.00  0.00    +0.000 N 
ATOM     16  C   UNL     1       6.814   4.585  17.345  0.00  0.00    +0.000 C 
ATOM     17  O   UNL     1       7.950   4.922  17.686  0.00  0.00    +0.000 OA
ATOM     18  C   UNL     1       5.840   3.956  18.365  0.00  0.00    +0.000 C 
BRANCH  15  19
ATOM     19  C   UNL     1       7.317   4.989  14.955  0.00  0.00    +0.000 C 
BRANCH  19  20
ATOM     20  C   UNL     1       6.748   4.905  13.530  0.00  0.00    +0.000 C 
ATOM     21  C   UNL     1       7.783   5.280  12.469  0.00  0.00    +0.000 C 
ATOM     22  C   UNL     1       6.224   3.491  13.263  0.00  0.00    +0.000 C 
ENDBRANCH  19  20
ENDBRANCH  15  19
ENDBRANCH   9  12
TORSDOF 3
ENDMDL
MODEL 5
REMARK VINA RESULT:      -6.4      0.916      1.170
REMARK  Name = 
REMARK  7 active torsions:
REMARK  status: ('A' for Active; 'I' for Inactive)
REMARK    1  A    between atoms: C_1  and  C_2
REMARK    2  A    between atoms: C_9  and  N_10
REMARK    3  A    between atoms: N_13  and  C_14
REMARK    4  A    between atoms: C_14  and  C_15
REMARK    5  A    between atoms: C_15  and  C_16
REMARK    6  A    between atoms: C_15  and  C_17
REMARK    7  A    between atoms: C_21  and  C_22
REMARK                            x       y       z     vdW  Elec       q    Type
REMARK                         _______ _______ _______ _____ _____    ______ ____
ROOT
ATOM      1  C   UNL     1       1.769   8.446  19.263  0.00  0.00    +0.000 C 
ATOM      2  C   UNL     1       2.377   7.061  19.333  0.00  0.00    +0.000 A 
ATOM      3  N   UNL     1       1.982   6.296  20.306  0.00  0.00    +0.000 NA
ATOM      4  C   UNL     1       2.500   5.043  20.353  0.00  0.00    +0.000 A 
ATOM      5  N   UNL     1       2.275   4.089  21.230  0.00  0.00    +0.000 NA
ATOM      6  C   UNL     1       3.040   3.061  20.787  0.00  0.00    +0.000 A 
ATOM      7  N   UNL     1       3.741   3.285  19.676  0.00  0.00    +0.000 NA
ATOM      8  N   UNL     1       3.410   4.578  19.390  0.00  0.00    +0.000 N 
ATOM      9  C   UNL     1       3.849   5.410  18.330  0.00  0.00    +0.000 A 
ATOM     10  C   UNL     1       3.370   6.675  18.264  0.00  0.00    +0.000 A 
ATOM     11  C   UNL     1       3.691   7.664  17.185  0.00  0.00    +0.000 C 
ENDROOT
BRANCH   9  12
ATOM     12  N   UNL     1       4.727   4.902  17.363  0.00  0.00    +0.000 N 
ATOM     13  C   UNL     1       4.402   3.726  16.551  0.00  0.00    +0.000 C 
ATOM     14  C   UNL     1       4.782   4.065  15.105  0.00  0.00    +0.000 C 
ATOM     15  N   UNL     1       6.180   4.487  14.965  0.00  0.00    +0.000 N 
ATOM     16  C   UNL     1       6.740   5.336  15.926  0.00  0.00    +0.000 C 
ATOM     17  O   UNL     1       7.710   6.060  15.692  0.00  0.00    +0.000 OA
ATOM     18  C   UNL     1       6.168   5.224  17.356  0.00  0.00    +0.000 C 
BRANCH  15  19
ATOM     19  C   UNL     1       6.810   4.359  13.652  0.00  0.00    +0.000 C 
BRANCH  19  20
ATOM     20  C   UNL     1       6.236   3.245  12.763  0.00  0.00    +0.000 C 
ATOM     21  C   UNL     1       4.988   3.694  12.003  0.00  0.00    +0.000 C 
ATOM     22  C   UNL     1       7.302   2.771  11.771  0.00  0.00    +0.000 C 
ENDBRANCH  19  20
ENDBRANCH  15  19
ENDBRANCH   9  12
TORSDOF 3
ENDMDL
MODEL 6
REMARK VINA RESULT:      -6.3      3.250      7.063
REMARK  Name = 
REMARK  7 active torsions:
REMARK  status: ('A' for Active; 'I' for Inactive)
REMARK    1  A    between atoms: C_1  and  C_2
REMARK    2  A    between atoms: C_9  and  N_10
REMARK    3  A    between atoms: N_13  and  C_14
REMARK    4  A    between atoms: C_14  and  C_15
REMARK    5  A    between atoms: C_15  and  C_16
REMARK    6  A    between atoms: C_15  and  C_17
REMARK    7  A    between atoms: C_21  and  C_22
REMARK                            x       y       z     vdW  Elec       q    Type
REMARK                         _______ _______ _______ _____ _____    ______ ____
ROOT
ATOM      1  C   UNL     1       2.633   2.188  17.482  0.00  0.00    +0.000 C 
ATOM      2  C   UNL     1       3.396   3.496  17.508  0.00  0.00    +0.000 A 
ATOM      3  N   UNL     1       4.583   3.493  16.977  0.00  0.00    +0.000 NA
ATOM      4  C   UNL     1       5.256   4.671  16.970  0.00  0.00    +0.000 A 
ATOM      5  N   UNL     1       6.460   4.930  16.507  0.00  0.00    +0.000 NA
ATOM      6  C   UNL     1       6.616   6.255  16.748  0.00  0.00    +0.000 A 
ATOM      7  N   UNL     1       5.588   6.873  17.330  0.00  0.00    +0.000 NA
ATOM      8  N   UNL     1       4.700   5.849  17.493  0.00  0.00    +0.000 N 
ATOM      9  C   UNL     1       3.410   5.857  18.080  0.00  0.00    +0.000 A 
ATOM     10  C   UNL     1       2.716   4.694  18.126  0.00  0.00    +0.000 A 
ATOM     11  C   UNL     1       1.326   4.539  18.662  0.00  0.00    +0.000 C 
ENDROOT
BRANCH   9  12
ATOM     12  N   UNL     1       2.869   7.058  18.557  0.00  0.00    +0.000 N 
ATOM     13  C   UNL     1       2.869   8.288  17.762  0.00  0.00    +0.000 C 
ATOM     14  C   UNL     1       1.471   8.904  17.895  0.00  0.00    +0.000 C 
ATOM     15  N   UNL     1       1.074   9.127  19.289  0.00  0.00    +0.000 N 
ATOM     16  C   UNL     1       1.374   8.155  20.251  0.00  0.00    +0.000 C 
ATOM     17  O   UNL     1       0.743   8.042  21.304  0.00  0.00    +0.000 OA
ATOM     18  C   UNL     1       2.637   7.304  19.994  0.00  0.00    +0.000 C 
BRANCH  15  19
ATOM     19  C   UNL     1       0.041  10.124  19.561  0.00  0.00    +0.000 C 
BRANCH  19  20
ATOM     20  C   UNL     1      -0.647  10.701  18.313  0.00  0.00    +0.000 C 
ATOM     21  C   UNL     1      -2.019  10.075  18.066  0.00  0.00    +0.000 C 
ATOM     22  C   UNL     1      -0.791  12.219  18.456  0.00  0.00    +0.000 C 
ENDBRANCH  19  20
ENDBRANCH  15  19
ENDBRANCH   9  12
TORSDOF 3
ENDMDL
MODEL 7
REMARK VINA RESULT:      -6.2      3.032      6.670
REMARK  Name = 
REMARK  7 active torsions:
REMARK  status: ('A' for Active; 'I' for Inactive)
REMARK    1  A    between atoms: C_1  and  C_2
REMARK    2  A    between atoms: C_9  and  N_10
REMARK    3  A    between atoms: N_13  and  C_14
REMARK    4  A    between atoms: C_14  and  C_15
REMARK    5  A    between atoms: C_15  and  C_16
REMARK    6  A    between atoms: C_15  and  C_17
REMARK    7  A    between atoms: C_21  and  C_22
REMARK                            x       y       z     vdW  Elec       q    Type
REMARK                         _______ _______ _______ _____ _____    ______ ____
ROOT
ATOM      1  C   UNL     1       5.840   3.911  15.918  0.00  0.00    +0.000 C 
ATOM      2  C   UNL     1       4.577   4.109  16.730  0.00  0.00    +0.000 A 
ATOM      3  N   UNL     1       3.876   3.047  16.992  0.00  0.00    +0.000 NA
ATOM      4  C   UNL     1       2.761   3.215  17.746  0.00  0.00    +0.000 A 
ATOM      5  N   UNL     1       1.886   2.316  18.139  0.00  0.00    +0.000 NA
ATOM      6  C   UNL     1       0.996   3.032  18.868  0.00  0.00    +0.000 A 
ATOM      7  N   UNL     1       1.242   4.338  18.980  0.00  0.00    +0.000 NA
ATOM      8  N   UNL     1       2.382   4.474  18.241  0.00  0.00    +0.000 N 
ATOM      9  C   UNL     1       3.139   5.637  17.952  0.00  0.00    +0.000 A 
ATOM     10  C   UNL     1       4.246   5.510  17.183  0.00  0.00    +0.000 A 
ATOM     11  C   UNL     1       5.182   6.625  16.828  0.00  0.00    +0.000 C 
ENDROOT
BRANCH   9  12
ATOM     12  N   UNL     1       2.754   6.870  18.495  0.00  0.00    +0.000 N 
ATOM     13  C   UNL     1       2.783   8.112  17.719  0.00  0.00    +0.000 C 
ATOM     14  C   UNL     1       1.463   8.842  17.998  0.00  0.00    +0.000 C 
ATOM     15  N   UNL     1       1.227   9.069  19.427  0.00  0.00    +0.000 N 
ATOM     16  C   UNL     1       1.534   8.056  20.343  0.00  0.00    +0.000 C 
ATOM     17  O   UNL     1       1.002   7.976  21.452  0.00  0.00    +0.000 OA
ATOM     18  C   UNL     1       2.686   7.106  19.951  0.00  0.00    +0.000 C 
BRANCH  15  19
ATOM     19  C   UNL     1       0.316  10.145  19.812  0.00  0.00    +0.000 C 
BRANCH  19  20
ATOM     20  C   UNL     1       0.128  11.245  18.755  0.00  0.00    +0.000 C 
ATOM     21  C   UNL     1      -1.327  11.702  18.646  0.00  0.00    +0.000 C 
ATOM     22  C   UNL     1       1.022  12.443  19.088  0.00  0.00    +0.000 C 
ENDBRANCH  19  20
ENDBRANCH  15  19
ENDBRANCH   9  12
TORSDOF 3
ENDMDL
MODEL 8
REMARK VINA RESULT:      -6.2      3.002      6.615
REMARK  Name = 
REMARK  7 active torsions:
REMARK  status: ('A' for Active; 'I' for Inactive)
REMARK    1  A    between atoms: C_1  and  C_2
REMARK    2  A    between atoms: C_9  and  N_10
REMARK    3  A    between atoms: N_13  and  C_14
REMARK    4  A    between atoms: C_14  and  C_15
REMARK    5  A    between atoms: C_15  and  C_16
REMARK    6  A    between atoms: C_15  and  C_17
REMARK    7  A    between atoms: C_21  and  C_22
REMARK                            x       y       z     vdW  Elec       q    Type
REMARK                         _______ _______ _______ _____ _____    ______ ____
ROOT
ATOM      1  C   UNL     1       7.147   4.804  17.675  0.00  0.00    +0.000 C 
ATOM      2  C   UNL     1       5.822   4.626  18.386  0.00  0.00    +0.000 A 
ATOM      3  N   UNL     1       5.641   3.504  19.017  0.00  0.00    +0.000 NA
ATOM      4  C   UNL     1       4.468   3.354  19.681  0.00  0.00    +0.000 A 
ATOM      5  N   UNL     1       4.041   2.325  20.380  0.00  0.00    +0.000 NA
ATOM      6  C   UNL     1       2.824   2.724  20.825  0.00  0.00    +0.000 A 
ATOM      7  N   UNL     1       2.438   3.948  20.466  0.00  0.00    +0.000 NA
ATOM      8  N   UNL     1       3.494   4.365  19.708  0.00  0.00    +0.000 N 
ATOM      9  C   UNL     1       3.683   5.588  19.015  0.00  0.00    +0.000 A 
ATOM     10  C   UNL     1       4.833   5.764  18.322  0.00  0.00    +0.000 A 
ATOM     11  C   UNL     1       5.212   7.010  17.581  0.00  0.00    +0.000 C 
ENDROOT
BRANCH   9  12
ATOM     12  N   UNL     1       2.708   6.591  19.095  0.00  0.00    +0.000 N 
ATOM     13  C   UNL     1       1.820   6.731  20.252  0.00  0.00    +0.000 C 
ATOM     14  C   UNL     1       1.784   8.222  20.608  0.00  0.00    +0.000 C 
ATOM     15  N   UNL     1       1.387   9.070  19.479  0.00  0.00    +0.000 N 
ATOM     16  C   UNL     1       1.887   8.790  18.202  0.00  0.00    +0.000 C 
ATOM     17  O   UNL     1       1.965   9.642  17.314  0.00  0.00    +0.000 OA
ATOM     18  C   UNL     1       2.215   7.311  17.904  0.00  0.00    +0.000 C 
BRANCH  15  19
ATOM     19  C   UNL     1       0.836  10.391  19.770  0.00  0.00    +0.000 C 
BRANCH  19  20
ATOM     20  C   UNL     1      -0.695  10.441  19.901  0.00  0.00    +0.000 C 
ATOM     21  C   UNL     1      -1.162  11.578  20.809  0.00  0.00    +0.000 C 
ATOM     22  C   UNL     1      -1.330  10.593  18.516  0.00  0.00    +0.000 C 
ENDBRANCH  19  20
ENDBRANCH  15  19
ENDBRANCH   9  12
TORSDOF 3
ENDMDL
MODEL 9
REMARK VINA RESULT:      -6.0      3.199      7.044
REMARK  Name = 
REMARK  7 active torsions:
REMARK  status: ('A' for Active; 'I' for Inactive)
REMARK    1  A    between atoms: C_1  and  C_2
REMARK    2  A    between atoms: C_9  and  N_10
REMARK    3  A    between atoms: N_13  and  C_14
REMARK    4  A    between atoms: C_14  and  C_15
REMARK    5  A    between atoms: C_15  and  C_16
REMARK    6  A    between atoms: C_15  and  C_17
REMARK    7  A    between atoms: C_21  and  C_22
REMARK                            x       y       z     vdW  Elec       q    Type
REMARK                         _______ _______ _______ _____ _____    ______ ____
ROOT
ATOM      1  C   UNL     1       2.737   2.003  17.691  0.00  0.00    +0.000 C 
ATOM      2  C   UNL     1       3.512   3.304  17.670  0.00  0.00    +0.000 A 
ATOM      3  N   UNL     1       4.710   3.266  17.168  0.00  0.00    +0.000 NA
ATOM      4  C   UNL     1       5.394   4.436  17.118  0.00  0.00    +0.000 A 
ATOM      5  N   UNL     1       6.611   4.662  16.672  0.00  0.00    +0.000 NA
ATOM      6  C   UNL     1       6.774   5.996  16.851  0.00  0.00    +0.000 A 
ATOM      7  N   UNL     1       5.738   6.650  17.378  0.00  0.00    +0.000 NA
ATOM      8  N   UNL     1       4.838   5.643  17.571  0.00  0.00    +0.000 N 
ATOM      9  C   UNL     1       3.534   5.690  18.127  0.00  0.00    +0.000 A 
ATOM     10  C   UNL     1       2.829   4.536  18.213  0.00  0.00    +0.000 A 
ATOM     11  C   UNL     1       1.426   4.419  18.725  0.00  0.00    +0.000 C 
ENDROOT
BRANCH   9  12
ATOM     12  N   UNL     1       2.994   6.917  18.532  0.00  0.00    +0.000 N 
ATOM     13  C   UNL     1       3.013   8.104  17.674  0.00  0.00    +0.000 C 
ATOM     14  C   UNL     1       1.617   8.733  17.753  0.00  0.00    +0.000 C 
ATOM     15  N   UNL     1       1.202   9.031  19.128  0.00  0.00    +0.000 N 
ATOM     16  C   UNL     1       1.482   8.110  20.144  0.00  0.00    +0.000 C 
ATOM     17  O   UNL     1       0.835   8.056  21.192  0.00  0.00    +0.000 OA
ATOM     18  C   UNL     1       2.742   7.240  19.951  0.00  0.00    +0.000 C 
BRANCH  15  19
ATOM     19  C   UNL     1       0.171  10.047  19.332  0.00  0.00    +0.000 C 
BRANCH  19  20
ATOM     20  C   UNL     1       0.676  11.499  19.297  0.00  0.00    +0.000 C 
ATOM     21  C   UNL     1      -0.378  12.467  18.759  0.00  0.00    +0.000 C 
ATOM     22  C   UNL     1       1.105  11.932  20.702  0.00  0.00    +0.000 C 
ENDBRANCH  19  20
ENDBRANCH  15  19
ENDBRANCH   9  12
TORSDOF 3
ENDMDL
