MODEL 1
REMARK VINA RESULT:      -7.3      0.000      0.000
REMARK  Name = 
REMARK  9 active torsions:
REMARK  status: ('A' for Active; 'I' for Inactive)
REMARK    1  A    between atoms: C_1  and  C_2
REMARK    2  A    between atoms: C_2  and  O_3
REMARK    3  A    between atoms: O_3  and  C_4
REMARK    4  A    between atoms: C_9  and  C_10
REMARK    5  A    between atoms: C_10  and  N_11
REMARK    6  A    between atoms: N_11  and  C_12
REMARK    7  A    between atoms: C_12  and  C_13
REMARK    8  A    between atoms: C_12  and  C_19
REMARK    9  A    between atoms: C_13  and  C_14
REMARK                            x       y       z     vdW  Elec       q    Type
REMARK                         _______ _______ _______ _____ _____    ______ ____
ROOT
ATOM      1  N   UNL     1       5.155   3.517  17.376  0.00  0.00    +0.000 NA
ATOM      2  H   UNL     1       5.304   2.517  17.249  0.00  0.00    +0.000 HD
ENDROOT
BRANCH   1   3
ATOM      3  C   UNL     1       3.791   3.909  17.031  0.00  0.00    +0.000 C 
BRANCH   3   9
ATOM      4  C   UNL     1       2.753   4.153  19.385  0.00  0.00    +0.000 A 
ATOM      5  C   UNL     1       2.181   4.963  20.383  0.00  0.00    +0.000 A 
ATOM      6  C   UNL     1       2.017   6.301  20.126  0.00  0.00    +0.000 A 
ATOM      7  C   UNL     1       2.374   6.862  18.926  0.00  0.00    +0.000 A 
ATOM      8  C   UNL     1       2.922   6.103  17.915  0.00  0.00    +0.000 A 
ATOM      9  C   UNL     1       3.120   4.722  18.131  0.00  0.00    +0.000 A 
ATOM     10  O   UNL     1       2.139   8.201  18.887  0.00  0.00    +0.000 OA
ATOM     11  C   UNL     1       1.602   8.420  20.209  0.00  0.00    +0.000 C 
ATOM     12  O   UNL     1       1.509   7.215  20.995  0.00  0.00    +0.000 OA
BRANCH   4  13
ATOM     13  O   UNL     1       2.989   2.807  19.563  0.00  0.00    +0.000 OA
BRANCH  13  15
ATOM     14  C   UNL     1       0.651   2.376  19.151  0.00  0.00    +0.000 C 
ATOM     15  C   UNL     1       2.076   1.914  18.913  0.00  0.00    +0.000 C 
ENDBRANCH  13  15
ENDBRANCH   4  13
ENDBRANCH   3   9
ENDBRANCH   1   3
BRANCH   1  16
ATOM     16  C   UNL     1       6.221   4.231  16.624  0.00  0.00    +0.000 C 
BRANCH  16  17
ATOM     17  C   UNL     1       7.020   5.133  17.584  0.00  0.00    +0.000 A 
ATOM     18  N   UNL     1       7.599   4.713  18.697  0.00  0.00    +0.000 NA
ATOM     19  C   UNL     1       8.154   5.779  19.376  0.00  0.00    +0.000 A 
ATOM     20  C   UNL     1       8.065   6.998  18.745  0.00  0.00    +0.000 A 
ATOM     21  S   UNL     1       7.294   6.804  17.227  0.00  0.00    +0.000 S 
ENDBRANCH  16  17
BRANCH  16  22
ATOM     22  C   UNL     1       5.688   5.025  15.396  0.00  0.00    +0.000 C 
BRANCH  22  23
ATOM     23  C   UNL     1       6.076   4.420  14.073  0.00  0.00    +0.000 A 
ATOM     24  C   UNL     1       5.390   3.482  13.325  0.00  0.00    +0.000 A 
ATOM     25  C   UNL     1       5.987   3.261  12.054  0.00  0.00    +0.000 A 
ATOM     26  C   UNL     1       7.147   3.983  11.899  0.00  0.00    +0.000 A 
ATOM     27  S   UNL     1       7.521   4.904  13.287  0.00  0.00    +0.000 S 
ENDBRANCH  22  23
ENDBRANCH  16  22
ENDBRANCH   1  16
TORSDOF 8
ENDMDL
MODEL 2
REMARK VINA RESULT:      -7.3      3.234      7.090
REMARK  Name = 
REMARK  9 active torsions:
REMARK  status: ('A' for Active; 'I' for Inactive)
REMARK    1  A    between atoms: C_1  and  C_2
REMARK    2  A    between atoms: C_2  and  O_3
REMARK    3  A    between atoms: O_3  and  C_4
REMARK    4  A    between atoms: C_9  and  C_10
REMARK    5  A    between atoms: C_10  and  N_11
REMARK    6  A    between atoms: N_11  and  C_12
REMARK    7  A    between atoms: C_12  and  C_13
REMARK    8  A    between atoms: C_12  and  C_19
REMARK    9  A    between atoms: C_13  and  C_14
REMARK                            x       y       z     vdW  Elec       q    Type
REMARK                         _______ _______ _______ _____ _____    ______ ____
ROOT
ATOM      1  N   UNL     1       4.451   5.556  19.644  0.00  0.00    +0.000 NA
ATOM      2  H   UNL     1       4.997   6.308  19.224  0.00  0.00    +0.000 HD
ENDROOT
BRANCH   1   3
ATOM      3  C   UNL     1       4.766   4.261  19.047  0.00  0.00    +0.000 C 
BRANCH   3   9
ATOM      4  C   UNL     1       6.908   4.729  17.682  0.00  0.00    +0.000 A 
ATOM      5  C   UNL     1       7.571   4.787  16.441  0.00  0.00    +0.000 A 
ATOM      6  C   UNL     1       6.862   4.483  15.306  0.00  0.00    +0.000 A 
ATOM      7  C   UNL     1       5.533   4.147  15.343  0.00  0.00    +0.000 A 
ATOM      8  C   UNL     1       4.841   4.095  16.534  0.00  0.00    +0.000 A 
ATOM      9  C   UNL     1       5.525   4.390  17.733  0.00  0.00    +0.000 A 
ATOM     10  O   UNL     1       5.030   3.873  14.111  0.00  0.00    +0.000 OA
ATOM     11  C   UNL     1       6.203   4.064  13.291  0.00  0.00    +0.000 C 
ATOM     12  O   UNL     1       7.366   4.465  14.044  0.00  0.00    +0.000 OA
BRANCH   4  13
ATOM     13  O   UNL     1       7.544   4.983  18.877  0.00  0.00    +0.000 OA
BRANCH  13  15
ATOM     14  C   UNL     1       7.488   7.233  18.007  0.00  0.00    +0.000 C 
ATOM     15  C   UNL     1       8.097   6.296  19.033  0.00  0.00    +0.000 C 
ENDBRANCH  13  15
ENDBRANCH   4  13
ENDBRANCH   3   9
ENDBRANCH   1   3
BRANCH   1  16
ATOM     16  C   UNL     1       3.017   5.946  19.575  0.00  0.00    +0.000 C 
BRANCH  16  17
ATOM     17  C   UNL     1       2.131   4.690  19.667  0.00  0.00    +0.000 A 
ATOM     18  N   UNL     1       1.749   4.125  20.800  0.00  0.00    +0.000 NA
ATOM     19  C   UNL     1       1.043   2.968  20.541  0.00  0.00    +0.000 A 
ATOM     20  C   UNL     1       0.819   2.692  19.211  0.00  0.00    +0.000 A 
ATOM     21  S   UNL     1       1.483   3.943  18.246  0.00  0.00    +0.000 S 
ENDBRANCH  16  17
BRANCH  16  22
ATOM     22  C   UNL     1       2.669   6.809  18.327  0.00  0.00    +0.000 C 
BRANCH  22  23
ATOM     23  C   UNL     1       2.078   8.151  18.669  0.00  0.00    +0.000 A 
ATOM     24  C   UNL     1       1.909   9.248  17.845  0.00  0.00    +0.000 A 
ATOM     25  C   UNL     1       1.174  10.289  18.474  0.00  0.00    +0.000 A 
ATOM     26  C   UNL     1       0.865   9.985  19.779  0.00  0.00    +0.000 A 
ATOM     27  S   UNL     1       1.478   8.460  20.245  0.00  0.00    +0.000 S 
ENDBRANCH  22  23
ENDBRANCH  16  22
ENDBRANCH   1  16
TORSDOF 8
ENDMDL
MODEL 3
REMARK VINA RESULT:      -7.1      3.276      6.953
REMARK  Name = 
REMARK  9 active torsions:
REMARK  status: ('A' for Active; 'I' for Inactive)
REMARK    1  A    between atoms: C_1  and  C_2
REMARK    2  A    between atoms: C_2  and  O_3
REMARK    3  A    between atoms: O_3  and  C_4
REMARK    4  A    between atoms: C_9  and  C_10
REMARK    5  A    between atoms: C_10  and  N_11
REMARK    6  A    between atoms: N_11  and  C_12
REMARK    7  A    between atoms: C_12  and  C_13
REMARK    8  A    between atoms: C_12  and  C_19
REMARK    9  A    between atoms: C_13  and  C_14
REMARK                            x       y       z     vdW  Elec       q    Type
REMARK                         _______ _______ _______ _____ _____    ______ ____
ROOT
ATOM      1  N   UNL     1       4.098   5.701  19.186  0.00  0.00    +0.000 NA
ATOM      2  H   UNL     1       4.699   6.501  19.381  0.00  0.00    +0.000 HD
ENDROOT
BRANCH   1   3
ATOM      3  C   UNL     1       4.864   4.549  18.717  0.00  0.00    +0.000 C 
BRANCH   3   9
ATOM      4  C   UNL     1       6.581   5.796  17.244  0.00  0.00    +0.000 A 
ATOM      5  C   UNL     1       7.226   5.962  16.003  0.00  0.00    +0.000 A 
ATOM      6  C   UNL     1       6.867   5.140  14.965  0.00  0.00    +0.000 A 
ATOM      7  C   UNL     1       5.893   4.183  15.094  0.00  0.00    +0.000 A 
ATOM      8  C   UNL     1       5.225   3.997  16.285  0.00  0.00    +0.000 A 
ATOM      9  C   UNL     1       5.561   4.812  17.389  0.00  0.00    +0.000 A 
ATOM     10  O   UNL     1       5.705   3.473  13.950  0.00  0.00    +0.000 OA
ATOM     11  C   UNL     1       6.684   4.087  13.086  0.00  0.00    +0.000 C 
ATOM     12  O   UNL     1       7.416   5.156  13.721  0.00  0.00    +0.000 OA
BRANCH   4  13
ATOM     13  O   UNL     1       6.897   6.550  18.352  0.00  0.00    +0.000 OA
BRANCH  13  15
ATOM     14  C   UNL     1       7.922   8.682  17.880  0.00  0.00    +0.000 C 
ATOM     15  C   UNL     1       8.149   7.245  18.309  0.00  0.00    +0.000 C 
ENDBRANCH  13  15
ENDBRANCH   4  13
ENDBRANCH   3   9
ENDBRANCH   1   3
BRANCH   1  16
ATOM     16  C   UNL     1       3.024   6.158  18.263  0.00  0.00    +0.000 C 
BRANCH  16  17
ATOM     17  C   UNL     1       2.348   7.418  18.834  0.00  0.00    +0.000 A 
ATOM     18  N   UNL     1       2.023   7.582  20.105  0.00  0.00    +0.000 NA
ATOM     19  C   UNL     1       1.351   8.775  20.275  0.00  0.00    +0.000 A 
ATOM     20  C   UNL     1       1.232   9.557  19.148  0.00  0.00    +0.000 A 
ATOM     21  S   UNL     1       2.021   8.793  17.834  0.00  0.00    +0.000 S 
ENDBRANCH  16  17
BRANCH  16  22
ATOM     22  C   UNL     1       1.986   5.048  17.925  0.00  0.00    +0.000 C 
BRANCH  22  23
ATOM     23  C   UNL     1       1.794   4.046  19.032  0.00  0.00    +0.000 A 
ATOM     24  C   UNL     1       1.343   4.268  20.320  0.00  0.00    +0.000 A 
ATOM     25  C   UNL     1       1.143   3.058  21.040  0.00  0.00    +0.000 A 
ATOM     26  C   UNL     1       1.514   1.956  20.305  0.00  0.00    +0.000 A 
ATOM     27  S   UNL     1       2.118   2.383  18.766  0.00  0.00    +0.000 S 
ENDBRANCH  22  23
ENDBRANCH  16  22
ENDBRANCH   1  16
TORSDOF 8
ENDMDL
MODEL 4
REMARK VINA RESULT:      -7.1      3.269      7.228
REMARK  Name = 
REMARK  9 active torsions:
REMARK  status: ('A' for Active; 'I' for Inactive)
REMARK    1  A    between atoms: C_1  and  C_2
REMARK    2  A    between atoms: C_2  and  O_3
REMARK    3  A    between atoms: O_3  and  C_4
REMARK    4  A    between atoms: C_9  and  C_10
REMARK    5  A    between atoms: C_10  and  N_11
REMARK    6  A    between atoms: N_11  and  C_12
REMARK    7  A    between atoms: C_12  and  C_13
REMARK    8  A    between atoms: C_12  and  C_19
REMARK    9  A    between atoms: C_13  and  C_14
REMARK                            x       y       z     vdW  Elec       q    Type
REMARK                         _______ _______ _______ _____ _____    ______ ____
ROOT
ATOM      1  N   UNL     1       4.995   5.506  19.212  0.00  0.00    +0.000 NA
ATOM      2  H   UNL     1       5.439   6.350  18.852  0.00  0.00    +0.000 HD
ENDROOT
BRANCH   1   3
ATOM      3  C   UNL     1       5.459   4.310  18.513  0.00  0.00    +0.000 C 
BRANCH   3   9
ATOM      4  C   UNL     1       6.887   5.674  16.846  0.00  0.00    +0.000 A 
ATOM      5  C   UNL     1       7.366   5.878  15.538  0.00  0.00    +0.000 A 
ATOM      6  C   UNL     1       6.953   5.021  14.549  0.00  0.00    +0.000 A 
ATOM      7  C   UNL     1       6.079   3.992  14.794  0.00  0.00    +0.000 A 
ATOM      8  C   UNL     1       5.573   3.765  16.056  0.00  0.00    +0.000 A 
ATOM      9  C   UNL     1       5.972   4.615  17.111  0.00  0.00    +0.000 A 
ATOM     10  O   UNL     1       5.814   3.259  13.680  0.00  0.00    +0.000 OA
ATOM     11  C   UNL     1       6.633   3.940  12.706  0.00  0.00    +0.000 C 
ATOM     12  O   UNL     1       7.347   5.068  13.250  0.00  0.00    +0.000 OA
BRANCH   4  13
ATOM     13  O   UNL     1       7.271   6.461  17.910  0.00  0.00    +0.000 OA
BRANCH  13  15
ATOM     14  C   UNL     1       8.513   8.446  18.491  0.00  0.00    +0.000 C 
ATOM     15  C   UNL     1       7.396   7.864  17.646  0.00  0.00    +0.000 C 
ENDBRANCH  13  15
ENDBRANCH   4  13
ENDBRANCH   3   9
ENDBRANCH   1   3
BRANCH   1  16
ATOM     16  C   UNL     1       3.523   5.719  19.179  0.00  0.00    +0.000 C 
BRANCH  16  17
ATOM     17  C   UNL     1       2.801   4.361  19.122  0.00  0.00    +0.000 A 
ATOM     18  N   UNL     1       2.354   3.797  18.012  0.00  0.00    +0.000 NA
ATOM     19  C   UNL     1       1.675   2.633  18.308  0.00  0.00    +0.000 A 
ATOM     20  C   UNL     1       1.671   2.268  19.636  0.00  0.00    +0.000 A 
ATOM     21  S   UNL     1       2.580   3.400  20.545  0.00  0.00    +0.000 S 
ENDBRANCH  16  17
BRANCH  16  22
ATOM     22  C   UNL     1       3.061   6.668  18.034  0.00  0.00    +0.000 C 
BRANCH  22  23
ATOM     23  C   UNL     1       2.318   7.883  18.522  0.00  0.00    +0.000 A 
ATOM     24  C   UNL     1       1.986   9.025  17.817  0.00  0.00    +0.000 A 
ATOM     25  C   UNL     1       1.147   9.897  18.563  0.00  0.00    +0.000 A 
ATOM     26  C   UNL     1       0.923   9.429  19.837  0.00  0.00    +0.000 A 
ATOM     27  S   UNL     1       1.737   7.958  20.133  0.00  0.00    +0.000 S 
ENDBRANCH  22  23
ENDBRANCH  16  22
ENDBRANCH   1  16
TORSDOF 8
ENDMDL
MODEL 5
REMARK VINA RESULT:      -7.1      1.039      1.305
REMARK  Name = 
REMARK  9 active torsions:
REMARK  status: ('A' for Active; 'I' for Inactive)
REMARK    1  A    between atoms: C_1  and  C_2
REMARK    2  A    between atoms: C_2  and  O_3
REMARK    3  A    between atoms: O_3  and  C_4
REMARK    4  A    between atoms: C_9  and  C_10
REMARK    5  A    between atoms: C_10  and  N_11
REMARK    6  A    between atoms: N_11  and  C_12
REMARK    7  A    between atoms: C_12  and  C_13
REMARK    8  A    between atoms: C_12  and  C_19
REMARK    9  A    between atoms: C_13  and  C_14
REMARK                            x       y       z     vdW  Elec       q    Type
REMARK                         _______ _______ _______ _____ _____    ______ ____
ROOT
ATOM      1  N   UNL     1       4.730   3.333  17.462  0.00  0.00    +0.000 NA
ATOM      2  H   UNL     1       4.853   2.323  17.413  0.00  0.00    +0.000 HD
ENDROOT
BRANCH   1   3
ATOM      3  C   UNL     1       3.351   3.725  17.183  0.00  0.00    +0.000 C 
BRANCH   3   9
ATOM      4  C   UNL     1       2.367   4.129  19.537  0.00  0.00    +0.000 A 
ATOM      5  C   UNL     1       1.881   5.017  20.516  0.00  0.00    +0.000 A 
ATOM      6  C   UNL     1       1.835   6.356  20.220  0.00  0.00    +0.000 A 
ATOM      7  C   UNL     1       2.228   6.848  19.001  0.00  0.00    +0.000 A 
ATOM      8  C   UNL     1       2.694   6.013  18.008  0.00  0.00    +0.000 A 
ATOM      9  C   UNL     1       2.769   4.626  18.264  0.00  0.00    +0.000 A 
ATOM     10  O   UNL     1       2.114   8.200  18.924  0.00  0.00    +0.000 OA
ATOM     11  C   UNL     1       1.614   8.506  20.244  0.00  0.00    +0.000 C 
ATOM     12  O   UNL     1       1.422   7.337  21.066  0.00  0.00    +0.000 OA
BRANCH   4  13
ATOM     13  O   UNL     1       2.482   2.774  19.754  0.00  0.00    +0.000 OA
BRANCH  13  15
ATOM     14  C   UNL     1       4.591   1.954  20.591  0.00  0.00    +0.000 C 
ATOM     15  C   UNL     1       3.177   2.380  20.942  0.00  0.00    +0.000 C 
ENDBRANCH  13  15
ENDBRANCH   4  13
ENDBRANCH   3   9
ENDBRANCH   1   3
BRANCH   1  16
ATOM     16  C   UNL     1       5.750   3.956  16.576  0.00  0.00    +0.000 C 
BRANCH  16  17
ATOM     17  C   UNL     1       6.648   4.898  17.398  0.00  0.00    +0.000 A 
ATOM     18  N   UNL     1       7.488   4.499  18.339  0.00  0.00    +0.000 NA
ATOM     19  C   UNL     1       8.075   5.590  18.948  0.00  0.00    +0.000 A 
ATOM     20  C   UNL     1       7.740   6.817  18.422  0.00  0.00    +0.000 A 
ATOM     21  S   UNL     1       6.683   6.601  17.090  0.00  0.00    +0.000 S 
ENDBRANCH  16  17
BRANCH  16  22
ATOM     22  C   UNL     1       5.138   4.675  15.338  0.00  0.00    +0.000 C 
BRANCH  22  23
ATOM     23  C   UNL     1       5.926   4.469  14.072  0.00  0.00    +0.000 A 
ATOM     24  C   UNL     1       7.162   4.989  13.736  0.00  0.00    +0.000 A 
ATOM     25  C   UNL     1       7.664   4.452  12.520  0.00  0.00    +0.000 A 
ATOM     26  C   UNL     1       6.767   3.593  11.929  0.00  0.00    +0.000 A 
ATOM     27  S   UNL     1       5.322   3.454  12.829  0.00  0.00    +0.000 S 
ENDBRANCH  22  23
ENDBRANCH  16  22
ENDBRANCH   1  16
TORSDOF 8
ENDMDL
MODEL 6
REMARK VINA RESULT:      -7.0      1.120      1.335
REMARK  Name = 
REMARK  9 active torsions:
REMARK  status: ('A' for Active; 'I' for Inactive)
REMARK    1  A    between atoms: C_1  and  C_2
REMARK    2  A    between atoms: C_2  and  O_3
REMARK    3  A    between atoms: O_3  and  C_4
REMARK    4  A    between atoms: C_9  and  C_10
REMARK    5  A    between atoms: C_10  and  N_11
REMARK    6  A    between atoms: N_11  and  C_12
REMARK    7  A    between atoms: C_12  and  C_13
REMARK    8  A    between atoms: C_12  and  C_19
REMARK    9  A    between atoms: C_13  and  C_14
REMARK                            x       y       z     vdW  Elec       q    Type
REMARK                         _______ _______ _______ _____ _____    ______ ____
ROOT
ATOM      1  N   UNL     1       4.342   4.304  17.857  0.00  0.00    +0.000 NA
ATOM      2  H   UNL     1       4.247   3.295  17.966  0.00  0.00    +0.000 HD
ENDROOT
BRANCH   1   3
ATOM      3  C   UNL     1       3.096   4.920  17.410  0.00  0.00    +0.000 C 
BRANCH   3   9
ATOM      4  C   UNL     1       2.365   5.611  19.790  0.00  0.00    +0.000 A 
ATOM      5  C   UNL     1       1.903   6.597  20.683  0.00  0.00    +0.000 A 
ATOM      6  C   UNL     1       1.668   7.859  20.198  0.00  0.00    +0.000 A 
ATOM      7  C   UNL     1       1.851   8.179  18.877  0.00  0.00    +0.000 A 
ATOM      8  C   UNL     1       2.286   7.241  17.965  0.00  0.00    +0.000 A 
ATOM      9  C   UNL     1       2.549   5.928  18.414  0.00  0.00    +0.000 A 
ATOM     10  O   UNL     1       1.573   9.484  18.614  0.00  0.00    +0.000 OA
ATOM     11  C   UNL     1       1.206   9.953  19.928  0.00  0.00    +0.000 C 
ATOM     12  O   UNL     1       1.251   8.922  20.935  0.00  0.00    +0.000 OA
BRANCH   4  13
ATOM     13  O   UNL     1       2.660   4.326  20.190  0.00  0.00    +0.000 OA
BRANCH  13  15
ATOM     14  C   UNL     1       1.460   2.594  21.365  0.00  0.00    +0.000 C 
ATOM     15  C   UNL     1       2.163   3.934  21.475  0.00  0.00    +0.000 C 
ENDBRANCH  13  15
ENDBRANCH   4  13
ENDBRANCH   3   9
ENDBRANCH   1   3
BRANCH   1  16
ATOM     16  C   UNL     1       5.515   4.555  16.977  0.00  0.00    +0.000 C 
BRANCH  16  17
ATOM     17  C   UNL     1       6.597   5.323  17.759  0.00  0.00    +0.000 A 
ATOM     18  N   UNL     1       7.237   4.848  18.814  0.00  0.00    +0.000 NA
ATOM     19  C   UNL     1       8.073   5.813  19.339  0.00  0.00    +0.000 A 
ATOM     20  C   UNL     1       8.128   6.997  18.639  0.00  0.00    +0.000 A 
ATOM     21  S   UNL     1       7.129   6.891  17.251  0.00  0.00    +0.000 S 
ENDBRANCH  16  17
BRANCH  16  22
ATOM     22  C   UNL     1       5.148   5.270  15.644  0.00  0.00    +0.000 C 
BRANCH  22  23
ATOM     23  C   UNL     1       5.675   4.570  14.420  0.00  0.00    +0.000 A 
ATOM     24  C   UNL     1       5.014   3.688  13.586  0.00  0.00    +0.000 A 
ATOM     25  C   UNL     1       5.783   3.346  12.440  0.00  0.00    +0.000 A 
ATOM     26  C   UNL     1       7.032   3.921  12.470  0.00  0.00    +0.000 A 
ATOM     27  S   UNL     1       7.279   4.849  13.882  0.00  0.00    +0.000 S 
ENDBRANCH  22  23
ENDBRANCH  16  22
ENDBRANCH   1  16
TORSDOF 8
ENDMDL
MODEL 7
REMARK VINA RESULT:      -7.0      1.740      3.222
REMARK  Name = 
REMARK  9 active torsions:
REMARK  status: ('A' for Active; 'I' for Inactive)
REMARK    1  A    between atoms: C_1  and  C_2
REMARK    2  A    between atoms: C_2  and  O_3
REMARK    3  A    between atoms: O_3  and  C_4
REMARK    4  A    between atoms: C_9  and  C_10
REMARK    5  A    between atoms: C_10  and  N_11
REMARK    6  A    between atoms: N_11  and  C_12
REMARK    7  A    between atoms: C_12  and  C_13
REMARK    8  A    between atoms: C_12  and  C_19
REMARK    9  A    between atoms: C_13  and  C_14
REMARK                            x       y       z     vdW  Elec       q    Type
REMARK                         _______ _______ _______ _____ _____    ______ ____
ROOT
ATOM      1  N   UNL     1       5.581   3.427  16.163  0.00  0.00    +0.000 NA
ATOM      2  H   UNL     1       5.584   2.559  15.628  0.00  0.00    +0.000 HD
ENDROOT
BRANCH   1   3
ATOM      3  C   UNL     1       4.244   4.008  16.244  0.00  0.00    +0.000 C 
BRANCH   3   9
ATOM      4  C   UNL     1       3.467   5.427  18.260  0.00  0.00    +0.000 A 
ATOM      5  C   UNL     1       2.974   5.501  19.576  0.00  0.00    +0.000 A 
ATOM      6  C   UNL     1       2.759   4.332  20.261  0.00  0.00    +0.000 A 
ATOM      7  C   UNL     1       3.027   3.104  19.712  0.00  0.00    +0.000 A 
ATOM      8  C   UNL     1       3.526   2.985  18.432  0.00  0.00    +0.000 A 
ATOM      9  C   UNL     1       3.758   4.158  17.681  0.00  0.00    +0.000 A 
ATOM     10  O   UNL     1       2.730   2.080  20.555  0.00  0.00    +0.000 OA
ATOM     11  C   UNL     1       2.231   2.806  21.699  0.00  0.00    +0.000 C 
ATOM     12  O   UNL     1       2.260   4.237  21.522  0.00  0.00    +0.000 OA
BRANCH   4  13
ATOM     13  O   UNL     1       3.682   6.543  17.482  0.00  0.00    +0.000 OA
BRANCH  13  15
ATOM     14  C   UNL     1       2.210   8.454  17.533  0.00  0.00    +0.000 C 
ATOM     15  C   UNL     1       3.453   7.808  18.114  0.00  0.00    +0.000 C 
ENDBRANCH  13  15
ENDBRANCH   4  13
ENDBRANCH   3   9
ENDBRANCH   1   3
BRANCH   1  16
ATOM     16  C   UNL     1       6.618   4.320  15.581  0.00  0.00    +0.000 C 
BRANCH  16  17
ATOM     17  C   UNL     1       7.018   5.393  16.610  0.00  0.00    +0.000 A 
ATOM     18  N   UNL     1       6.959   6.697  16.393  0.00  0.00    +0.000 NA
ATOM     19  C   UNL     1       7.472   7.384  17.474  0.00  0.00    +0.000 A 
ATOM     20  C   UNL     1       7.852   6.608  18.546  0.00  0.00    +0.000 A 
ATOM     21  S   UNL     1       7.521   4.961  18.209  0.00  0.00    +0.000 S 
ENDBRANCH  16  17
BRANCH  16  22
ATOM     22  C   UNL     1       6.199   4.952  14.221  0.00  0.00    +0.000 C 
BRANCH  22  23
ATOM     23  C   UNL     1       6.222   3.978  13.073  0.00  0.00    +0.000 A 
ATOM     24  C   UNL     1       7.314   3.515  12.362  0.00  0.00    +0.000 A 
ATOM     25  C   UNL     1       6.967   2.485  11.447  0.00  0.00    +0.000 A 
ATOM     26  C   UNL     1       5.614   2.242  11.435  0.00  0.00    +0.000 A 
ATOM     27  S   UNL     1       4.767   3.266  12.508  0.00  0.00    +0.000 S 
ENDBRANCH  22  23
ENDBRANCH  16  22
ENDBRANCH   1  16
TORSDOF 8
ENDMDL
MODEL 8
REMARK VINA RESULT:      -6.8      2.673      4.705
REMARK  Name = 
REMARK  9 active torsions:
REMARK  status: ('A' for Active; 'I' for Inactive)
REMARK    1  A    between atoms: C_1  and  C_2
REMARK    2  A    between atoms: C_2  and  O_3
REMARK    3  A    between atoms: O_3  and  C_4
REMARK    4  A    between atoms: C_9  and  C_10
REMARK    5  A    between atoms: C_10  and  N_11
REMARK    6  A    between atoms: N_11  and  C_12
REMARK    7  A    between atoms: C_12  and  C_13
REMARK    8  A    between atoms: C_12  and  C_19
REMARK    9  A    between atoms: C_13  and  C_14
REMARK                            x       y       z     vdW  Elec       q    Type
REMARK                         _______ _______ _______ _____ _____    ______ ____
ROOT
ATOM      1  N   UNL     1       3.803   6.233  18.096  0.00  0.00    +0.000 NA
ATOM      2  H   UNL     1       3.322   5.938  18.945  0.00  0.00    +0.000 HD
ENDROOT
BRANCH   1   3
ATOM      3  C   UNL     1       3.136   7.367  17.462  0.00  0.00    +0.000 C 
BRANCH   3   9
ATOM      4  C   UNL     1       1.970   7.681  19.746  0.00  0.00    +0.000 A 
ATOM      5  C   UNL     1       1.205   8.475  20.622  0.00  0.00    +0.000 A 
ATOM      6  C   UNL     1       0.790   9.710  20.192  0.00  0.00    +0.000 A 
ATOM      7  C   UNL     1       1.080  10.181  18.937  0.00  0.00    +0.000 A 
ATOM      8  C   UNL     1       1.812   9.431  18.041  0.00  0.00    +0.000 A 
ATOM      9  C   UNL     1       2.270   8.155  18.437  0.00  0.00    +0.000 A 
ATOM     10  O   UNL     1       0.586  11.429  18.722  0.00  0.00    +0.000 OA
ATOM     11  C   UNL     1      -0.041  11.696  19.995  0.00  0.00    +0.000 C 
ATOM     12  O   UNL     1       0.074  10.601  20.927  0.00  0.00    +0.000 OA
BRANCH   4  13
ATOM     13  O   UNL     1       2.460   6.444  20.100  0.00  0.00    +0.000 OA
BRANCH  13  15
ATOM     14  C   UNL     1       2.317   4.382  21.345  0.00  0.00    +0.000 C 
ATOM     15  C   UNL     1       1.566   5.595  20.830  0.00  0.00    +0.000 C 
ENDBRANCH  13  15
ENDBRANCH   4  13
ENDBRANCH   3   9
ENDBRANCH   1   3
BRANCH   1  16
ATOM     16  C   UNL     1       3.962   5.035  17.228  0.00  0.00    +0.000 C 
BRANCH  16  17
ATOM     17  C   UNL     1       3.024   3.913  17.712  0.00  0.00    +0.000 A 
ATOM     18  N   UNL     1       1.705   3.954  17.633  0.00  0.00    +0.000 NA
ATOM     19  C   UNL     1       1.156   2.840  18.234  0.00  0.00    +0.000 A 
ATOM     20  C   UNL     1       2.058   1.913  18.705  0.00  0.00    +0.000 A 
ATOM     21  S   UNL     1       3.652   2.431  18.349  0.00  0.00    +0.000 S 
ENDBRANCH  16  17
BRANCH  16  22
ATOM     22  C   UNL     1       5.435   4.546  17.112  0.00  0.00    +0.000 C 
BRANCH  22  23
ATOM     23  C   UNL     1       6.449   5.606  17.454  0.00  0.00    +0.000 A 
ATOM     24  C   UNL     1       6.752   6.760  16.755  0.00  0.00    +0.000 A 
ATOM     25  C   UNL     1       7.656   7.599  17.462  0.00  0.00    +0.000 A 
ATOM     26  C   UNL     1       8.070   7.029  18.643  0.00  0.00    +0.000 A 
ATOM     27  S   UNL     1       7.386   5.483  18.885  0.00  0.00    +0.000 S 
ENDBRANCH  22  23
ENDBRANCH  16  22
ENDBRANCH   1  16
TORSDOF 8
ENDMDL
MODEL 9
REMARK VINA RESULT:      -6.8      1.092      1.294
REMARK  Name = 
REMARK  9 active torsions:
REMARK  status: ('A' for Active; 'I' for Inactive)
REMARK    1  A    between atoms: C_1  and  C_2
REMARK    2  A    between atoms: C_2  and  O_3
REMARK    3  A    between atoms: O_3  and  C_4
REMARK    4  A    between atoms: C_9  and  C_10
REMARK    5  A    between atoms: C_10  and  N_11
REMARK    6  A    between atoms: N_11  and  C_12
REMARK    7  A    between atoms: C_12  and  C_13
REMARK    8  A    between atoms: C_12  and  C_19
REMARK    9  A    between atoms: C_13  and  C_14
REMARK                            x       y       z     vdW  Elec       q    Type
REMARK                         _______ _______ _______ _____ _____    ______ ____
ROOT
ATOM      1  N   UNL     1       5.573   3.847  17.049  0.00  0.00    +0.000 NA
ATOM      2  H   UNL     1       5.879   2.881  16.937  0.00  0.00    +0.000 HD
ENDROOT
BRANCH   1   3
ATOM      3  C   UNL     1       4.140   3.992  16.807  0.00  0.00    +0.000 C 
BRANCH   3   9
ATOM      4  C   UNL     1       3.128   4.113  19.182  0.00  0.00    +0.000 A 
ATOM      5  C   UNL     1       2.513   4.859  20.205  0.00  0.00    +0.000 A 
ATOM      6  C   UNL     1       2.245   6.186  19.977  0.00  0.00    +0.000 A 
ATOM      7  C   UNL     1       2.539   6.794  18.784  0.00  0.00    +0.000 A 
ATOM      8  C   UNL     1       3.125   6.098  17.749  0.00  0.00    +0.000 A 
ATOM      9  C   UNL     1       3.429   4.731  17.934  0.00  0.00    +0.000 A 
ATOM     10  O   UNL     1       2.203   8.112  18.775  0.00  0.00    +0.000 OA
ATOM     11  C   UNL     1       1.674   8.265  20.109  0.00  0.00    +0.000 C 
ATOM     12  O   UNL     1       1.686   7.042  20.872  0.00  0.00    +0.000 OA
BRANCH   4  13
ATOM     13  O   UNL     1       3.466   2.786  19.329  0.00  0.00    +0.000 OA
BRANCH  13  15
ATOM     14  C   UNL     1       1.163   2.171  18.954  0.00  0.00    +0.000 C 
ATOM     15  C   UNL     1       2.616   1.840  18.670  0.00  0.00    +0.000 C 
ENDBRANCH  13  15
ENDBRANCH   4  13
ENDBRANCH   3   9
ENDBRANCH   1   3
BRANCH   1  16
ATOM     16  C   UNL     1       6.443   4.698  16.194  0.00  0.00    +0.000 C 
BRANCH  16  17
ATOM     17  C   UNL     1       7.035   5.845  17.033  0.00  0.00    +0.000 A 
ATOM     18  N   UNL     1       7.040   7.116  16.666  0.00  0.00    +0.000 NA
ATOM     19  C   UNL     1       7.725   7.877  17.591  0.00  0.00    +0.000 A 
ATOM     20  C   UNL     1       8.175   7.200  18.702  0.00  0.00    +0.000 A 
ATOM     21  S   UNL     1       7.694   5.559  18.608  0.00  0.00    +0.000 S 
ENDBRANCH  16  17
BRANCH  16  22
ATOM     22  C   UNL     1       5.727   5.227  14.917  0.00  0.00    +0.000 C 
BRANCH  22  23
ATOM     23  C   UNL     1       6.088   4.469  13.667  0.00  0.00    +0.000 A 
ATOM     24  C   UNL     1       7.285   4.478  12.974  0.00  0.00    +0.000 A 
ATOM     25  C   UNL     1       7.312   3.518  11.927  0.00  0.00    +0.000 A 
ATOM     26  C   UNL     1       6.112   2.856  11.806  0.00  0.00    +0.000 A 
ATOM     27  S   UNL     1       4.958   3.406  12.938  0.00  0.00    +0.000 S 
ENDBRANCH  22  23
ENDBRANCH  16  22
ENDBRANCH   1  16
TORSDOF 8
ENDMDL
