MODEL 1
REMARK VINA RESULT:      -7.5      0.000      0.000
REMARK  Name = 
REMARK  6 active torsions:
REMARK  status: ('A' for Active; 'I' for Inactive)
REMARK    1  A    between atoms: C_1  and  C_2
REMARK    2  A    between atoms: C_10  and  N_11
REMARK    3  A    between atoms: C_15  and  N_16
REMARK    4  A    between atoms: C_18  and  O_19
REMARK    5  A    between atoms: O_19  and  C_20
REMARK    6  A    between atoms: C_23  and  C_24
REMARK                            x       y       z     vdW  Elec       q    Type
REMARK                         _______ _______ _______ _____ _____    ______ ____
ROOT
ATOM      1  C   UNL     1       6.202   7.241  17.408  0.00  0.00    +0.000 C 
ATOM      2  C   UNL     1       5.829   5.716  16.991  0.00  0.00    +0.000 C 
ATOM      3  C   UNL     1       6.796   6.000  15.695  0.00  0.00    +0.000 C 
ATOM      4  C   UNL     1       7.417   4.872  14.842  0.00  0.00    +0.000 C 
ATOM      5  C   UNL     1       6.392   4.001  14.273  0.00  0.00    +0.000 C 
ATOM      6  F   UNL     1       6.600   3.316  13.131  0.00  0.00    +0.000 F 
ATOM      7  C   UNL     1       5.251   3.870  14.929  0.00  0.00    +0.000 C 
ATOM      8  C   UNL     1       5.059   4.465  16.309  0.00  0.00    +0.000 C 
ATOM      9  C   UNL     1       3.561   4.373  16.517  0.00  0.00    +0.000 C 
ATOM     10  C   UNL     1       3.308   4.953  17.859  0.00  0.00    +0.000 C 
ATOM     11  C   UNL     1       4.340   6.109  17.805  0.00  0.00    +0.000 C 
ENDROOT
BRANCH  10  12
ATOM     12  N   UNL     1       3.326   4.160  19.101  0.00  0.00    +0.000 NA
ATOM     13  C   UNL     1       4.168   2.980  19.207  0.00  0.00    +0.000 C 
ATOM     14  C   UNL     1       3.545   1.701  18.648  0.00  0.00    +0.000 C 
ATOM     15  C   UNL     1       2.088   1.480  19.048  0.00  0.00    +0.000 C 
ATOM     16  C   UNL     1       1.240   2.758  19.036  0.00  0.00    +0.000 C 
ATOM     17  C   UNL     1       1.999   3.925  19.692  0.00  0.00    +0.000 C 
BRANCH  16  18
ATOM     18  N   UNL     1      -0.057   2.507  19.673  0.00  0.00    +0.000 NA
ATOM     19  H   UNL     1      -0.773   2.376  18.959  0.00  0.00    +0.000 HD
ATOM     20  H   UNL     1      -0.334   3.339  20.195  0.00  0.00    +0.000 HD
ENDBRANCH  16  18
ENDBRANCH  10  12
BRANCH  11  21
ATOM     21  O   UNL     1       3.653   7.304  17.338  0.00  0.00    +0.000 OA
BRANCH  21  22
ATOM     22  C   UNL     1       2.849   7.945  18.261  0.00  0.00    +0.000 A 
ATOM     23  C   UNL     1       2.575   7.490  19.556  0.00  0.00    +0.000 A 
ATOM     24  C   UNL     1       1.621   8.139  20.350  0.00  0.00    +0.000 A 
ATOM     25  C   UNL     1       0.951   9.266  19.871  0.00  0.00    +0.000 A 
ATOM     26  C   UNL     1       1.264   9.758  18.595  0.00  0.00    +0.000 A 
ATOM     27  C   UNL     1       2.220   9.101  17.802  0.00  0.00    +0.000 A 
BRANCH  25  28
ATOM     28  C   UNL     1      -0.059   9.905  20.670  0.00  0.00    +0.000 C 
ATOM     29  N   UNL     1      -0.861  10.426  21.315  0.00  0.00    +0.000 NA
ENDBRANCH  25  28
ENDBRANCH  21  22
ENDBRANCH  11  21
TORSDOF 5
ENDMDL
MODEL 2
REMARK VINA RESULT:      -7.5      3.168      6.665
REMARK  Name = 
REMARK  6 active torsions:
REMARK  status: ('A' for Active; 'I' for Inactive)
REMARK    1  A    between atoms: C_1  and  C_2
REMARK    2  A    between atoms: C_10  and  N_11
REMARK    3  A    between atoms: C_15  and  N_16
REMARK    4  A    between atoms: C_18  and  O_19
REMARK    5  A    between atoms: O_19  and  C_20
REMARK    6  A    between atoms: C_23  and  C_24
REMARK                            x       y       z     vdW  Elec       q    Type
REMARK                         _______ _______ _______ _____ _____    ______ ____
ROOT
ATOM      1  C   UNL     1       2.316   8.582  17.468  0.00  0.00    +0.000 C 
ATOM      2  C   UNL     1       1.590   8.084  18.834  0.00  0.00    +0.000 C 
ATOM      3  C   UNL     1       1.547   9.682  19.208  0.00  0.00    +0.000 C 
ATOM      4  C   UNL     1       0.593  10.275  20.268  0.00  0.00    +0.000 C 
ATOM      5  C   UNL     1       0.795   9.660  21.578  0.00  0.00    +0.000 C 
ATOM      6  F   UNL     1       0.505  10.316  22.720  0.00  0.00    +0.000 F 
ATOM      7  C   UNL     1       1.244   8.417  21.620  0.00  0.00    +0.000 C 
ATOM      8  C   UNL     1       1.392   7.586  20.362  0.00  0.00    +0.000 C 
ATOM      9  C   UNL     1       2.226   6.408  20.824  0.00  0.00    +0.000 C 
ATOM     10  C   UNL     1       2.412   5.556  19.624  0.00  0.00    +0.000 C 
ATOM     11  C   UNL     1       2.589   6.681  18.571  0.00  0.00    +0.000 C 
ENDROOT
BRANCH  10  12
ATOM     12  N   UNL     1       1.478   4.484  19.238  0.00  0.00    +0.000 NA
ATOM     13  C   UNL     1       0.653   3.832  20.242  0.00  0.00    +0.000 C 
ATOM     14  C   UNL     1       1.336   2.683  20.980  0.00  0.00    +0.000 C 
ATOM     15  C   UNL     1       2.115   1.726  20.080  0.00  0.00    +0.000 C 
ATOM     16  C   UNL     1       2.894   2.425  18.958  0.00  0.00    +0.000 C 
ATOM     17  C   UNL     1       2.031   3.508  18.285  0.00  0.00    +0.000 C 
BRANCH  16  18
ATOM     18  N   UNL     1       3.393   1.434  17.998  0.00  0.00    +0.000 NA
ATOM     19  H   UNL     1       2.724   1.326  17.236  0.00  0.00    +0.000 HD
ATOM     20  H   UNL     1       3.439   0.524  18.458  0.00  0.00    +0.000 HD
ENDBRANCH  16  18
ENDBRANCH  10  12
BRANCH  11  21
ATOM     21  O   UNL     1       4.014   6.931  18.415  0.00  0.00    +0.000 OA
BRANCH  21  22
ATOM     22  C   UNL     1       4.624   6.331  17.331  0.00  0.00    +0.000 A 
ATOM     23  C   UNL     1       4.868   6.941  16.095  0.00  0.00    +0.000 A 
ATOM     24  C   UNL     1       5.350   6.191  15.015  0.00  0.00    +0.000 A 
ATOM     25  C   UNL     1       5.621   4.830  15.165  0.00  0.00    +0.000 A 
ATOM     26  C   UNL     1       5.431   4.227  16.418  0.00  0.00    +0.000 A 
ATOM     27  C   UNL     1       4.944   4.985  17.497  0.00  0.00    +0.000 A 
BRANCH  25  28
ATOM     28  C   UNL     1       6.074   4.051  14.045  0.00  0.00    +0.000 C 
ATOM     29  N   UNL     1       6.443   3.436  13.141  0.00  0.00    +0.000 NA
ENDBRANCH  25  28
ENDBRANCH  21  22
ENDBRANCH  11  21
TORSDOF 5
ENDMDL
MODEL 3
REMARK VINA RESULT:      -7.4      2.522      4.541
REMARK  Name = 
REMARK  6 active torsions:
REMARK  status: ('A' for Active; 'I' for Inactive)
REMARK    1  A    between atoms: C_1  and  C_2
REMARK    2  A    between atoms: C_10  and  N_11
REMARK    3  A    between atoms: C_15  and  N_16
REMARK    4  A    between atoms: C_18  and  O_19
REMARK    5  A    between atoms: O_19  and  C_20
REMARK    6  A    between atoms: C_23  and  C_24
REMARK                            x       y       z     vdW  Elec       q    Type
REMARK                         _______ _______ _______ _____ _____    ______ ____
ROOT
ATOM      1  C   UNL     1       1.332   5.369  17.673  0.00  0.00    +0.000 C 
ATOM      2  C   UNL     1       2.729   4.557  17.838  0.00  0.00    +0.000 C 
ATOM      3  C   UNL     1       1.764   3.236  17.969  0.00  0.00    +0.000 C 
ATOM      4  C   UNL     1       2.272   1.794  17.746  0.00  0.00    +0.000 C 
ATOM      5  C   UNL     1       3.367   1.464  18.655  0.00  0.00    +0.000 C 
ATOM      6  F   UNL     1       3.618   0.193  19.029  0.00  0.00    +0.000 F 
ATOM      7  C   UNL     1       4.141   2.447  19.083  0.00  0.00    +0.000 C 
ATOM      8  C   UNL     1       4.012   3.852  18.532  0.00  0.00    +0.000 C 
ATOM      9  C   UNL     1       4.817   4.682  19.511  0.00  0.00    +0.000 C 
ATOM     10  C   UNL     1       4.721   6.080  19.024  0.00  0.00    +0.000 C 
ATOM     11  C   UNL     1       3.241   6.058  18.560  0.00  0.00    +0.000 C 
ENDROOT
BRANCH  10  12
ATOM     12  N   UNL     1       5.667   6.668  18.060  0.00  0.00    +0.000 NA
ATOM     13  C   UNL     1       5.229   7.011  16.717  0.00  0.00    +0.000 C 
ATOM     14  C   UNL     1       5.260   5.853  15.721  0.00  0.00    +0.000 C 
ATOM     15  C   UNL     1       6.528   5.004  15.777  0.00  0.00    +0.000 C 
ATOM     16  C   UNL     1       7.037   4.743  17.200  0.00  0.00    +0.000 C 
ATOM     17  C   UNL     1       6.994   6.031  18.042  0.00  0.00    +0.000 C 
BRANCH  16  18
ATOM     18  N   UNL     1       8.380   4.152  17.154  0.00  0.00    +0.000 NA
ATOM     19  H   UNL     1       8.790   4.300  16.233  0.00  0.00    +0.000 HD
ATOM     20  H   UNL     1       8.299   3.141  17.263  0.00  0.00    +0.000 HD
ENDBRANCH  16  18
ENDBRANCH  10  12
BRANCH  11  21
ATOM     21  O   UNL     1       2.419   6.554  19.653  0.00  0.00    +0.000 OA
BRANCH  21  22
ATOM     22  C   UNL     1       1.992   7.864  19.550  0.00  0.00    +0.000 A 
ATOM     23  C   UNL     1       1.295   8.571  20.537  0.00  0.00    +0.000 A 
ATOM     24  C   UNL     1       0.773   9.843  20.264  0.00  0.00    +0.000 A 
ATOM     25  C   UNL     1       0.968  10.433  19.015  0.00  0.00    +0.000 A 
ATOM     26  C   UNL     1       1.715   9.751  18.043  0.00  0.00    +0.000 A 
ATOM     27  C   UNL     1       2.232   8.474  18.321  0.00  0.00    +0.000 A 
BRANCH  25  28
ATOM     28  C   UNL     1       0.396  11.719  18.722  0.00  0.00    +0.000 C 
ATOM     29  N   UNL     1      -0.072  12.747  18.482  0.00  0.00    +0.000 NA
ENDBRANCH  25  28
ENDBRANCH  21  22
ENDBRANCH  11  21
TORSDOF 5
ENDMDL
MODEL 4
REMARK VINA RESULT:      -7.3      1.413      2.111
REMARK  Name = 
REMARK  6 active torsions:
REMARK  status: ('A' for Active; 'I' for Inactive)
REMARK    1  A    between atoms: C_1  and  C_2
REMARK    2  A    between atoms: C_10  and  N_11
REMARK    3  A    between atoms: C_15  and  N_16
REMARK    4  A    between atoms: C_18  and  O_19
REMARK    5  A    between atoms: O_19  and  C_20
REMARK    6  A    between atoms: C_23  and  C_24
REMARK                            x       y       z     vdW  Elec       q    Type
REMARK                         _______ _______ _______ _____ _____    ______ ____
ROOT
ATOM      1  C   UNL     1       4.877   6.167  18.972  0.00  0.00    +0.000 C 
ATOM      2  C   UNL     1       4.814   4.864  18.004  0.00  0.00    +0.000 C 
ATOM      3  C   UNL     1       6.114   5.542  17.267  0.00  0.00    +0.000 C 
ATOM      4  C   UNL     1       7.088   4.744  16.372  0.00  0.00    +0.000 C 
ATOM      5  C   UNL     1       6.395   4.116  15.250  0.00  0.00    +0.000 C 
ATOM      6  F   UNL     1       7.028   3.835  14.094  0.00  0.00    +0.000 F 
ATOM      7  C   UNL     1       5.121   3.792  15.406  0.00  0.00    +0.000 C 
ATOM      8  C   UNL     1       4.434   3.911  16.751  0.00  0.00    +0.000 C 
ATOM      9  C   UNL     1       2.967   3.772  16.401  0.00  0.00    +0.000 C 
ATOM     10  C   UNL     1       2.236   3.889  17.687  0.00  0.00    +0.000 C 
ATOM     11  C   UNL     1       3.110   4.989  18.345  0.00  0.00    +0.000 C 
ENDROOT
BRANCH  10  12
ATOM     12  N   UNL     1       1.931   2.737  18.552  0.00  0.00    +0.000 NA
ATOM     13  C   UNL     1       1.017   2.881  19.673  0.00  0.00    +0.000 C 
ATOM     14  C   UNL     1       1.660   3.406  20.956  0.00  0.00    +0.000 C 
ATOM     15  C   UNL     1       2.997   2.754  21.306  0.00  0.00    +0.000 C 
ATOM     16  C   UNL     1       3.904   2.510  20.094  0.00  0.00    +0.000 C 
ATOM     17  C   UNL     1       3.102   1.923  18.919  0.00  0.00    +0.000 C 
BRANCH  16  18
ATOM     18  N   UNL     1       5.036   1.658  20.476  0.00  0.00    +0.000 NA
ATOM     19  H   UNL     1       5.232   1.771  21.471  0.00  0.00    +0.000 HD
ATOM     20  H   UNL     1       5.872   1.983  19.990  0.00  0.00    +0.000 HD
ENDBRANCH  16  18
ENDBRANCH  10  12
BRANCH  11  21
ATOM     21  O   UNL     1       2.495   6.278  18.066  0.00  0.00    +0.000 OA
BRANCH  21  22
ATOM     22  C   UNL     1       2.103   7.018  19.164  0.00  0.00    +0.000 A 
ATOM     23  C   UNL     1       1.815   6.500  20.432  0.00  0.00    +0.000 A 
ATOM     24  C   UNL     1       1.274   7.322  21.430  0.00  0.00    +0.000 A 
ATOM     25  C   UNL     1       1.044   8.676  21.181  0.00  0.00    +0.000 A 
ATOM     26  C   UNL     1       1.385   9.211  19.930  0.00  0.00    +0.000 A 
ATOM     27  C   UNL     1       1.923   8.380  18.932  0.00  0.00    +0.000 A 
BRANCH  25  28
ATOM     28  C   UNL     1       0.450   9.509  22.191  0.00  0.00    +0.000 C 
ATOM     29  N   UNL     1      -0.017  10.183  23.003  0.00  0.00    +0.000 NA
ENDBRANCH  25  28
ENDBRANCH  21  22
ENDBRANCH  11  21
TORSDOF 5
ENDMDL
MODEL 5
REMARK VINA RESULT:      -7.2      2.584      4.675
REMARK  Name = 
REMARK  6 active torsions:
REMARK  status: ('A' for Active; 'I' for Inactive)
REMARK    1  A    between atoms: C_1  and  C_2
REMARK    2  A    between atoms: C_10  and  N_11
REMARK    3  A    between atoms: C_15  and  N_16
REMARK    4  A    between atoms: C_18  and  O_19
REMARK    5  A    between atoms: O_19  and  C_20
REMARK    6  A    between atoms: C_23  and  C_24
REMARK                            x       y       z     vdW  Elec       q    Type
REMARK                         _______ _______ _______ _____ _____    ______ ____
ROOT
ATOM      1  C   UNL     1       1.506   4.661  17.628  0.00  0.00    +0.000 C 
ATOM      2  C   UNL     1       3.015   4.161  17.961  0.00  0.00    +0.000 C 
ATOM      3  C   UNL     1       2.286   2.755  18.394  0.00  0.00    +0.000 C 
ATOM      4  C   UNL     1       3.040   1.411  18.499  0.00  0.00    +0.000 C 
ATOM      5  C   UNL     1       4.146   1.487  19.450  0.00  0.00    +0.000 C 
ATOM      6  F   UNL     1       4.597   0.395  20.099  0.00  0.00    +0.000 F 
ATOM      7  C   UNL     1       4.726   2.660  19.640  0.00  0.00    +0.000 C 
ATOM      8  C   UNL     1       4.377   3.862  18.786  0.00  0.00    +0.000 C 
ATOM      9  C   UNL     1       4.997   5.016  19.547  0.00  0.00    +0.000 C 
ATOM     10  C   UNL     1       4.679   6.232  18.758  0.00  0.00    +0.000 C 
ATOM     11  C   UNL     1       3.241   5.850  18.322  0.00  0.00    +0.000 C 
ENDROOT
BRANCH  10  12
ATOM     12  N   UNL     1       5.541   6.745  17.679  0.00  0.00    +0.000 NA
ATOM     13  C   UNL     1       5.003   6.955  16.346  0.00  0.00    +0.000 C 
ATOM     14  C   UNL     1       4.991   5.711  15.459  0.00  0.00    +0.000 C 
ATOM     15  C   UNL     1       6.280   4.892  15.501  0.00  0.00    +0.000 C 
ATOM     16  C   UNL     1       6.893   4.772  16.902  0.00  0.00    +0.000 C 
ATOM     17  C   UNL     1       6.878   6.131  17.624  0.00  0.00    +0.000 C 
BRANCH  16  18
ATOM     18  N   UNL     1       8.243   4.203  16.813  0.00  0.00    +0.000 NA
ATOM     19  H   UNL     1       8.884   4.744  17.393  0.00  0.00    +0.000 HD
ATOM     20  H   UNL     1       8.581   4.303  15.856  0.00  0.00    +0.000 HD
ENDBRANCH  16  18
ENDBRANCH  10  12
BRANCH  11  21
ATOM     21  O   UNL     1       2.312   6.428  19.282  0.00  0.00    +0.000 OA
BRANCH  21  22
ATOM     22  C   UNL     1       1.926   7.734  19.048  0.00  0.00    +0.000 A 
ATOM     23  C   UNL     1       2.098   8.428  17.844  0.00  0.00    +0.000 A 
ATOM     24  C   UNL     1       1.813   9.798  17.768  0.00  0.00    +0.000 A 
ATOM     25  C   UNL     1       1.326  10.481  18.883  0.00  0.00    +0.000 A 
ATOM     26  C   UNL     1       1.099   9.776  20.074  0.00  0.00    +0.000 A 
ATOM     27  C   UNL     1       1.390   8.403  20.146  0.00  0.00    +0.000 A 
BRANCH  25  28
ATOM     28  C   UNL     1       1.074  11.895  18.816  0.00  0.00    +0.000 C 
ATOM     29  N   UNL     1       0.881  13.032  18.769  0.00  0.00    +0.000 NA
ENDBRANCH  25  28
ENDBRANCH  21  22
ENDBRANCH  11  21
TORSDOF 5
ENDMDL
MODEL 6
REMARK VINA RESULT:      -7.2      3.217      6.710
REMARK  Name = 
REMARK  6 active torsions:
REMARK  status: ('A' for Active; 'I' for Inactive)
REMARK    1  A    between atoms: C_1  and  C_2
REMARK    2  A    between atoms: C_10  and  N_11
REMARK    3  A    between atoms: C_15  and  N_16
REMARK    4  A    between atoms: C_18  and  O_19
REMARK    5  A    between atoms: O_19  and  C_20
REMARK    6  A    between atoms: C_23  and  C_24
REMARK                            x       y       z     vdW  Elec       q    Type
REMARK                         _______ _______ _______ _____ _____    ______ ____
ROOT
ATOM      1  C   UNL     1       1.927   9.026  17.691  0.00  0.00    +0.000 C 
ATOM      2  C   UNL     1       1.293   8.391  19.046  0.00  0.00    +0.000 C 
ATOM      3  C   UNL     1       1.095   9.956  19.499  0.00  0.00    +0.000 C 
ATOM      4  C   UNL     1       0.114  10.395  20.608  0.00  0.00    +0.000 C 
ATOM      5  C   UNL     1       0.413   9.744  21.881  0.00  0.00    +0.000 C 
ATOM      6  F   UNL     1       0.087  10.311  23.060  0.00  0.00    +0.000 F 
ATOM      7  C   UNL     1       0.989   8.554  21.852  0.00  0.00    +0.000 C 
ATOM      8  C   UNL     1       1.189   7.803  20.551  0.00  0.00    +0.000 C 
ATOM      9  C   UNL     1       2.152   6.699  20.936  0.00  0.00    +0.000 C 
ATOM     10  C   UNL     1       2.394   5.928  19.692  0.00  0.00    +0.000 C 
ATOM     11  C   UNL     1       2.425   7.114  18.693  0.00  0.00    +0.000 C 
ENDROOT
BRANCH  10  12
ATOM     12  N   UNL     1       1.566   4.784  19.274  0.00  0.00    +0.000 NA
ATOM     13  C   UNL     1       0.830   4.010  20.260  0.00  0.00    +0.000 C 
ATOM     14  C   UNL     1       1.640   2.907  20.938  0.00  0.00    +0.000 C 
ATOM     15  C   UNL     1       2.494   2.072  19.986  0.00  0.00    +0.000 C 
ATOM     16  C   UNL     1       3.177   2.893  18.884  0.00  0.00    +0.000 C 
ATOM     17  C   UNL     1       2.197   3.909  18.272  0.00  0.00    +0.000 C 
BRANCH  16  18
ATOM     18  N   UNL     1       3.756   1.998  17.875  0.00  0.00    +0.000 NA
ATOM     19  H   UNL     1       3.852   2.495  16.990  0.00  0.00    +0.000 HD
ATOM     20  H   UNL     1       3.101   1.236  17.697  0.00  0.00    +0.000 HD
ENDBRANCH  16  18
ENDBRANCH  10  12
BRANCH  11  21
ATOM     21  O   UNL     1       3.812   7.519  18.518  0.00  0.00    +0.000 OA
BRANCH  21  22
ATOM     22  C   UNL     1       4.564   6.760  17.643  0.00  0.00    +0.000 A 
ATOM     23  C   UNL     1       5.509   5.795  18.010  0.00  0.00    +0.000 A 
ATOM     24  C   UNL     1       6.327   5.197  17.042  0.00  0.00    +0.000 A 
ATOM     25  C   UNL     1       6.190   5.536  15.695  0.00  0.00    +0.000 A 
ATOM     26  C   UNL     1       5.206   6.462  15.317  0.00  0.00    +0.000 A 
ATOM     27  C   UNL     1       4.391   7.060  16.294  0.00  0.00    +0.000 A 
BRANCH  25  28
ATOM     28  C   UNL     1       7.059   4.955  14.708  0.00  0.00    +0.000 C 
ATOM     29  N   UNL     1       7.755   4.497  13.909  0.00  0.00    +0.000 NA
ENDBRANCH  25  28
ENDBRANCH  21  22
ENDBRANCH  11  21
TORSDOF 5
ENDMDL
MODEL 7
REMARK VINA RESULT:      -7.0      5.325     10.703
REMARK  Name = 
REMARK  6 active torsions:
REMARK  status: ('A' for Active; 'I' for Inactive)
REMARK    1  A    between atoms: C_1  and  C_2
REMARK    2  A    between atoms: C_10  and  N_11
REMARK    3  A    between atoms: C_15  and  N_16
REMARK    4  A    between atoms: C_18  and  O_19
REMARK    5  A    between atoms: O_19  and  C_20
REMARK    6  A    between atoms: C_23  and  C_24
REMARK                            x       y       z     vdW  Elec       q    Type
REMARK                         _______ _______ _______ _____ _____    ______ ____
ROOT
ATOM      1  C   UNL     1      -0.880  10.413  22.988  0.00  0.00    +0.000 C 
ATOM      2  C   UNL     1      -1.018  11.988  22.613  0.00  0.00    +0.000 C 
ATOM      3  C   UNL     1      -2.505  11.859  23.298  0.00  0.00    +0.000 C 
ATOM      4  C   UNL     1      -3.313  13.078  23.794  0.00  0.00    +0.000 C 
ATOM      5  C   UNL     1      -3.554  14.038  22.720  0.00  0.00    +0.000 C 
ATOM      6  F   UNL     1      -4.618  14.865  22.735  0.00  0.00    +0.000 F 
ATOM      7  C   UNL     1      -2.675  14.104  21.734  0.00  0.00    +0.000 C 
ATOM      8  C   UNL     1      -1.371  13.334  21.784  0.00  0.00    +0.000 C 
ATOM      9  C   UNL     1      -0.862  13.428  20.360  0.00  0.00    +0.000 C 
ATOM     10  C   UNL     1       0.419  12.679  20.344  0.00  0.00    +0.000 C 
ATOM     11  C   UNL     1       0.017  11.520  21.292  0.00  0.00    +0.000 C 
ENDROOT
BRANCH  10  12
ATOM     12  N   UNL     1       1.723  13.299  20.637  0.00  0.00    +0.000 NA
ATOM     13  C   UNL     1       1.798  14.511  21.436  0.00  0.00    +0.000 C 
ATOM     14  C   UNL     1       1.596  15.806  20.651  0.00  0.00    +0.000 C 
ATOM     15  C   UNL     1       2.358  15.869  19.329  0.00  0.00    +0.000 C 
ATOM     16  C   UNL     1       2.361  14.548  18.550  0.00  0.00    +0.000 C 
ATOM     17  C   UNL     1       2.641  13.360  19.488  0.00  0.00    +0.000 C 
BRANCH  16  18
ATOM     18  N   UNL     1       3.318  14.620  17.440  0.00  0.00    +0.000 NA
ATOM     19  H   UNL     1       3.990  15.367  17.612  0.00  0.00    +0.000 HD
ATOM     20  H   UNL     1       2.818  14.885  16.591  0.00  0.00    +0.000 HD
ENDBRANCH  16  18
ENDBRANCH  10  12
BRANCH  11  21
ATOM     21  O   UNL     1      -0.454  10.412  20.473  0.00  0.00    +0.000 OA
BRANCH  21  22
ATOM     22  C   UNL     1       0.520   9.676  19.826  0.00  0.00    +0.000 A 
ATOM     23  C   UNL     1       0.886   9.817  18.482  0.00  0.00    +0.000 A 
ATOM     24  C   UNL     1       1.774   8.910  17.889  0.00  0.00    +0.000 A 
ATOM     25  C   UNL     1       2.328   7.872  18.638  0.00  0.00    +0.000 A 
ATOM     26  C   UNL     1       2.007   7.761  19.999  0.00  0.00    +0.000 A 
ATOM     27  C   UNL     1       1.112   8.671  20.587  0.00  0.00    +0.000 A 
BRANCH  25  28
ATOM     28  C   UNL     1       3.206   6.917  18.018  0.00  0.00    +0.000 C 
ATOM     29  N   UNL     1       3.904   6.142  17.524  0.00  0.00    +0.000 NA
ENDBRANCH  25  28
ENDBRANCH  21  22
ENDBRANCH  11  21
TORSDOF 5
ENDMDL
MODEL 8
REMARK VINA RESULT:      -6.9      1.294      2.011
REMARK  Name = 
REMARK  6 active torsions:
REMARK  status: ('A' for Active; 'I' for Inactive)
REMARK    1  A    between atoms: C_1  and  C_2
REMARK    2  A    between atoms: C_10  and  N_11
REMARK    3  A    between atoms: C_15  and  N_16
REMARK    4  A    between atoms: C_18  and  O_19
REMARK    5  A    between atoms: O_19  and  C_20
REMARK    6  A    between atoms: C_23  and  C_24
REMARK                            x       y       z     vdW  Elec       q    Type
REMARK                         _______ _______ _______ _____ _____    ______ ____
ROOT
ATOM      1  C   UNL     1       5.231   6.584  18.761  0.00  0.00    +0.000 C 
ATOM      2  C   UNL     1       4.940   5.220  17.927  0.00  0.00    +0.000 C 
ATOM      3  C   UNL     1       6.290   5.630  17.089  0.00  0.00    +0.000 C 
ATOM      4  C   UNL     1       7.099   4.620  16.246  0.00  0.00    +0.000 C 
ATOM      5  C   UNL     1       6.274   4.000  15.212  0.00  0.00    +0.000 C 
ATOM      6  F   UNL     1       6.810   3.525  14.069  0.00  0.00    +0.000 F 
ATOM      7  C   UNL     1       4.976   3.881  15.437  0.00  0.00    +0.000 C 
ATOM      8  C   UNL     1       4.373   4.222  16.784  0.00  0.00    +0.000 C 
ATOM      9  C   UNL     1       2.887   4.268  16.493  0.00  0.00    +0.000 C 
ATOM     10  C   UNL     1       2.238   4.608  17.784  0.00  0.00    +0.000 C 
ATOM     11  C   UNL     1       3.288   5.624  18.305  0.00  0.00    +0.000 C 
ENDROOT
BRANCH  10  12
ATOM     12  N   UNL     1       1.809   3.597  18.766  0.00  0.00    +0.000 NA
ATOM     13  C   UNL     1       1.904   3.870  20.190  0.00  0.00    +0.000 C 
ATOM     14  C   UNL     1       3.272   3.582  20.805  0.00  0.00    +0.000 C 
ATOM     15  C   UNL     1       3.895   2.257  20.370  0.00  0.00    +0.000 C 
ATOM     16  C   UNL     1       3.691   1.933  18.885  0.00  0.00    +0.000 C 
ATOM     17  C   UNL     1       2.242   2.225  18.455  0.00  0.00    +0.000 C 
BRANCH  16  18
ATOM     18  N   UNL     1       4.085   0.546  18.613  0.00  0.00    +0.000 NA
ATOM     19  H   UNL     1       4.654   0.509  17.767  0.00  0.00    +0.000 HD
ATOM     20  H   UNL     1       3.248   0.000  18.408  0.00  0.00    +0.000 HD
ENDBRANCH  16  18
ENDBRANCH  10  12
BRANCH  11  21
ATOM     21  O   UNL     1       2.852   6.958  17.921  0.00  0.00    +0.000 OA
BRANCH  21  22
ATOM     22  C   UNL     1       2.127   7.659  18.865  0.00  0.00    +0.000 A 
ATOM     23  C   UNL     1       1.518   8.903  18.662  0.00  0.00    +0.000 A 
ATOM     24  C   UNL     1       0.942   9.596  19.736  0.00  0.00    +0.000 A 
ATOM     25  C   UNL     1       0.941   9.040  21.016  0.00  0.00    +0.000 A 
ATOM     26  C   UNL     1       1.501   7.768  21.211  0.00  0.00    +0.000 A 
ATOM     27  C   UNL     1       2.080   7.080  20.131  0.00  0.00    +0.000 A 
BRANCH  25  28
ATOM     28  C   UNL     1       0.389   9.769  22.125  0.00  0.00    +0.000 C 
ATOM     29  N   UNL     1      -0.062  10.361  23.007  0.00  0.00    +0.000 NA
ENDBRANCH  25  28
ENDBRANCH  21  22
ENDBRANCH  11  21
TORSDOF 5
ENDMDL
MODEL 9
REMARK VINA RESULT:      -6.9      1.632      2.240
REMARK  Name = 
REMARK  6 active torsions:
REMARK  status: ('A' for Active; 'I' for Inactive)
REMARK    1  A    between atoms: C_1  and  C_2
REMARK    2  A    between atoms: C_10  and  N_11
REMARK    3  A    between atoms: C_15  and  N_16
REMARK    4  A    between atoms: C_18  and  O_19
REMARK    5  A    between atoms: O_19  and  C_20
REMARK    6  A    between atoms: C_23  and  C_24
REMARK                            x       y       z     vdW  Elec       q    Type
REMARK                         _______ _______ _______ _____ _____    ______ ____
ROOT
ATOM      1  C   UNL     1       7.577   4.727  17.890  0.00  0.00    +0.000 C 
ATOM      2  C   UNL     1       6.433   4.066  16.945  0.00  0.00    +0.000 C 
ATOM      3  C   UNL     1       7.324   4.674  15.708  0.00  0.00    +0.000 C 
ATOM      4  C   UNL     1       7.205   4.167  14.254  0.00  0.00    +0.000 C 
ATOM      5  C   UNL     1       5.843   4.306  13.746  0.00  0.00    +0.000 C 
ATOM      6  F   UNL     1       5.589   4.442  12.428  0.00  0.00    +0.000 F 
ATOM      7  C   UNL     1       4.846   4.260  14.613  0.00  0.00    +0.000 C 
ATOM      8  C   UNL     1       5.079   3.912  16.069  0.00  0.00    +0.000 C 
ATOM      9  C   UNL     1       3.773   4.303  16.730  0.00  0.00    +0.000 C 
ATOM     10  C   UNL     1       3.945   3.990  18.170  0.00  0.00    +0.000 C 
ATOM     11  C   UNL     1       5.426   4.424  18.322  0.00  0.00    +0.000 C 
ENDROOT
BRANCH  10  12
ATOM     12  N   UNL     1       3.617   2.680  18.759  0.00  0.00    +0.000 NA
ATOM     13  C   UNL     1       2.531   1.882  18.216  0.00  0.00    +0.000 C 
ATOM     14  C   UNL     1       1.147   2.236  18.758  0.00  0.00    +0.000 C 
ATOM     15  C   UNL     1       1.092   2.437  20.271  0.00  0.00    +0.000 C 
ATOM     16  C   UNL     1       2.302   3.188  20.841  0.00  0.00    +0.000 C 
ATOM     17  C   UNL     1       3.612   2.659  20.231  0.00  0.00    +0.000 C 
BRANCH  16  18
ATOM     18  N   UNL     1       2.298   3.110  22.307  0.00  0.00    +0.000 NA
ATOM     19  H   UNL     1       2.031   2.171  22.601  0.00  0.00    +0.000 HD
ATOM     20  H   UNL     1       1.574   3.731  22.668  0.00  0.00    +0.000 HD
ENDBRANCH  16  18
ENDBRANCH  10  12
BRANCH  11  21
ATOM     21  O   UNL     1       5.445   5.803  18.786  0.00  0.00    +0.000 OA
BRANCH  21  22
ATOM     22  C   UNL     1       4.323   6.558  18.504  0.00  0.00    +0.000 A 
ATOM     23  C   UNL     1       4.146   7.357  17.369  0.00  0.00    +0.000 A 
ATOM     24  C   UNL     1       3.033   8.202  17.262  0.00  0.00    +0.000 A 
ATOM     25  C   UNL     1       2.073   8.237  18.274  0.00  0.00    +0.000 A 
ATOM     26  C   UNL     1       2.219   7.396  19.387  0.00  0.00    +0.000 A 
ATOM     27  C   UNL     1       3.339   6.553  19.490  0.00  0.00    +0.000 A 
BRANCH  25  28
ATOM     28  C   UNL     1       0.955   9.137  18.183  0.00  0.00    +0.000 C 
ATOM     29  N   UNL     1       0.063   9.866  18.117  0.00  0.00    +0.000 NA
ENDBRANCH  25  28
ENDBRANCH  21  22
ENDBRANCH  11  21
TORSDOF 5
ENDMDL
