MODEL 1
REMARK VINA RESULT:      -7.8      0.000      0.000
REMARK  Name = 
REMARK  3 active torsions:
REMARK  status: ('A' for Active; 'I' for Inactive)
REMARK    1  A    between atoms: N_3  and  C_4
REMARK    2  A    between atoms: C_4  and  C_5
REMARK    3  A    between atoms: N_19  and  C_20
REMARK                            x       y       z     vdW  Elec       q    Type
REMARK                         _______ _______ _______ _____ _____    ______ ____
ROOT
ATOM      1  O   UNL     1       2.943   2.944  20.123  0.00  0.00    +0.000 OA
ATOM      2  C   UNL     1       3.202   3.587  19.096  0.00  0.00    +0.000 C 
ATOM      3  N   UNL     1       4.210   3.082  18.384  0.00  0.00    +0.000 N 
ATOM      4  N   UNL     1       2.508   4.703  18.808  0.00  0.00    +0.000 N 
ATOM      5  C   UNL     1       2.533   5.468  17.563  0.00  0.00    +0.000 C 
ATOM      6  C   UNL     1       3.387   6.733  17.688  0.00  0.00    +0.000 C 
ATOM      7  C   UNL     1       2.580   7.822  18.366  0.00  0.00    +0.000 A 
ATOM      8  N   UNL     1       2.071   8.760  17.553  0.00  0.00    +0.000 NA
ATOM      9  C   UNL     1       1.165   9.584  18.095  0.00  0.00    +0.000 A 
ATOM     10  N   UNL     1       0.747   9.574  19.367  0.00  0.00    +0.000 NA
ATOM     11  C   UNL     1       1.279   8.648  20.175  0.00  0.00    +0.000 A 
ATOM     12  N   UNL     1       0.842   8.534  21.517  0.00  0.00    +0.000 N 
ATOM     13  C   UNL     1       2.213   7.725  19.709  0.00  0.00    +0.000 A 
ATOM     14  C   UNL     1       2.582   6.501  20.509  0.00  0.00    +0.000 C 
ATOM     15  C   UNL     1       1.783   5.322  19.937  0.00  0.00    +0.000 C 
ATOM     16  H   UNL     1       4.621   2.289  18.856  0.00  0.00    +0.000 HD
ATOM     17  H   UNL     1       1.643   8.631  22.136  0.00  0.00    +0.000 HD
ENDROOT
BRANCH  12  18
ATOM     18  C   UNL     1      -0.388   9.172  21.983  0.00  0.00    +0.000 C 
ATOM     19  C   UNL     1      -0.521   9.570  23.429  0.00  0.00    +0.000 C 
ATOM     20  C   UNL     1      -0.348  10.627  22.379  0.00  0.00    +0.000 C 
ENDBRANCH  12  18
BRANCH   3  21
ATOM     21  C   UNL     1       4.925   3.375  17.162  0.00  0.00    +0.000 C 
BRANCH  21  22
ATOM     22  C   UNL     1       5.917   4.490  17.346  0.00  0.00    +0.000 A 
ATOM     23  C   UNL     1       6.364   4.919  18.604  0.00  0.00    +0.000 A 
ATOM     24  C   UNL     1       7.273   5.966  18.699  0.00  0.00    +0.000 A 
ATOM     25  C   UNL     1       7.693   6.575  17.532  0.00  0.00    +0.000 A 
ATOM     26  N   UNL     1       7.255   6.221  16.304  0.00  0.00    +0.000 NA
ATOM     27  C   UNL     1       6.375   5.198  16.242  0.00  0.00    +0.000 A 
ENDBRANCH  21  22
ENDBRANCH   3  21
TORSDOF 3
ENDMDL
MODEL 2
REMARK VINA RESULT:      -7.7      0.840      1.120
REMARK  Name = 
REMARK  3 active torsions:
REMARK  status: ('A' for Active; 'I' for Inactive)
REMARK    1  A    between atoms: N_3  and  C_4
REMARK    2  A    between atoms: C_4  and  C_5
REMARK    3  A    between atoms: N_19  and  C_20
REMARK                            x       y       z     vdW  Elec       q    Type
REMARK                         _______ _______ _______ _____ _____    ______ ____
ROOT
ATOM      1  O   UNL     1       2.326   3.067  20.585  0.00  0.00    +0.000 OA
ATOM      2  C   UNL     1       2.671   3.608  19.525  0.00  0.00    +0.000 C 
ATOM      3  N   UNL     1       3.656   2.972  18.891  0.00  0.00    +0.000 N 
ATOM      4  N   UNL     1       2.080   4.750  19.129  0.00  0.00    +0.000 N 
ATOM      5  C   UNL     1       2.209   5.414  17.833  0.00  0.00    +0.000 C 
ATOM      6  C   UNL     1       3.159   6.613  17.899  0.00  0.00    +0.000 C 
ATOM      7  C   UNL     1       2.422   7.810  18.464  0.00  0.00    +0.000 A 
ATOM      8  N   UNL     1       2.018   8.722  17.565  0.00  0.00    +0.000 NA
ATOM      9  C   UNL     1       1.165   9.654  18.010  0.00  0.00    +0.000 A 
ATOM     10  N   UNL     1       0.706   9.773  19.262  0.00  0.00    +0.000 NA
ATOM     11  C   UNL     1       1.134   8.872  20.156  0.00  0.00    +0.000 A 
ATOM     12  N   UNL     1       0.645   8.896  21.485  0.00  0.00    +0.000 N 
ATOM     13  C   UNL     1       2.005   7.845  19.795  0.00  0.00    +0.000 A 
ATOM     14  C   UNL     1       2.245   6.661  20.696  0.00  0.00    +0.000 C 
ATOM     15  C   UNL     1       1.372   5.509  20.181  0.00  0.00    +0.000 C 
ATOM     16  H   UNL     1       3.986   2.187  19.436  0.00  0.00    +0.000 HD
ATOM     17  H   UNL     1       1.432   8.975  22.126  0.00  0.00    +0.000 HD
ENDROOT
BRANCH  12  18
ATOM     18  C   UNL     1      -0.542   9.662  21.855  0.00  0.00    +0.000 C 
ATOM     19  C   UNL     1      -0.773  10.033  23.296  0.00  0.00    +0.000 C 
ATOM     20  C   UNL     1      -0.374  11.090  22.310  0.00  0.00    +0.000 C 
ENDBRANCH  12  18
BRANCH   3  21
ATOM     21  C   UNL     1       4.433   3.114  17.679  0.00  0.00    +0.000 C 
BRANCH  21  22
ATOM     22  C   UNL     1       5.521   4.140  17.828  0.00  0.00    +0.000 A 
ATOM     23  C   UNL     1       6.168   4.737  16.737  0.00  0.00    +0.000 A 
ATOM     24  C   UNL     1       7.175   5.671  16.950  0.00  0.00    +0.000 A 
ATOM     25  C   UNL     1       7.526   5.966  18.254  0.00  0.00    +0.000 A 
ATOM     26  N   UNL     1       6.959   5.384  19.332  0.00  0.00    +0.000 NA
ATOM     27  C   UNL     1       5.981   4.482  19.094  0.00  0.00    +0.000 A 
ENDBRANCH  21  22
ENDBRANCH   3  21
TORSDOF 3
ENDMDL
MODEL 3
REMARK VINA RESULT:      -7.4      1.117      1.559
REMARK  Name = 
REMARK  3 active torsions:
REMARK  status: ('A' for Active; 'I' for Inactive)
REMARK    1  A    between atoms: N_3  and  C_4
REMARK    2  A    between atoms: C_4  and  C_5
REMARK    3  A    between atoms: N_19  and  C_20
REMARK                            x       y       z     vdW  Elec       q    Type
REMARK                         _______ _______ _______ _____ _____    ______ ____
ROOT
ATOM      1  O   UNL     1       2.035   2.694  20.775  0.00  0.00    +0.000 OA
ATOM      2  C   UNL     1       2.239   3.150  19.642  0.00  0.00    +0.000 C 
ATOM      3  N   UNL     1       2.976   2.356  18.866  0.00  0.00    +0.000 N 
ATOM      4  N   UNL     1       1.756   4.361  19.308  0.00  0.00    +0.000 N 
ATOM      5  C   UNL     1       1.722   4.967  17.978  0.00  0.00    +0.000 C 
ATOM      6  C   UNL     1       2.831   6.007  17.797  0.00  0.00    +0.000 C 
ATOM      7  C   UNL     1       2.404   7.316  18.430  0.00  0.00    +0.000 A 
ATOM      8  N   UNL     1       1.969   8.258  17.579  0.00  0.00    +0.000 NA
ATOM      9  C   UNL     1       1.367   9.321  18.129  0.00  0.00    +0.000 A 
ATOM     10  N   UNL     1       1.187   9.537  19.438  0.00  0.00    +0.000 NA
ATOM     11  C   UNL     1       1.646   8.602  20.279  0.00  0.00    +0.000 A 
ATOM     12  N   UNL     1       1.438   8.730  21.674  0.00  0.00    +0.000 N 
ATOM     13  C   UNL     1       2.268   7.445  19.812  0.00  0.00    +0.000 A 
ATOM     14  C   UNL     1       2.505   6.258  20.711  0.00  0.00    +0.000 C 
ATOM     15  C   UNL     1       1.388   5.243  20.435  0.00  0.00    +0.000 C 
ATOM     16  H   UNL     1       3.287   1.542  19.377  0.00  0.00    +0.000 HD
ATOM     17  H   UNL     1       2.338   8.702  22.147  0.00  0.00    +0.000 HD
ENDROOT
BRANCH  12  18
ATOM     18  C   UNL     1       0.472   9.679  22.224  0.00  0.00    +0.000 C 
ATOM     19  C   UNL     1      -0.935   9.229  22.513  0.00  0.00    +0.000 C 
ATOM     20  C   UNL     1       0.007   9.501  23.647  0.00  0.00    +0.000 C 
ENDBRANCH  12  18
BRANCH   3  21
ATOM     21  C   UNL     1       3.510   2.349  17.521  0.00  0.00    +0.000 C 
BRANCH  21  22
ATOM     22  C   UNL     1       4.713   3.242  17.392  0.00  0.00    +0.000 A 
ATOM     23  C   UNL     1       5.261   3.617  16.157  0.00  0.00    +0.000 A 
ATOM     24  C   UNL     1       6.382   4.436  16.114  0.00  0.00    +0.000 A 
ATOM     25  C   UNL     1       6.943   4.840  17.311  0.00  0.00    +0.000 A 
ATOM     26  N   UNL     1       6.472   4.469  18.521  0.00  0.00    +0.000 NA
ATOM     27  C   UNL     1       5.379   3.675  18.532  0.00  0.00    +0.000 A 
ENDBRANCH  21  22
ENDBRANCH   3  21
TORSDOF 3
ENDMDL
MODEL 4
REMARK VINA RESULT:      -7.1      2.132      7.341
REMARK  Name = 
REMARK  3 active torsions:
REMARK  status: ('A' for Active; 'I' for Inactive)
REMARK    1  A    between atoms: N_3  and  C_4
REMARK    2  A    between atoms: C_4  and  C_5
REMARK    3  A    between atoms: N_19  and  C_20
REMARK                            x       y       z     vdW  Elec       q    Type
REMARK                         _______ _______ _______ _____ _____    ______ ____
ROOT
ATOM      1  O   UNL     1       0.956   3.232  18.108  0.00  0.00    +0.000 OA
ATOM      2  C   UNL     1       1.790   3.803  18.824  0.00  0.00    +0.000 C 
ATOM      3  N   UNL     1       1.257   4.449  19.862  0.00  0.00    +0.000 N 
ATOM      4  N   UNL     1       3.096   3.758  18.503  0.00  0.00    +0.000 N 
ATOM      5  C   UNL     1       4.227   4.192  19.320  0.00  0.00    +0.000 C 
ATOM      6  C   UNL     1       4.764   5.555  18.873  0.00  0.00    +0.000 C 
ATOM      7  C   UNL     1       5.671   5.372  17.674  0.00  0.00    +0.000 A 
ATOM      8  N   UNL     1       6.988   5.414  17.930  0.00  0.00    +0.000 NA
ATOM      9  C   UNL     1       7.797   5.018  16.938  0.00  0.00    +0.000 A 
ATOM     10  N   UNL     1       7.415   4.615  15.720  0.00  0.00    +0.000 NA
ATOM     11  C   UNL     1       6.100   4.599  15.468  0.00  0.00    +0.000 A 
ATOM     12  N   UNL     1       5.616   4.126  14.224  0.00  0.00    +0.000 N 
ATOM     13  C   UNL     1       5.168   4.968  16.437  0.00  0.00    +0.000 A 
ATOM     14  C   UNL     1       3.701   4.663  16.279  0.00  0.00    +0.000 C 
ATOM     15  C   UNL     1       3.404   3.403  17.102  0.00  0.00    +0.000 C 
ATOM     16  H   UNL     1       0.248   4.402  19.835  0.00  0.00    +0.000 HD
ATOM     17  H   UNL     1       5.053   4.853  13.789  0.00  0.00    +0.000 HD
ENDROOT
BRANCH  12  18
ATOM     18  C   UNL     1       6.461   3.359  13.311  0.00  0.00    +0.000 C 
ATOM     19  C   UNL     1       5.923   2.946  11.966  0.00  0.00    +0.000 C 
ATOM     20  C   UNL     1       6.963   4.022  12.053  0.00  0.00    +0.000 C 
ENDBRANCH  12  18
BRANCH   3  21
ATOM     21  C   UNL     1       1.701   5.250  20.982  0.00  0.00    +0.000 C 
BRANCH  21  22
ATOM     22  C   UNL     1       1.461   6.716  20.753  0.00  0.00    +0.000 A 
ATOM     23  C   UNL     1       0.642   7.498  21.580  0.00  0.00    +0.000 A 
ATOM     24  C   UNL     1       0.456   8.846  21.300  0.00  0.00    +0.000 A 
ATOM     25  C   UNL     1       1.076   9.373  20.182  0.00  0.00    +0.000 A 
ATOM     26  N   UNL     1       1.838   8.647  19.337  0.00  0.00    +0.000 NA
ATOM     27  C   UNL     1       2.004   7.339  19.636  0.00  0.00    +0.000 A 
ENDBRANCH  21  22
ENDBRANCH   3  21
TORSDOF 3
ENDMDL
MODEL 5
REMARK VINA RESULT:      -7.1      2.834      5.087
REMARK  Name = 
REMARK  3 active torsions:
REMARK  status: ('A' for Active; 'I' for Inactive)
REMARK    1  A    between atoms: N_3  and  C_4
REMARK    2  A    between atoms: C_4  and  C_5
REMARK    3  A    between atoms: N_19  and  C_20
REMARK                            x       y       z     vdW  Elec       q    Type
REMARK                         _______ _______ _______ _____ _____    ______ ____
ROOT
ATOM      1  O   UNL     1       2.543   8.447  17.369  0.00  0.00    +0.000 OA
ATOM      2  C   UNL     1       2.229   7.993  18.478  0.00  0.00    +0.000 C 
ATOM      3  N   UNL     1       2.291   6.663  18.553  0.00  0.00    +0.000 N 
ATOM      4  N   UNL     1       1.839   8.825  19.460  0.00  0.00    +0.000 N 
ATOM      5  C   UNL     1       1.629   8.500  20.870  0.00  0.00    +0.000 C 
ATOM      6  C   UNL     1       0.142   8.350  21.204  0.00  0.00    +0.000 C 
ATOM      7  C   UNL     1      -0.471   9.720  21.406  0.00  0.00    +0.000 A 
ATOM      8  N   UNL     1      -0.659  10.091  22.683  0.00  0.00    +0.000 NA
ATOM      9  C   UNL     1      -0.970  11.378  22.886  0.00  0.00    +0.000 A 
ATOM     10  N   UNL     1      -1.135  12.310  21.940  0.00  0.00    +0.000 NA
ATOM     11  C   UNL     1      -0.969  11.924  20.668  0.00  0.00    +0.000 A 
ATOM     12  N   UNL     1      -1.066  12.867  19.616  0.00  0.00    +0.000 N 
ATOM     13  C   UNL     1      -0.620  10.613  20.345  0.00  0.00    +0.000 A 
ATOM     14  C   UNL     1      -0.131  10.243  18.968  0.00  0.00    +0.000 C 
ATOM     15  C   UNL     1       1.401  10.170  19.031  0.00  0.00    +0.000 C 
ATOM     16  H   UNL     1       2.529   6.263  17.656  0.00  0.00    +0.000 HD
ATOM     17  H   UNL     1      -1.777  12.556  18.958  0.00  0.00    +0.000 HD
ENDROOT
BRANCH  12  18
ATOM     18  C   UNL     1      -1.031  14.306  19.867  0.00  0.00    +0.000 C 
ATOM     19  C   UNL     1       0.278  14.976  20.190  0.00  0.00    +0.000 C 
ATOM     20  C   UNL     1      -0.365  15.205  18.855  0.00  0.00    +0.000 C 
ENDBRANCH  12  18
BRANCH   3  21
ATOM     21  C   UNL     1       2.059   5.622  19.530  0.00  0.00    +0.000 C 
BRANCH  21  22
ATOM     22  C   UNL     1       2.533   4.281  19.043  0.00  0.00    +0.000 A 
ATOM     23  C   UNL     1       1.881   3.556  18.035  0.00  0.00    +0.000 A 
ATOM     24  C   UNL     1       2.369   2.315  17.644  0.00  0.00    +0.000 A 
ATOM     25  C   UNL     1       3.486   1.819  18.290  0.00  0.00    +0.000 A 
ATOM     26  N   UNL     1       4.119   2.464  19.294  0.00  0.00    +0.000 NA
ATOM     27  C   UNL     1       3.624   3.670  19.650  0.00  0.00    +0.000 A 
ENDBRANCH  21  22
ENDBRANCH   3  21
TORSDOF 3
ENDMDL
MODEL 6
REMARK VINA RESULT:      -7.0      2.152      8.071
REMARK  Name = 
REMARK  3 active torsions:
REMARK  status: ('A' for Active; 'I' for Inactive)
REMARK    1  A    between atoms: N_3  and  C_4
REMARK    2  A    between atoms: C_4  and  C_5
REMARK    3  A    between atoms: N_19  and  C_20
REMARK                            x       y       z     vdW  Elec       q    Type
REMARK                         _______ _______ _______ _____ _____    ______ ____
ROOT
ATOM      1  O   UNL     1       2.166   9.668  17.455  0.00  0.00    +0.000 OA
ATOM      2  C   UNL     1       1.905   8.869  18.365  0.00  0.00    +0.000 C 
ATOM      3  N   UNL     1       1.334   9.433  19.430  0.00  0.00    +0.000 N 
ATOM      4  N   UNL     1       2.228   7.570  18.233  0.00  0.00    +0.000 N 
ATOM      5  C   UNL     1       1.825   6.462  19.097  0.00  0.00    +0.000 C 
ATOM      6  C   UNL     1       2.950   6.042  20.047  0.00  0.00    +0.000 C 
ATOM      7  C   UNL     1       3.923   5.144  19.311  0.00  0.00    +0.000 A 
ATOM      8  N   UNL     1       3.802   3.830  19.558  0.00  0.00    +0.000 NA
ATOM      9  C   UNL     1       4.482   3.009  18.746  0.00  0.00    +0.000 A 
ATOM     10  N   UNL     1       5.283   3.380  17.739  0.00  0.00    +0.000 NA
ATOM     11  C   UNL     1       5.414   4.694  17.516  0.00  0.00    +0.000 A 
ATOM     12  N   UNL     1       6.195   5.160  16.431  0.00  0.00    +0.000 N 
ATOM     13  C   UNL     1       4.733   5.635  18.287  0.00  0.00    +0.000 A 
ATOM     14  C   UNL     1       4.625   7.076  17.860  0.00  0.00    +0.000 C 
ATOM     15  C   UNL     1       3.248   7.259  17.209  0.00  0.00    +0.000 C 
ATOM     16  H   UNL     1       1.276  10.436  19.318  0.00  0.00    +0.000 HD
ATOM     17  H   UNL     1       6.915   5.786  16.785  0.00  0.00    +0.000 HD
ENDROOT
BRANCH  12  18
ATOM     18  C   UNL     1       6.615   4.274  15.347  0.00  0.00    +0.000 C 
ATOM     19  C   UNL     1       5.739   4.112  14.133  0.00  0.00    +0.000 C 
ATOM     20  C   UNL     1       7.022   4.879  14.028  0.00  0.00    +0.000 C 
ENDBRANCH  12  18
BRANCH   3  21
ATOM     21  C   UNL     1       0.828   9.034  20.725  0.00  0.00    +0.000 C 
BRANCH  21  22
ATOM     22  C   UNL     1      -0.040  10.098  21.339  0.00  0.00    +0.000 A 
ATOM     23  C   UNL     1      -0.546  11.188  20.617  0.00  0.00    +0.000 A 
ATOM     24  C   UNL     1      -1.331  12.140  21.254  0.00  0.00    +0.000 A 
ATOM     25  C   UNL     1      -1.571  11.990  22.607  0.00  0.00    +0.000 A 
ATOM     26  N   UNL     1      -1.069  10.980  23.349  0.00  0.00    +0.000 NA
ATOM     27  C   UNL     1      -0.311  10.067  22.702  0.00  0.00    +0.000 A 
ENDBRANCH  21  22
ENDBRANCH   3  21
TORSDOF 3
ENDMDL
MODEL 7
REMARK VINA RESULT:      -6.9      3.196      5.520
REMARK  Name = 
REMARK  3 active torsions:
REMARK  status: ('A' for Active; 'I' for Inactive)
REMARK    1  A    between atoms: N_3  and  C_4
REMARK    2  A    between atoms: C_4  and  C_5
REMARK    3  A    between atoms: N_19  and  C_20
REMARK                            x       y       z     vdW  Elec       q    Type
REMARK                         _______ _______ _______ _____ _____    ______ ____
ROOT
ATOM      1  O   UNL     1       2.460   8.658  17.841  0.00  0.00    +0.000 OA
ATOM      2  C   UNL     1       2.091   8.256  18.952  0.00  0.00    +0.000 C 
ATOM      3  N   UNL     1       2.132   6.930  19.086  0.00  0.00    +0.000 N 
ATOM      4  N   UNL     1       1.668   9.134  19.880  0.00  0.00    +0.000 N 
ATOM      5  C   UNL     1       1.391   8.872  21.291  0.00  0.00    +0.000 C 
ATOM      6  C   UNL     1      -0.111   8.753  21.564  0.00  0.00    +0.000 C 
ATOM      7  C   UNL     1      -0.714  10.138  21.679  0.00  0.00    +0.000 A 
ATOM      8  N   UNL     1      -0.954  10.565  22.929  0.00  0.00    +0.000 NA
ATOM      9  C   UNL     1      -1.257  11.863  23.064  0.00  0.00    +0.000 A 
ATOM     10  N   UNL     1      -1.367  12.756  22.072  0.00  0.00    +0.000 NA
ATOM     11  C   UNL     1      -1.149  12.313  20.827  0.00  0.00    +0.000 A 
ATOM     12  N   UNL     1      -1.187  13.211  19.733  0.00  0.00    +0.000 N 
ATOM     13  C   UNL     1      -0.804  10.987  20.575  0.00  0.00    +0.000 A 
ATOM     14  C   UNL     1      -0.258  10.552  19.239  0.00  0.00    +0.000 C 
ATOM     15  C   UNL     1       1.268  10.464  19.374  0.00  0.00    +0.000 C 
ATOM     16  H   UNL     1       2.404   6.490  18.219  0.00  0.00    +0.000 HD
ATOM     17  H   UNL     1      -1.872  12.881  19.057  0.00  0.00    +0.000 HD
ENDROOT
BRANCH  12  18
ATOM     18  C   UNL     1      -1.144  14.659  19.923  0.00  0.00    +0.000 C 
ATOM     19  C   UNL     1       0.148  15.322  20.321  0.00  0.00    +0.000 C 
ATOM     20  C   UNL     1      -0.382  15.502  18.931  0.00  0.00    +0.000 C 
ENDBRANCH  12  18
BRANCH   3  21
ATOM     21  C   UNL     1       1.843   5.934  20.095  0.00  0.00    +0.000 C 
BRANCH  21  22
ATOM     22  C   UNL     1       1.805   4.547  19.518  0.00  0.00    +0.000 A 
ATOM     23  C   UNL     1       1.728   3.389  20.306  0.00  0.00    +0.000 A 
ATOM     24  C   UNL     1       1.709   2.138  19.703  0.00  0.00    +0.000 A 
ATOM     25  C   UNL     1       1.794   2.075  18.325  0.00  0.00    +0.000 A 
ATOM     26  N   UNL     1       1.912   3.161  17.532  0.00  0.00    +0.000 NA
ATOM     27  C   UNL     1       1.924   4.365  18.145  0.00  0.00    +0.000 A 
ENDBRANCH  21  22
ENDBRANCH   3  21
TORSDOF 3
ENDMDL
MODEL 8
REMARK VINA RESULT:      -6.9      2.065      7.288
REMARK  Name = 
REMARK  3 active torsions:
REMARK  status: ('A' for Active; 'I' for Inactive)
REMARK    1  A    between atoms: N_3  and  C_4
REMARK    2  A    between atoms: C_4  and  C_5
REMARK    3  A    between atoms: N_19  and  C_20
REMARK                            x       y       z     vdW  Elec       q    Type
REMARK                         _______ _______ _______ _____ _____    ______ ____
ROOT
ATOM      1  O   UNL     1       1.340   3.062  18.506  0.00  0.00    +0.000 OA
ATOM      2  C   UNL     1       2.106   3.850  19.077  0.00  0.00    +0.000 C 
ATOM      3  N   UNL     1       1.535   4.530  20.073  0.00  0.00    +0.000 N 
ATOM      4  N   UNL     1       3.376   3.980  18.654  0.00  0.00    +0.000 N 
ATOM      5  C   UNL     1       4.464   4.697  19.316  0.00  0.00    +0.000 C 
ATOM      6  C   UNL     1       4.727   6.060  18.669  0.00  0.00    +0.000 C 
ATOM      7  C   UNL     1       5.574   5.874  17.427  0.00  0.00    +0.000 A 
ATOM      8  N   UNL     1       6.877   6.166  17.564  0.00  0.00    +0.000 NA
ATOM      9  C   UNL     1       7.678   5.783  16.561  0.00  0.00    +0.000 A 
ATOM     10  N   UNL     1       7.296   5.167  15.435  0.00  0.00    +0.000 NA
ATOM     11  C   UNL     1       5.990   4.902  15.299  0.00  0.00    +0.000 A 
ATOM     12  N   UNL     1       5.519   4.197  14.164  0.00  0.00    +0.000 N 
ATOM     13  C   UNL     1       5.072   5.235  16.293  0.00  0.00    +0.000 A 
ATOM     14  C   UNL     1       3.673   4.675  16.296  0.00  0.00    +0.000 C 
ATOM     15  C   UNL     1       3.652   3.501  17.283  0.00  0.00    +0.000 C 
ATOM     16  H   UNL     1       0.550   4.314  20.137  0.00  0.00    +0.000 HD
ATOM     17  H   UNL     1       4.812   4.759  13.696  0.00  0.00    +0.000 HD
ENDROOT
BRANCH  12  18
ATOM     18  C   UNL     1       6.424   3.468  13.280  0.00  0.00    +0.000 C 
ATOM     19  C   UNL     1       5.909   2.908  11.981  0.00  0.00    +0.000 C 
ATOM     20  C   UNL     1       6.823   4.096  11.968  0.00  0.00    +0.000 C 
ENDBRANCH  12  18
BRANCH   3  21
ATOM     21  C   UNL     1       1.903   5.531  21.050  0.00  0.00    +0.000 C 
BRANCH  21  22
ATOM     22  C   UNL     1       1.590   6.922  20.572  0.00  0.00    +0.000 A 
ATOM     23  C   UNL     1       1.996   7.414  19.323  0.00  0.00    +0.000 A 
ATOM     24  C   UNL     1       1.681   8.716  18.953  0.00  0.00    +0.000 A 
ATOM     25  C   UNL     1       0.987   9.501  19.854  0.00  0.00    +0.000 A 
ATOM     26  N   UNL     1       0.614   9.081  21.082  0.00  0.00    +0.000 NA
ATOM     27  C   UNL     1       0.931   7.810  21.413  0.00  0.00    +0.000 A 
ENDBRANCH  21  22
ENDBRANCH   3  21
TORSDOF 3
ENDMDL
MODEL 9
REMARK VINA RESULT:      -6.8      3.057      5.551
REMARK  Name = 
REMARK  3 active torsions:
REMARK  status: ('A' for Active; 'I' for Inactive)
REMARK    1  A    between atoms: N_3  and  C_4
REMARK    2  A    between atoms: C_4  and  C_5
REMARK    3  A    between atoms: N_19  and  C_20
REMARK                            x       y       z     vdW  Elec       q    Type
REMARK                         _______ _______ _______ _____ _____    ______ ____
ROOT
ATOM      1  O   UNL     1       2.338   8.480  18.254  0.00  0.00    +0.000 OA
ATOM      2  C   UNL     1       1.935   8.186  19.388  0.00  0.00    +0.000 C 
ATOM      3  N   UNL     1       1.899   6.874  19.623  0.00  0.00    +0.000 N 
ATOM      4  N   UNL     1       1.556   9.156  20.239  0.00  0.00    +0.000 N 
ATOM      5  C   UNL     1       1.250   9.019  21.662  0.00  0.00    +0.000 C 
ATOM      6  C   UNL     1      -0.258   9.008  21.923  0.00  0.00    +0.000 C 
ATOM      7  C   UNL     1      -0.781  10.430  21.924  0.00  0.00    +0.000 A 
ATOM      8  N   UNL     1      -1.008  10.965  23.134  0.00  0.00    +0.000 NA
ATOM      9  C   UNL     1      -1.236  12.285  23.165  0.00  0.00    +0.000 A 
ATOM     10  N   UNL     1      -1.285  13.103  22.106  0.00  0.00    +0.000 NA
ATOM     11  C   UNL     1      -1.081  12.554  20.902  0.00  0.00    +0.000 A 
ATOM     12  N   UNL     1      -1.056  13.366  19.742  0.00  0.00    +0.000 N 
ATOM     13  C   UNL     1      -0.811  11.194  20.757  0.00  0.00    +0.000 A 
ATOM     14  C   UNL     1      -0.279  10.627  19.466  0.00  0.00    +0.000 C 
ATOM     15  C   UNL     1       1.238  10.463  19.628  0.00  0.00    +0.000 C 
ATOM     16  H   UNL     1       2.153   6.353  18.796  0.00  0.00    +0.000 HD
ATOM     17  H   UNL     1      -1.753  13.024  19.083  0.00  0.00    +0.000 HD
ENDROOT
BRANCH  12  18
ATOM     18  C   UNL     1      -0.932  14.819  19.821  0.00  0.00    +0.000 C 
ATOM     19  C   UNL     1       0.429  15.444  19.983  0.00  0.00    +0.000 C 
ATOM     20  C   UNL     1      -0.292  15.559  18.673  0.00  0.00    +0.000 C 
ENDBRANCH  12  18
BRANCH   3  21
ATOM     21  C   UNL     1       1.543   5.977  20.701  0.00  0.00    +0.000 C 
BRANCH  21  22
ATOM     22  C   UNL     1       2.307   4.685  20.631  0.00  0.00    +0.000 A 
ATOM     23  C   UNL     1       2.073   3.606  21.495  0.00  0.00    +0.000 A 
ATOM     24  C   UNL     1       2.828   2.445  21.379  0.00  0.00    +0.000 A 
ATOM     25  C   UNL     1       3.817   2.403  20.415  0.00  0.00    +0.000 A 
ATOM     26  N   UNL     1       4.104   3.433  19.591  0.00  0.00    +0.000 NA
ATOM     27  C   UNL     1       3.351   4.548  19.724  0.00  0.00    +0.000 A 
ENDBRANCH  21  22
ENDBRANCH   3  21
TORSDOF 3
ENDMDL
