MODEL 1
REMARK VINA RESULT:      -7.9      0.000      0.000
REMARK  Name = 
REMARK  3 active torsions:
REMARK  status: ('A' for Active; 'I' for Inactive)
REMARK    1  A    between atoms: C_1  and  C_2
REMARK    2  A    between atoms: C_10  and  N_11
REMARK    3  A    between atoms: C_12  and  C_14
REMARK                            x       y       z     vdW  Elec       q    Type
REMARK                         _______ _______ _______ _____ _____    ______ ____
ROOT
ATOM      1  N   UNL     1       3.946   4.061  17.512  0.00  0.00    +0.000 N 
ATOM      2  C   UNL     1       5.324   4.142  17.574  0.00  0.00    +0.000 C 
ATOM      3  O   UNL     1       5.991   3.975  18.592  0.00  0.00    +0.000 OA
ATOM      4  H   UNL     1       3.518   4.621  16.777  0.00  0.00    +0.000 HD
ENDROOT
BRANCH   1  14
ATOM      5  C   UNL     1       3.035   1.389  18.695  0.00  0.00    +0.000 C 
ATOM      6  C   UNL     1       2.659   2.743  19.245  0.00  0.00    +0.000 A 
ATOM      7  C   UNL     1       1.764   2.756  20.365  0.00  0.00    +0.000 A 
ATOM      8  C   UNL     1       1.258   3.925  20.966  0.00  0.00    +0.000 A 
ATOM      9  C   UNL     1       1.684   5.142  20.396  0.00  0.00    +0.000 A 
ATOM     10  N   UNL     1       1.335   6.370  20.813  0.00  0.00    +0.000 NA
ATOM     11  S   UNL     1       2.118   7.445  19.819  0.00  0.00    +0.000 S 
ATOM     12  N   UNL     1       2.899   6.402  18.791  0.00  0.00    +0.000 NA
ATOM     13  C   UNL     1       2.607   5.159  19.215  0.00  0.00    +0.000 A 
ATOM     14  C   UNL     1       3.115   3.948  18.650  0.00  0.00    +0.000 A 
ENDBRANCH   1  14
BRANCH   2  15
ATOM     15  C   UNL     1       6.047   4.481  16.316  0.00  0.00    +0.000 A 
ATOM     16  C   UNL     1       5.761   3.694  15.187  0.00  0.00    +0.000 A 
ATOM     17  C   UNL     1       6.398   3.949  13.972  0.00  0.00    +0.000 A 
ATOM     18  C   UNL     1       7.315   4.980  13.917  0.00  0.00    +0.000 A 
ATOM     19  N   UNL     1       7.627   5.754  14.978  0.00  0.00    +0.000 NA
ATOM     20  C   UNL     1       6.994   5.483  16.149  0.00  0.00    +0.000 A 
ATOM     21 CL   UNL     1       7.567   6.511  17.404  0.00  0.00    +0.000 Cl
ENDBRANCH   2  15
TORSDOF 2
ENDMDL
MODEL 2
REMARK VINA RESULT:      -7.3      1.982      2.552
REMARK  Name = 
REMARK  3 active torsions:
REMARK  status: ('A' for Active; 'I' for Inactive)
REMARK    1  A    between atoms: C_1  and  C_2
REMARK    2  A    between atoms: C_10  and  N_11
REMARK    3  A    between atoms: C_12  and  C_14
REMARK                            x       y       z     vdW  Elec       q    Type
REMARK                         _______ _______ _______ _____ _____    ______ ____
ROOT
ATOM      1  N   UNL     1       3.491   6.046  17.970  0.00  0.00    +0.000 N 
ATOM      2  C   UNL     1       4.812   5.683  18.149  0.00  0.00    +0.000 C 
ATOM      3  O   UNL     1       5.389   5.647  19.232  0.00  0.00    +0.000 OA
ATOM      4  H   UNL     1       3.277   6.443  17.057  0.00  0.00    +0.000 HD
ENDROOT
BRANCH   1  14
ATOM      5  C   UNL     1       2.484   4.443  20.375  0.00  0.00    +0.000 C 
ATOM      6  C   UNL     1       2.184   5.902  20.131  0.00  0.00    +0.000 A 
ATOM      7  C   UNL     1       1.317   6.547  21.072  0.00  0.00    +0.000 A 
ATOM      8  C   UNL     1       0.879   7.881  20.967  0.00  0.00    +0.000 A 
ATOM      9  C   UNL     1       1.348   8.595  19.844  0.00  0.00    +0.000 A 
ATOM     10  N   UNL     1       1.066   9.874  19.553  0.00  0.00    +0.000 NA
ATOM     11  S   UNL     1       1.876  10.225  18.146  0.00  0.00    +0.000 S 
ATOM     12  N   UNL     1       2.583   8.760  17.823  0.00  0.00    +0.000 NA
ATOM     13  C   UNL     1       2.244   7.941  18.836  0.00  0.00    +0.000 A 
ATOM     14  C   UNL     1       2.682   6.590  18.994  0.00  0.00    +0.000 A 
ENDBRANCH   1  14
BRANCH   2  15
ATOM     15  C   UNL     1       5.597   5.335  16.930  0.00  0.00    +0.000 A 
ATOM     16  C   UNL     1       5.117   4.272  16.146  0.00  0.00    +0.000 A 
ATOM     17  C   UNL     1       5.796   3.886  14.991  0.00  0.00    +0.000 A 
ATOM     18  C   UNL     1       6.949   4.567  14.651  0.00  0.00    +0.000 A 
ATOM     19  N   UNL     1       7.451   5.586  15.379  0.00  0.00    +0.000 NA
ATOM     20  C   UNL     1       6.771   5.940  16.501  0.00  0.00    +0.000 A 
ATOM     21 CL   UNL     1       7.592   7.197  17.341  0.00  0.00    +0.000 Cl
ENDBRANCH   2  15
TORSDOF 2
ENDMDL
MODEL 3
REMARK VINA RESULT:      -7.2      2.241      2.630
REMARK  Name = 
REMARK  3 active torsions:
REMARK  status: ('A' for Active; 'I' for Inactive)
REMARK    1  A    between atoms: C_1  and  C_2
REMARK    2  A    between atoms: C_10  and  N_11
REMARK    3  A    between atoms: C_12  and  C_14
REMARK                            x       y       z     vdW  Elec       q    Type
REMARK                         _______ _______ _______ _____ _____    ______ ____
ROOT
ATOM      1  N   UNL     1       4.170   3.549  17.696  0.00  0.00    +0.000 N 
ATOM      2  C   UNL     1       4.839   4.732  17.450  0.00  0.00    +0.000 C 
ATOM      3  O   UNL     1       4.779   5.733  18.159  0.00  0.00    +0.000 OA
ATOM      4  H   UNL     1       3.957   2.998  16.867  0.00  0.00    +0.000 HD
ENDROOT
BRANCH   1  14
ATOM      5  C   UNL     1       1.373   4.784  17.551  0.00  0.00    +0.000 C 
ATOM      6  C   UNL     1       1.881   3.945  18.698  0.00  0.00    +0.000 A 
ATOM      7  C   UNL     1       0.996   3.776  19.812  0.00  0.00    +0.000 A 
ATOM      8  C   UNL     1       1.325   3.080  20.991  0.00  0.00    +0.000 A 
ATOM      9  C   UNL     1       2.623   2.529  21.038  0.00  0.00    +0.000 A 
ATOM     10  N   UNL     1       3.140   1.822  22.055  0.00  0.00    +0.000 NA
ATOM     11  S   UNL     1       4.679   1.399  21.599  0.00  0.00    +0.000 S 
ATOM     12  N   UNL     1       4.772   2.128  20.111  0.00  0.00    +0.000 NA
ATOM     13  C   UNL     1       3.575   2.703  19.893  0.00  0.00    +0.000 A 
ATOM     14  C   UNL     1       3.191   3.398  18.705  0.00  0.00    +0.000 A 
ENDBRANCH   1  14
BRANCH   2  15
ATOM     15  C   UNL     1       5.676   4.801  16.218  0.00  0.00    +0.000 A 
ATOM     16  C   UNL     1       5.262   4.024  15.123  0.00  0.00    +0.000 A 
ATOM     17  C   UNL     1       5.993   4.034  13.935  0.00  0.00    +0.000 A 
ATOM     18  C   UNL     1       7.130   4.817  13.874  0.00  0.00    +0.000 A 
ATOM     19  N   UNL     1       7.570   5.570  14.903  0.00  0.00    +0.000 NA
ATOM     20  C   UNL     1       6.841   5.540  16.048  0.00  0.00    +0.000 A 
ATOM     21 CL   UNL     1       7.586   6.492  17.272  0.00  0.00    +0.000 Cl
ENDBRANCH   2  15
TORSDOF 2
ENDMDL
MODEL 4
REMARK VINA RESULT:      -7.1      1.773      2.635
REMARK  Name = 
REMARK  3 active torsions:
REMARK  status: ('A' for Active; 'I' for Inactive)
REMARK    1  A    between atoms: C_1  and  C_2
REMARK    2  A    between atoms: C_10  and  N_11
REMARK    3  A    between atoms: C_12  and  C_14
REMARK                            x       y       z     vdW  Elec       q    Type
REMARK                         _______ _______ _______ _____ _____    ______ ____
ROOT
ATOM      1  N   UNL     1       3.695   5.298  17.395  0.00  0.00    +0.000 N 
ATOM      2  C   UNL     1       5.042   5.006  17.498  0.00  0.00    +0.000 C 
ATOM      3  O   UNL     1       5.643   4.835  18.556  0.00  0.00    +0.000 OA
ATOM      4  H   UNL     1       3.435   5.823  16.562  0.00  0.00    +0.000 HD
ENDROOT
BRANCH   1  14
ATOM      5  C   UNL     1       2.918   8.150  18.190  0.00  0.00    +0.000 C 
ATOM      6  C   UNL     1       2.479   6.905  18.923  0.00  0.00    +0.000 A 
ATOM      7  C   UNL     1       1.692   7.099  20.105  0.00  0.00    +0.000 A 
ATOM      8  C   UNL     1       1.250   6.060  20.946  0.00  0.00    +0.000 A 
ATOM      9  C   UNL     1       1.631   4.757  20.565  0.00  0.00    +0.000 A 
ATOM     10  N   UNL     1       1.313   3.624  21.212  0.00  0.00    +0.000 NA
ATOM     11  S   UNL     1       1.989   2.381  20.343  0.00  0.00    +0.000 S 
ATOM     12  N   UNL     1       2.749   3.226  19.134  0.00  0.00    +0.000 NA
ATOM     13  C   UNL     1       2.466   4.525  19.341  0.00  0.00    +0.000 A 
ATOM     14  C   UNL     1       2.874   5.609  18.503  0.00  0.00    +0.000 A 
ENDBRANCH   1  14
BRANCH   2  15
ATOM     15  C   UNL     1       5.822   4.918  16.231  0.00  0.00    +0.000 A 
ATOM     16  C   UNL     1       5.398   3.967  15.288  0.00  0.00    +0.000 A 
ATOM     17  C   UNL     1       6.077   3.824  14.078  0.00  0.00    +0.000 A 
ATOM     18  C   UNL     1       7.173   4.631  13.843  0.00  0.00    +0.000 A 
ATOM     19  N   UNL     1       7.621   5.550  14.724  0.00  0.00    +0.000 NA
ATOM     20  C   UNL     1       6.943   5.667  15.895  0.00  0.00    +0.000 A 
ATOM     21 CL   UNL     1       7.695   6.824  16.923  0.00  0.00    +0.000 Cl
ENDBRANCH   2  15
TORSDOF 2
ENDMDL
MODEL 5
REMARK VINA RESULT:      -6.8      1.124      1.124
REMARK  Name = 
REMARK  3 active torsions:
REMARK  status: ('A' for Active; 'I' for Inactive)
REMARK    1  A    between atoms: C_1  and  C_2
REMARK    2  A    between atoms: C_10  and  N_11
REMARK    3  A    between atoms: C_12  and  C_14
REMARK                            x       y       z     vdW  Elec       q    Type
REMARK                         _______ _______ _______ _____ _____    ______ ____
ROOT
ATOM      1  N   UNL     1       4.748   4.662  18.149  0.00  0.00    +0.000 N 
ATOM      2  C   UNL     1       4.442   4.396  16.828  0.00  0.00    +0.000 C 
ATOM      3  O   UNL     1       3.348   4.010  16.426  0.00  0.00    +0.000 OA
ATOM      4  H   UNL     1       5.730   4.545  18.391  0.00  0.00    +0.000 HD
ENDROOT
BRANCH   1  14
ATOM      5  C   UNL     1       4.528   1.881  19.409  0.00  0.00    +0.000 C 
ATOM      6  C   UNL     1       3.741   3.089  19.855  0.00  0.00    +0.000 A 
ATOM      7  C   UNL     1       2.788   2.884  20.905  0.00  0.00    +0.000 A 
ATOM      8  C   UNL     1       1.925   3.880  21.403  0.00  0.00    +0.000 A 
ATOM      9  C   UNL     1       2.038   5.149  20.798  0.00  0.00    +0.000 A 
ATOM     10  N   UNL     1       1.325   6.239  21.121  0.00  0.00    +0.000 NA
ATOM     11  S   UNL     1       1.856   7.459  20.128  0.00  0.00    +0.000 S 
ATOM     12  N   UNL     1       2.982   6.649  19.218  0.00  0.00    +0.000 NA
ATOM     13  C   UNL     1       3.017   5.388  19.688  0.00  0.00    +0.000 A 
ATOM     14  C   UNL     1       3.890   4.354  19.229  0.00  0.00    +0.000 A 
ENDBRANCH   1  14
BRANCH   2  15
ATOM     15  C   UNL     1       5.531   4.570  15.825  0.00  0.00    +0.000 A 
ATOM     16  C   UNL     1       5.386   3.891  14.604  0.00  0.00    +0.000 A 
ATOM     17  C   UNL     1       6.362   4.004  13.615  0.00  0.00    +0.000 A 
ATOM     18  C   UNL     1       7.470   4.788  13.875  0.00  0.00    +0.000 A 
ATOM     19  N   UNL     1       7.655   5.449  15.036  0.00  0.00    +0.000 NA
ATOM     20  C   UNL     1       6.690   5.320  15.983  0.00  0.00    +0.000 A 
ATOM     21 CL   UNL     1       7.126   6.163  17.418  0.00  0.00    +0.000 Cl
ENDBRANCH   2  15
TORSDOF 2
ENDMDL
MODEL 6
REMARK VINA RESULT:      -6.8      2.204      2.791
REMARK  Name = 
REMARK  3 active torsions:
REMARK  status: ('A' for Active; 'I' for Inactive)
REMARK    1  A    between atoms: C_1  and  C_2
REMARK    2  A    between atoms: C_10  and  N_11
REMARK    3  A    between atoms: C_12  and  C_14
REMARK                            x       y       z     vdW  Elec       q    Type
REMARK                         _______ _______ _______ _____ _____    ______ ____
ROOT
ATOM      1  N   UNL     1       4.497   5.291  17.685  0.00  0.00    +0.000 N 
ATOM      2  C   UNL     1       4.449   4.511  16.545  0.00  0.00    +0.000 C 
ATOM      3  O   UNL     1       3.575   3.686  16.295  0.00  0.00    +0.000 OA
ATOM      4  H   UNL     1       5.432   5.581  17.966  0.00  0.00    +0.000 HD
ENDROOT
BRANCH   1  14
ATOM      5  C   UNL     1       2.392   7.336  18.555  0.00  0.00    +0.000 C 
ATOM      6  C   UNL     1       2.645   6.019  19.247  0.00  0.00    +0.000 A 
ATOM      7  C   UNL     1       1.875   5.753  20.426  0.00  0.00    +0.000 A 
ATOM      8  C   UNL     1       2.021   4.608  21.231  0.00  0.00    +0.000 A 
ATOM      9  C   UNL     1       3.005   3.686  20.816  0.00  0.00    +0.000 A 
ATOM     10  N   UNL     1       3.305   2.529  21.426  0.00  0.00    +0.000 NA
ATOM     11  S   UNL     1       4.510   1.823  20.529  0.00  0.00    +0.000 S 
ATOM     12  N   UNL     1       4.733   2.973  19.353  0.00  0.00    +0.000 NA
ATOM     13  C   UNL     1       3.835   3.945  19.595  0.00  0.00    +0.000 A 
ATOM     14  C   UNL     1       3.637   5.111  18.793  0.00  0.00    +0.000 A 
ENDBRANCH   1  14
BRANCH   2  15
ATOM     15  C   UNL     1       5.557   4.672  15.560  0.00  0.00    +0.000 A 
ATOM     16  C   UNL     1       5.398   4.041  14.315  0.00  0.00    +0.000 A 
ATOM     17  C   UNL     1       6.391   4.144  13.341  0.00  0.00    +0.000 A 
ATOM     18  C   UNL     1       7.527   4.871  13.640  0.00  0.00    +0.000 A 
ATOM     19  N   UNL     1       7.726   5.485  14.824  0.00  0.00    +0.000 NA
ATOM     20  C   UNL     1       6.745   5.366  15.756  0.00  0.00    +0.000 A 
ATOM     21 CL   UNL     1       7.198   6.142  17.223  0.00  0.00    +0.000 Cl
ENDBRANCH   2  15
TORSDOF 2
ENDMDL
MODEL 7
REMARK VINA RESULT:      -6.4      3.395      6.419
REMARK  Name = 
REMARK  3 active torsions:
REMARK  status: ('A' for Active; 'I' for Inactive)
REMARK    1  A    between atoms: C_1  and  C_2
REMARK    2  A    between atoms: C_10  and  N_11
REMARK    3  A    between atoms: C_12  and  C_14
REMARK                            x       y       z     vdW  Elec       q    Type
REMARK                         _______ _______ _______ _____ _____    ______ ____
ROOT
ATOM      1  N   UNL     1       2.850   6.913  18.334  0.00  0.00    +0.000 N 
ATOM      2  C   UNL     1       2.418   6.962  19.646  0.00  0.00    +0.000 C 
ATOM      3  O   UNL     1       2.674   6.118  20.500  0.00  0.00    +0.000 OA
ATOM      4  H   UNL     1       2.246   7.391  17.668  0.00  0.00    +0.000 HD
ENDROOT
BRANCH   1  14
ATOM      5  C   UNL     1       1.461   4.242  17.783  0.00  0.00    +0.000 C 
ATOM      6  C   UNL     1       2.912   4.532  17.485  0.00  0.00    +0.000 A 
ATOM      7  C   UNL     1       3.690   3.448  16.962  0.00  0.00    +0.000 A 
ATOM      8  C   UNL     1       5.069   3.518  16.686  0.00  0.00    +0.000 A 
ATOM      9  C   UNL     1       5.688   4.755  16.959  0.00  0.00    +0.000 A 
ATOM     10  N   UNL     1       6.984   5.046  16.764  0.00  0.00    +0.000 NA
ATOM     11  S   UNL     1       7.186   6.627  17.226  0.00  0.00    +0.000 S 
ATOM     12  N   UNL     1       5.651   7.000  17.734  0.00  0.00    +0.000 NA
ATOM     13  C   UNL     1       4.902   5.902  17.520  0.00  0.00    +0.000 A 
ATOM     14  C   UNL     1       3.498   5.794  17.764  0.00  0.00    +0.000 A 
ENDBRANCH   1  14
BRANCH   2  15
ATOM     15  C   UNL     1       1.559   8.114  20.041  0.00  0.00    +0.000 A 
ATOM     16  C   UNL     1       0.925   8.035  21.293  0.00  0.00    +0.000 A 
ATOM     17  C   UNL     1       0.104   9.073  21.733  0.00  0.00    +0.000 A 
ATOM     18  C   UNL     1      -0.072  10.165  20.904  0.00  0.00    +0.000 A 
ATOM     19  N   UNL     1       0.508  10.278  19.691  0.00  0.00    +0.000 NA
ATOM     20  C   UNL     1       1.301   9.251  19.286  0.00  0.00    +0.000 A 
ATOM     21 CL   UNL     1       1.891   9.528  17.694  0.00  0.00    +0.000 Cl
ENDBRANCH   2  15
TORSDOF 2
ENDMDL
MODEL 8
REMARK VINA RESULT:      -6.3      3.568      5.607
REMARK  Name = 
REMARK  3 active torsions:
REMARK  status: ('A' for Active; 'I' for Inactive)
REMARK    1  A    between atoms: C_1  and  C_2
REMARK    2  A    between atoms: C_10  and  N_11
REMARK    3  A    between atoms: C_12  and  C_14
REMARK                            x       y       z     vdW  Elec       q    Type
REMARK                         _______ _______ _______ _____ _____    ______ ____
ROOT
ATOM      1  N   UNL     1       2.751   6.587  19.757  0.00  0.00    +0.000 N 
ATOM      2  C   UNL     1       2.443   5.367  19.185  0.00  0.00    +0.000 C 
ATOM      3  O   UNL     1       1.765   5.219  18.172  0.00  0.00    +0.000 OA
ATOM      4  H   UNL     1       2.921   6.557  20.760  0.00  0.00    +0.000 HD
ENDROOT
BRANCH   1  14
ATOM      5  C   UNL     1       3.451   8.000  17.133  0.00  0.00    +0.000 C 
ATOM      6  C   UNL     1       2.459   8.516  18.147  0.00  0.00    +0.000 A 
ATOM      7  C   UNL     1       1.858   9.787  17.869  0.00  0.00    +0.000 A 
ATOM      8  C   UNL     1       0.962  10.449  18.730  0.00  0.00    +0.000 A 
ATOM      9  C   UNL     1       0.664   9.782  19.937  0.00  0.00    +0.000 A 
ATOM     10  N   UNL     1      -0.168  10.224  20.894  0.00  0.00    +0.000 NA
ATOM     11  S   UNL     1      -0.175   9.065  22.082  0.00  0.00    +0.000 S 
ATOM     12  N   UNL     1       0.907   7.973  21.456  0.00  0.00    +0.000 NA
ATOM     13  C   UNL     1       1.289   8.459  20.260  0.00  0.00    +0.000 A 
ATOM     14  C   UNL     1       2.177   7.812  19.346  0.00  0.00    +0.000 A 
ENDBRANCH   1  14
BRANCH   2  15
ATOM     15  C   UNL     1       2.956   4.144  19.865  0.00  0.00    +0.000 A 
ATOM     16  C   UNL     1       2.180   3.629  20.917  0.00  0.00    +0.000 A 
ATOM     17  C   UNL     1       2.593   2.487  21.603  0.00  0.00    +0.000 A 
ATOM     18  C   UNL     1       3.781   1.891  21.226  0.00  0.00    +0.000 A 
ATOM     19  N   UNL     1       4.562   2.356  20.229  0.00  0.00    +0.000 NA
ATOM     20  C   UNL     1       4.137   3.471  19.579  0.00  0.00    +0.000 A 
ATOM     21 CL   UNL     1       5.287   3.964  18.399  0.00  0.00    +0.000 Cl
ENDBRANCH   2  15
TORSDOF 2
ENDMDL
MODEL 9
REMARK VINA RESULT:      -6.3      2.623      3.364
REMARK  Name = 
REMARK  3 active torsions:
REMARK  status: ('A' for Active; 'I' for Inactive)
REMARK    1  A    between atoms: C_1  and  C_2
REMARK    2  A    between atoms: C_10  and  N_11
REMARK    3  A    between atoms: C_12  and  C_14
REMARK                            x       y       z     vdW  Elec       q    Type
REMARK                         _______ _______ _______ _____ _____    ______ ____
ROOT
ATOM      1  N   UNL     1       3.035   6.090  18.209  0.00  0.00    +0.000 N 
ATOM      2  C   UNL     1       4.364   5.727  18.320  0.00  0.00    +0.000 C 
ATOM      3  O   UNL     1       5.053   5.886  19.324  0.00  0.00    +0.000 OA
ATOM      4  H   UNL     1       2.729   6.306  17.263  0.00  0.00    +0.000 HD
ENDROOT
BRANCH   1  14
ATOM      5  C   UNL     1       1.992   4.940  20.847  0.00  0.00    +0.000 C 
ATOM      6  C   UNL     1       1.840   6.379  20.420  0.00  0.00    +0.000 A 
ATOM      7  C   UNL     1       1.101   7.237  21.299  0.00  0.00    +0.000 A 
ATOM      8  C   UNL     1       0.808   8.588  21.032  0.00  0.00    +0.000 A 
ATOM      9  C   UNL     1       1.290   9.091  19.806  0.00  0.00    +0.000 A 
ATOM     10  N   UNL     1       1.135  10.346  19.356  0.00  0.00    +0.000 NA
ATOM     11  S   UNL     1       1.900  10.416  17.884  0.00  0.00    +0.000 S 
ATOM     12  N   UNL     1       2.424   8.849  17.734  0.00  0.00    +0.000 NA
ATOM     13  C   UNL     1       2.053   8.213  18.860  0.00  0.00    +0.000 A 
ATOM     14  C   UNL     1       2.348   6.852  19.182  0.00  0.00    +0.000 A 
ENDBRANCH   1  14
BRANCH   2  15
ATOM     15  C   UNL     1       5.009   5.119  17.122  0.00  0.00    +0.000 A 
ATOM     16  C   UNL     1       5.768   5.974  16.305  0.00  0.00    +0.000 A 
ATOM     17  C   UNL     1       6.402   5.480  15.165  0.00  0.00    +0.000 A 
ATOM     18  C   UNL     1       6.253   4.140  14.862  0.00  0.00    +0.000 A 
ATOM     19  N   UNL     1       5.526   3.285  15.612  0.00  0.00    +0.000 NA
ATOM     20  C   UNL     1       4.917   3.793  16.715  0.00  0.00    +0.000 A 
ATOM     21 CL   UNL     1       3.976   2.587  17.502  0.00  0.00    +0.000 Cl
ENDBRANCH   2  15
TORSDOF 2
ENDMDL
