MODEL 1
REMARK VINA RESULT:      -7.1      0.000      0.000
REMARK  Name = 
REMARK  8 active torsions:
REMARK  status: ('A' for Active; 'I' for Inactive)
REMARK    1  A    between atoms: C_1  and  C_2
REMARK    2  A    between atoms: C_4  and  C_5
REMARK    3  A    between atoms: C_6  and  C_7
REMARK    4  A    between atoms: C_13  and  C_14
REMARK    5  A    between atoms: C_16  and  O_17
REMARK    6  A    between atoms: C_19  and  C_20
REMARK    7  A    between atoms: C_20  and  C_21
REMARK    8  A    between atoms: C_20  and  C_22
REMARK                            x       y       z     vdW  Elec       q    Type
REMARK                         _______ _______ _______ _____ _____    ______ ____
ROOT
ATOM      1  C   UNL     1       3.110   6.024  19.523  0.00  0.00    +0.000 C 
ATOM      2  O   UNL     1       4.182   5.962  20.126  0.00  0.00    +0.000 OA
ATOM      3  N   UNL     1       2.768   4.979  18.668  0.00  0.00    +0.000 N 
ATOM      4  C   UNL     1       1.682   4.837  17.715  0.00  0.00    +0.000 C 
ATOM      5  C   UNL     1       1.478   3.334  17.675  0.00  0.00    +0.000 C 
ATOM      6  C   UNL     1       2.899   2.787  17.729  0.00  0.00    +0.000 C 
ATOM      7  C   UNL     1       3.699   3.849  18.510  0.00  0.00    +0.000 C 
ENDROOT
BRANCH   1  13
ATOM      8  C   UNL     1      -0.220   9.740  21.306  0.00  0.00    +0.000 C 
ATOM      9  C   UNL     1       0.744   8.930  20.515  0.00  0.00    +0.000 A 
ATOM     10  N   UNL     1       1.156   9.222  19.304  0.00  0.00    +0.000 NA
ATOM     11  C   UNL     1       2.052   8.255  18.861  0.00  0.00    +0.000 A 
ATOM     12  C   UNL     1       2.719   8.480  17.549  0.00  0.00    +0.000 C 
ATOM     13  C   UNL     1       2.230   7.171  19.719  0.00  0.00    +0.000 A 
ATOM     14  S   UNL     1       1.430   7.523  21.196  0.00  0.00    +0.000 S 
ENDBRANCH   1  13
BRANCH   7  15
ATOM     15  C   UNL     1       4.980   4.185  17.747  0.00  0.00    +0.000 A 
ATOM     16  N   UNL     1       6.129   4.217  18.449  0.00  0.00    +0.000 NA
ATOM     17  C   UNL     1       7.222   4.472  17.726  0.00  0.00    +0.000 A 
ATOM     18  C   UNL     1       7.262   4.680  16.374  0.00  0.00    +0.000 A 
ATOM     19  C   UNL     1       6.047   4.607  15.730  0.00  0.00    +0.000 A 
ATOM     20  N   UNL     1       4.906   4.330  16.401  0.00  0.00    +0.000 NA
BRANCH  19  21
ATOM     21  C   UNL     1       5.968   4.785  14.225  0.00  0.00    +0.000 C 
ATOM     22  C   UNL     1       7.366   4.979  13.637  0.00  0.00    +0.000 C 
ATOM     23  C   UNL     1       5.260   3.612  13.538  0.00  0.00    +0.000 C 
ENDBRANCH  19  21
BRANCH  17  24
ATOM     24  O   UNL     1       8.368   4.508  18.455  0.00  0.00    +0.000 OA
ATOM     25  H   UNL     1       8.875   5.168  17.948  0.00  0.00    +0.000 HD
ENDBRANCH  17  24
ENDBRANCH   7  15
TORSDOF 4
ENDMDL
MODEL 2
REMARK VINA RESULT:      -6.8      1.357      2.373
REMARK  Name = 
REMARK  8 active torsions:
REMARK  status: ('A' for Active; 'I' for Inactive)
REMARK    1  A    between atoms: C_1  and  C_2
REMARK    2  A    between atoms: C_4  and  C_5
REMARK    3  A    between atoms: C_6  and  C_7
REMARK    4  A    between atoms: C_13  and  C_14
REMARK    5  A    between atoms: C_16  and  O_17
REMARK    6  A    between atoms: C_19  and  C_20
REMARK    7  A    between atoms: C_20  and  C_21
REMARK    8  A    between atoms: C_20  and  C_22
REMARK                            x       y       z     vdW  Elec       q    Type
REMARK                         _______ _______ _______ _____ _____    ______ ____
ROOT
ATOM      1  C   UNL     1       3.083   5.914  19.493  0.00  0.00    +0.000 C 
ATOM      2  O   UNL     1       4.183   5.850  20.044  0.00  0.00    +0.000 OA
ATOM      3  N   UNL     1       2.687   4.858  18.677  0.00  0.00    +0.000 N 
ATOM      4  C   UNL     1       1.553   4.713  17.780  0.00  0.00    +0.000 C 
ATOM      5  C   UNL     1       1.328   3.213  17.779  0.00  0.00    +0.000 C 
ATOM      6  C   UNL     1       2.744   2.648  17.774  0.00  0.00    +0.000 C 
ATOM      7  C   UNL     1       3.595   3.713  18.494  0.00  0.00    +0.000 C 
ENDROOT
BRANCH   1  13
ATOM      8  C   UNL     1      -0.174   9.664  21.339  0.00  0.00    +0.000 C 
ATOM      9  C   UNL     1       0.776   8.850  20.537  0.00  0.00    +0.000 A 
ATOM     10  N   UNL     1       1.203   9.161  19.335  0.00  0.00    +0.000 NA
ATOM     11  C   UNL     1       2.081   8.183  18.876  0.00  0.00    +0.000 A 
ATOM     12  C   UNL     1       2.761   8.423  17.573  0.00  0.00    +0.000 C 
ATOM     13  C   UNL     1       2.228   7.077  19.709  0.00  0.00    +0.000 A 
ATOM     14  S   UNL     1       1.425   7.413  21.189  0.00  0.00    +0.000 S 
ENDBRANCH   1  13
BRANCH   7  15
ATOM     15  C   UNL     1       4.841   4.019  17.664  0.00  0.00    +0.000 A 
ATOM     16  N   UNL     1       4.887   3.526  16.412  0.00  0.00    +0.000 NA
ATOM     17  C   UNL     1       5.976   3.859  15.716  0.00  0.00    +0.000 A 
ATOM     18  C   UNL     1       7.003   4.649  16.159  0.00  0.00    +0.000 A 
ATOM     19  C   UNL     1       6.866   5.130  17.442  0.00  0.00    +0.000 A 
ATOM     20  N   UNL     1       5.776   4.847  18.191  0.00  0.00    +0.000 NA
BRANCH  19  21
ATOM     21  C   UNL     1       7.923   6.044  18.032  0.00  0.00    +0.000 C 
ATOM     22  C   UNL     1       7.638   7.499  17.659  0.00  0.00    +0.000 C 
ATOM     23  C   UNL     1       8.035   5.897  19.553  0.00  0.00    +0.000 C 
ENDBRANCH  19  21
BRANCH  17  24
ATOM     24  O   UNL     1       6.007   3.344  14.460  0.00  0.00    +0.000 OA
ATOM     25  H   UNL     1       5.336   2.642  14.544  0.00  0.00    +0.000 HD
ENDBRANCH  17  24
ENDBRANCH   7  15
TORSDOF 4
ENDMDL
MODEL 3
REMARK VINA RESULT:      -6.8      3.622      6.071
REMARK  Name = 
REMARK  8 active torsions:
REMARK  status: ('A' for Active; 'I' for Inactive)
REMARK    1  A    between atoms: C_1  and  C_2
REMARK    2  A    between atoms: C_4  and  C_5
REMARK    3  A    between atoms: C_6  and  C_7
REMARK    4  A    between atoms: C_13  and  C_14
REMARK    5  A    between atoms: C_16  and  O_17
REMARK    6  A    between atoms: C_19  and  C_20
REMARK    7  A    between atoms: C_20  and  C_21
REMARK    8  A    between atoms: C_20  and  C_22
REMARK                            x       y       z     vdW  Elec       q    Type
REMARK                         _______ _______ _______ _____ _____    ______ ____
ROOT
ATOM      1  C   UNL     1       0.384   9.954  18.828  0.00  0.00    +0.000 C 
ATOM      2  O   UNL     1       1.363   9.844  18.088  0.00  0.00    +0.000 OA
ATOM      3  N   UNL     1       0.477   9.466  20.129  0.00  0.00    +0.000 N 
ATOM      4  C   UNL     1      -0.529   9.299  21.164  0.00  0.00    +0.000 C 
ATOM      5  C   UNL     1       0.291   9.414  22.436  0.00  0.00    +0.000 C 
ATOM      6  C   UNL     1       1.573   8.664  22.093  0.00  0.00    +0.000 C 
ATOM      7  C   UNL     1       1.731   8.831  20.569  0.00  0.00    +0.000 C 
ENDROOT
BRANCH   1  13
ATOM      8  C   UNL     1      -4.194  11.236  16.489  0.00  0.00    +0.000 C 
ATOM      9  C   UNL     1      -2.963  11.201  17.321  0.00  0.00    +0.000 A 
ATOM     10  N   UNL     1      -2.558  12.173  18.106  0.00  0.00    +0.000 NA
ATOM     11  C   UNL     1      -1.372  11.809  18.736  0.00  0.00    +0.000 A 
ATOM     12  C   UNL     1      -0.820  12.741  19.758  0.00  0.00    +0.000 C 
ATOM     13  C   UNL     1      -0.833  10.589  18.334  0.00  0.00    +0.000 A 
ATOM     14  S   UNL     1      -1.981   9.805  17.328  0.00  0.00    +0.000 S 
ENDBRANCH   1  13
BRANCH   7  15
ATOM     15  C   UNL     1       2.009   7.470  19.932  0.00  0.00    +0.000 A 
ATOM     16  N   UNL     1       2.837   7.440  18.871  0.00  0.00    +0.000 NA
ATOM     17  C   UNL     1       3.080   6.222  18.382  0.00  0.00    +0.000 A 
ATOM     18  C   UNL     1       2.583   5.044  18.872  0.00  0.00    +0.000 A 
ATOM     19  C   UNL     1       1.764   5.163  19.973  0.00  0.00    +0.000 A 
ATOM     20  N   UNL     1       1.496   6.366  20.529  0.00  0.00    +0.000 NA
BRANCH  19  21
ATOM     21  C   UNL     1       1.180   3.925  20.627  0.00  0.00    +0.000 C 
ATOM     22  C   UNL     1       0.826   2.879  19.570  0.00  0.00    +0.000 C 
ATOM     23  C   UNL     1       2.122   3.323  21.676  0.00  0.00    +0.000 C 
ENDBRANCH  19  21
BRANCH  17  24
ATOM     24  O   UNL     1       3.910   6.215  17.306  0.00  0.00    +0.000 OA
ATOM     25  H   UNL     1       4.160   7.156  17.275  0.00  0.00    +0.000 HD
ENDBRANCH  17  24
ENDBRANCH   7  15
TORSDOF 4
ENDMDL
MODEL 4
REMARK VINA RESULT:      -6.6      1.199      1.483
REMARK  Name = 
REMARK  8 active torsions:
REMARK  status: ('A' for Active; 'I' for Inactive)
REMARK    1  A    between atoms: C_1  and  C_2
REMARK    2  A    between atoms: C_4  and  C_5
REMARK    3  A    between atoms: C_6  and  C_7
REMARK    4  A    between atoms: C_13  and  C_14
REMARK    5  A    between atoms: C_16  and  O_17
REMARK    6  A    between atoms: C_19  and  C_20
REMARK    7  A    between atoms: C_20  and  C_21
REMARK    8  A    between atoms: C_20  and  C_22
REMARK                            x       y       z     vdW  Elec       q    Type
REMARK                         _______ _______ _______ _____ _____    ______ ____
ROOT
ATOM      1  C   UNL     1       3.666   5.703  18.990  0.00  0.00    +0.000 C 
ATOM      2  O   UNL     1       4.855   5.889  19.255  0.00  0.00    +0.000 OA
ATOM      3  N   UNL     1       3.320   4.573  18.253  0.00  0.00    +0.000 N 
ATOM      4  C   UNL     1       2.060   4.169  17.653  0.00  0.00    +0.000 C 
ATOM      5  C   UNL     1       2.171   2.656  17.650  0.00  0.00    +0.000 C 
ATOM      6  C   UNL     1       3.630   2.414  17.281  0.00  0.00    +0.000 C 
ATOM      7  C   UNL     1       4.381   3.651  17.813  0.00  0.00    +0.000 C 
ENDROOT
BRANCH   1  13
ATOM      8  C   UNL     1      -0.028   8.458  21.603  0.00  0.00    +0.000 C 
ATOM      9  C   UNL     1       1.000   7.980  20.641  0.00  0.00    +0.000 A 
ATOM     10  N   UNL     1       1.331   8.593  19.528  0.00  0.00    +0.000 NA
ATOM     11  C   UNL     1       2.323   7.874  18.869  0.00  0.00    +0.000 A 
ATOM     12  C   UNL     1       2.912   8.477  17.641  0.00  0.00    +0.000 C 
ATOM     13  C   UNL     1       2.661   6.654  19.451  0.00  0.00    +0.000 A 
ATOM     14  S   UNL     1       1.875   6.553  20.973  0.00  0.00    +0.000 S 
ENDBRANCH   1  13
BRANCH   7  15
ATOM     15  C   UNL     1       5.289   4.207  16.718  0.00  0.00    +0.000 A 
ATOM     16  N   UNL     1       6.133   5.200  17.057  0.00  0.00    +0.000 NA
ATOM     17  C   UNL     1       6.934   5.618  16.074  0.00  0.00    +0.000 A 
ATOM     18  C   UNL     1       6.971   5.120  14.800  0.00  0.00    +0.000 A 
ATOM     19  C   UNL     1       6.092   4.091  14.544  0.00  0.00    +0.000 A 
ATOM     20  N   UNL     1       5.270   3.606  15.502  0.00  0.00    +0.000 NA
BRANCH  19  21
ATOM     21  C   UNL     1       6.065   3.433  13.177  0.00  0.00    +0.000 C 
ATOM     22  C   UNL     1       4.683   3.581  12.540  0.00  0.00    +0.000 C 
ATOM     23  C   UNL     1       7.144   3.990  12.242  0.00  0.00    +0.000 C 
ENDBRANCH  19  21
BRANCH  17  24
ATOM     24  O   UNL     1       7.770   6.626  16.436  0.00  0.00    +0.000 OA
ATOM     25  H   UNL     1       8.394   6.610  15.689  0.00  0.00    +0.000 HD
ENDBRANCH  17  24
ENDBRANCH   7  15
TORSDOF 4
ENDMDL
MODEL 5
REMARK VINA RESULT:      -6.6      4.978      8.021
REMARK  Name = 
REMARK  8 active torsions:
REMARK  status: ('A' for Active; 'I' for Inactive)
REMARK    1  A    between atoms: C_1  and  C_2
REMARK    2  A    between atoms: C_4  and  C_5
REMARK    3  A    between atoms: C_6  and  C_7
REMARK    4  A    between atoms: C_13  and  C_14
REMARK    5  A    between atoms: C_16  and  O_17
REMARK    6  A    between atoms: C_19  and  C_20
REMARK    7  A    between atoms: C_20  and  C_21
REMARK    8  A    between atoms: C_20  and  C_22
REMARK                            x       y       z     vdW  Elec       q    Type
REMARK                         _______ _______ _______ _____ _____    ______ ____
ROOT
ATOM      1  C   UNL     1      -1.603  10.821  17.932  0.00  0.00    +0.000 C 
ATOM      2  O   UNL     1      -1.205   9.700  17.612  0.00  0.00    +0.000 OA
ATOM      3  N   UNL     1      -0.682  11.732  18.442  0.00  0.00    +0.000 N 
ATOM      4  C   UNL     1      -0.862  13.039  19.050  0.00  0.00    +0.000 C 
ATOM      5  C   UNL     1       0.449  13.731  18.727  0.00  0.00    +0.000 C 
ATOM      6  C   UNL     1       1.482  12.627  18.912  0.00  0.00    +0.000 C 
ATOM      7  C   UNL     1       0.726  11.323  18.588  0.00  0.00    +0.000 C 
ENDROOT
BRANCH   1  13
ATOM      8  C   UNL     1      -6.635  12.393  18.460  0.00  0.00    +0.000 C 
ATOM      9  C   UNL     1      -5.318  11.929  17.952  0.00  0.00    +0.000 A 
ATOM     10  N   UNL     1      -5.071  11.578  16.711  0.00  0.00    +0.000 NA
ATOM     11  C   UNL     1      -3.740  11.198  16.581  0.00  0.00    +0.000 A 
ATOM     12  C   UNL     1      -3.244  10.878  15.214  0.00  0.00    +0.000 C 
ATOM     13  C   UNL     1      -3.011  11.167  17.768  0.00  0.00    +0.000 A 
ATOM     14  S   UNL     1      -3.976  11.861  19.005  0.00  0.00    +0.000 S 
ENDBRANCH   1  13
BRANCH   7  15
ATOM     15  C   UNL     1       0.976  10.299  19.695  0.00  0.00    +0.000 A 
ATOM     16  N   UNL     1       0.561  10.613  20.936  0.00  0.00    +0.000 NA
ATOM     17  C   UNL     1       0.765   9.666  21.854  0.00  0.00    +0.000 A 
ATOM     18  C   UNL     1       1.329   8.439  21.632  0.00  0.00    +0.000 A 
ATOM     19  C   UNL     1       1.705   8.189  20.331  0.00  0.00    +0.000 A 
ATOM     20  N   UNL     1       1.506   9.098  19.350  0.00  0.00    +0.000 NA
BRANCH  19  21
ATOM     21  C   UNL     1       2.310   6.850  19.954  0.00  0.00    +0.000 C 
ATOM     22  C   UNL     1       1.515   5.708  20.587  0.00  0.00    +0.000 C 
ATOM     23  C   UNL     1       2.399   6.659  18.436  0.00  0.00    +0.000 C 
ENDBRANCH  19  21
BRANCH  17  24
ATOM     24  O   UNL     1       0.346  10.007  23.100  0.00  0.00    +0.000 OA
ATOM     25  H   UNL     1       0.040  10.918  22.937  0.00  0.00    +0.000 HD
ENDBRANCH  17  24
ENDBRANCH   7  15
TORSDOF 4
ENDMDL
MODEL 6
REMARK VINA RESULT:      -6.5      1.597      2.173
REMARK  Name = 
REMARK  8 active torsions:
REMARK  status: ('A' for Active; 'I' for Inactive)
REMARK    1  A    between atoms: C_1  and  C_2
REMARK    2  A    between atoms: C_4  and  C_5
REMARK    3  A    between atoms: C_6  and  C_7
REMARK    4  A    between atoms: C_13  and  C_14
REMARK    5  A    between atoms: C_16  and  O_17
REMARK    6  A    between atoms: C_19  and  C_20
REMARK    7  A    between atoms: C_20  and  C_21
REMARK    8  A    between atoms: C_20  and  C_22
REMARK                            x       y       z     vdW  Elec       q    Type
REMARK                         _______ _______ _______ _____ _____    ______ ____
ROOT
ATOM      1  C   UNL     1       3.922   5.420  18.935  0.00  0.00    +0.000 C 
ATOM      2  O   UNL     1       5.123   5.599  19.142  0.00  0.00    +0.000 OA
ATOM      3  N   UNL     1       3.537   4.325  18.166  0.00  0.00    +0.000 N 
ATOM      4  C   UNL     1       2.247   3.944  17.619  0.00  0.00    +0.000 C 
ATOM      5  C   UNL     1       2.360   2.433  17.537  0.00  0.00    +0.000 C 
ATOM      6  C   UNL     1       3.797   2.216  17.076  0.00  0.00    +0.000 C 
ATOM      7  C   UNL     1       4.574   3.430  17.624  0.00  0.00    +0.000 C 
ENDROOT
BRANCH   1  13
ATOM      8  C   UNL     1       0.676   9.451  20.070  0.00  0.00    +0.000 C 
ATOM      9  C   UNL     1       1.395   8.151  20.024  0.00  0.00    +0.000 A 
ATOM     10  N   UNL     1       1.204   7.155  20.858  0.00  0.00    +0.000 NA
ATOM     11  C   UNL     1       2.041   6.094  20.529  0.00  0.00    +0.000 A 
ATOM     12  C   UNL     1       1.882   4.827  21.295  0.00  0.00    +0.000 C 
ATOM     13  C   UNL     1       2.942   6.343  19.496  0.00  0.00    +0.000 A 
ATOM     14  S   UNL     1       2.542   7.857  18.794  0.00  0.00    +0.000 S 
ENDBRANCH   1  13
BRANCH   7  15
ATOM     15  C   UNL     1       5.418   4.042  16.507  0.00  0.00    +0.000 A 
ATOM     16  N   UNL     1       6.240   5.056  16.836  0.00  0.00    +0.000 NA
ATOM     17  C   UNL     1       6.986   5.524  15.833  0.00  0.00    +0.000 A 
ATOM     18  C   UNL     1       6.990   5.055  14.547  0.00  0.00    +0.000 A 
ATOM     19  C   UNL     1       6.138   4.002  14.301  0.00  0.00    +0.000 A 
ATOM     20  N   UNL     1       5.371   3.468  15.279  0.00  0.00    +0.000 NA
BRANCH  19  21
ATOM     21  C   UNL     1       6.079   3.373  12.922  0.00  0.00    +0.000 C 
ATOM     22  C   UNL     1       4.686   3.545  12.316  0.00  0.00    +0.000 C 
ATOM     23  C   UNL     1       7.144   3.943  11.978  0.00  0.00    +0.000 C 
ENDBRANCH  19  21
BRANCH  17  24
ATOM     24  O   UNL     1       7.800   6.553  16.186  0.00  0.00    +0.000 OA
ATOM     25  H   UNL     1       8.512   6.443  15.529  0.00  0.00    +0.000 HD
ENDBRANCH  17  24
ENDBRANCH   7  15
TORSDOF 4
ENDMDL
MODEL 7
REMARK VINA RESULT:      -6.3      3.091      5.840
REMARK  Name = 
REMARK  8 active torsions:
REMARK  status: ('A' for Active; 'I' for Inactive)
REMARK    1  A    between atoms: C_1  and  C_2
REMARK    2  A    between atoms: C_4  and  C_5
REMARK    3  A    between atoms: C_6  and  C_7
REMARK    4  A    between atoms: C_13  and  C_14
REMARK    5  A    between atoms: C_16  and  O_17
REMARK    6  A    between atoms: C_19  and  C_20
REMARK    7  A    between atoms: C_20  and  C_21
REMARK    8  A    between atoms: C_20  and  C_22
REMARK                            x       y       z     vdW  Elec       q    Type
REMARK                         _______ _______ _______ _____ _____    ______ ____
ROOT
ATOM      1  C   UNL     1       5.698   6.535  17.263  0.00  0.00    +0.000 C 
ATOM      2  O   UNL     1       4.558   6.833  17.621  0.00  0.00    +0.000 OA
ATOM      3  N   UNL     1       5.863   5.451  16.405  0.00  0.00    +0.000 N 
ATOM      4  C   UNL     1       7.058   4.764  15.947  0.00  0.00    +0.000 C 
ATOM      5  C   UNL     1       6.625   4.221  14.598  0.00  0.00    +0.000 C 
ATOM      6  C   UNL     1       5.191   3.770  14.848  0.00  0.00    +0.000 C 
ATOM      7  C   UNL     1       4.676   4.696  15.967  0.00  0.00    +0.000 C 
ENDROOT
BRANCH   1  13
ATOM      8  C   UNL     1       9.309  10.248  18.383  0.00  0.00    +0.000 C 
ATOM      9  C   UNL     1       8.491   9.008  18.317  0.00  0.00    +0.000 A 
ATOM     10  N   UNL     1       8.776   7.886  18.937  0.00  0.00    +0.000 NA
ATOM     11  C   UNL     1       7.804   6.931  18.658  0.00  0.00    +0.000 A 
ATOM     12  C   UNL     1       7.894   5.626  19.368  0.00  0.00    +0.000 C 
ATOM     13  C   UNL     1       6.836   7.318  17.733  0.00  0.00    +0.000 A 
ATOM     14  S   UNL     1       7.044   8.992  17.414  0.00  0.00    +0.000 S 
ENDBRANCH   1  13
BRANCH   7  15
ATOM     15  C   UNL     1       4.019   3.858  17.062  0.00  0.00    +0.000 A 
ATOM     16  N   UNL     1       4.459   2.596  17.225  0.00  0.00    +0.000 NA
ATOM     17  C   UNL     1       3.882   1.923  18.223  0.00  0.00    +0.000 A 
ATOM     18  C   UNL     1       2.924   2.408  19.072  0.00  0.00    +0.000 A 
ATOM     19  C   UNL     1       2.547   3.714  18.851  0.00  0.00    +0.000 A 
ATOM     20  N   UNL     1       3.109   4.457  17.871  0.00  0.00    +0.000 NA
BRANCH  19  21
ATOM     21  C   UNL     1       1.518   4.374  19.749  0.00  0.00    +0.000 C 
ATOM     22  C   UNL     1       1.106   3.427  20.876  0.00  0.00    +0.000 C 
ATOM     23  C   UNL     1       2.019   5.702  20.328  0.00  0.00    +0.000 C 
ENDBRANCH  19  21
BRANCH  17  24
ATOM     24  O   UNL     1       4.335   0.650  18.364  0.00  0.00    +0.000 OA
ATOM     25  H   UNL     1       4.924   0.759  19.132  0.00  0.00    +0.000 HD
ENDBRANCH  17  24
ENDBRANCH   7  15
TORSDOF 4
ENDMDL
MODEL 8
REMARK VINA RESULT:      -6.3      1.157      1.469
REMARK  Name = 
REMARK  8 active torsions:
REMARK  status: ('A' for Active; 'I' for Inactive)
REMARK    1  A    between atoms: C_1  and  C_2
REMARK    2  A    between atoms: C_4  and  C_5
REMARK    3  A    between atoms: C_6  and  C_7
REMARK    4  A    between atoms: C_13  and  C_14
REMARK    5  A    between atoms: C_16  and  O_17
REMARK    6  A    between atoms: C_19  and  C_20
REMARK    7  A    between atoms: C_20  and  C_21
REMARK    8  A    between atoms: C_20  and  C_22
REMARK                            x       y       z     vdW  Elec       q    Type
REMARK                         _______ _______ _______ _____ _____    ______ ____
ROOT
ATOM      1  C   UNL     1       3.302   6.323  19.105  0.00  0.00    +0.000 C 
ATOM      2  O   UNL     1       4.396   6.300  19.672  0.00  0.00    +0.000 OA
ATOM      3  N   UNL     1       2.897   5.194  18.398  0.00  0.00    +0.000 N 
ATOM      4  C   UNL     1       1.770   4.974  17.509  0.00  0.00    +0.000 C 
ATOM      5  C   UNL     1       1.521   3.485  17.660  0.00  0.00    +0.000 C 
ATOM      6  C   UNL     1       2.928   2.902  17.729  0.00  0.00    +0.000 C 
ATOM      7  C   UNL     1       3.789   4.023  18.345  0.00  0.00    +0.000 C 
ENDROOT
BRANCH   1  13
ATOM      8  C   UNL     1       0.662  10.852  18.335  0.00  0.00    +0.000 C 
ATOM      9  C   UNL     1       1.190   9.564  18.858  0.00  0.00    +0.000 A 
ATOM     10  N   UNL     1       0.863   9.029  20.011  0.00  0.00    +0.000 NA
ATOM     11  C   UNL     1       1.540   7.827  20.185  0.00  0.00    +0.000 A 
ATOM     12  C   UNL     1       1.206   7.015  21.388  0.00  0.00    +0.000 C 
ATOM     13  C   UNL     1       2.464   7.514  19.191  0.00  0.00    +0.000 A 
ATOM     14  S   UNL     1       2.280   8.648  17.916  0.00  0.00    +0.000 S 
ENDBRANCH   1  13
BRANCH   7  15
ATOM     15  C   UNL     1       5.047   4.222  17.501  0.00  0.00    +0.000 A 
ATOM     16  N   UNL     1       6.234   4.143  18.130  0.00  0.00    +0.000 NA
ATOM     17  C   UNL     1       7.300   4.281  17.338  0.00  0.00    +0.000 A 
ATOM     18  C   UNL     1       7.277   4.472  15.983  0.00  0.00    +0.000 A 
ATOM     19  C   UNL     1       6.023   4.517  15.416  0.00  0.00    +0.000 A 
ATOM     20  N   UNL     1       4.904   4.363  16.159  0.00  0.00    +0.000 NA
BRANCH  19  21
ATOM     21  C   UNL     1       5.869   4.690  13.917  0.00  0.00    +0.000 C 
ATOM     22  C   UNL     1       7.228   4.953  13.267  0.00  0.00    +0.000 C 
ATOM     23  C   UNL     1       5.189   3.484  13.260  0.00  0.00    +0.000 C 
ENDBRANCH  19  21
BRANCH  17  24
ATOM     24  O   UNL     1       8.487   4.207  17.995  0.00  0.00    +0.000 OA
ATOM     25  H   UNL     1       8.687   3.260  17.886  0.00  0.00    +0.000 HD
ENDBRANCH  17  24
ENDBRANCH   7  15
TORSDOF 4
ENDMDL
MODEL 9
REMARK VINA RESULT:      -6.1      3.237      5.529
REMARK  Name = 
REMARK  8 active torsions:
REMARK  status: ('A' for Active; 'I' for Inactive)
REMARK    1  A    between atoms: C_1  and  C_2
REMARK    2  A    between atoms: C_4  and  C_5
REMARK    3  A    between atoms: C_6  and  C_7
REMARK    4  A    between atoms: C_13  and  C_14
REMARK    5  A    between atoms: C_16  and  O_17
REMARK    6  A    between atoms: C_19  and  C_20
REMARK    7  A    between atoms: C_20  and  C_21
REMARK    8  A    between atoms: C_20  and  C_22
REMARK                            x       y       z     vdW  Elec       q    Type
REMARK                         _______ _______ _______ _____ _____    ______ ____
ROOT
ATOM      1  C   UNL     1       0.515   9.799  18.799  0.00  0.00    +0.000 C 
ATOM      2  O   UNL     1       1.496   9.598  18.082  0.00  0.00    +0.000 OA
ATOM      3  N   UNL     1       0.565   9.378  20.125  0.00  0.00    +0.000 N 
ATOM      4  C   UNL     1      -0.461   9.321  21.152  0.00  0.00    +0.000 C 
ATOM      5  C   UNL     1       0.347   9.462  22.428  0.00  0.00    +0.000 C 
ATOM      6  C   UNL     1       1.592   8.630  22.147  0.00  0.00    +0.000 C 
ATOM      7  C   UNL     1       1.778   8.705  20.619  0.00  0.00    +0.000 C 
ENDROOT
BRANCH   1  13
ATOM      8  C   UNL     1      -3.966  11.183  16.333  0.00  0.00    +0.000 C 
ATOM      9  C   UNL     1      -2.745  11.133  17.179  0.00  0.00    +0.000 A 
ATOM     10  N   UNL     1      -2.291  12.128  17.905  0.00  0.00    +0.000 NA
ATOM     11  C   UNL     1      -1.132  11.740  18.570  0.00  0.00    +0.000 A 
ATOM     12  C   UNL     1      -0.536  12.703  19.537  0.00  0.00    +0.000 C 
ATOM     13  C   UNL     1      -0.661  10.468  18.252  0.00  0.00    +0.000 A 
ATOM     14  S   UNL     1      -1.844   9.687  17.285  0.00  0.00    +0.000 S 
ENDBRANCH   1  13
BRANCH   7  15
ATOM     15  C   UNL     1       1.993   7.298  20.061  0.00  0.00    +0.000 A 
ATOM     16  N   UNL     1       1.284   6.297  20.615  0.00  0.00    +0.000 NA
ATOM     17  C   UNL     1       1.477   5.098  20.061  0.00  0.00    +0.000 A 
ATOM     18  C   UNL     1       2.299   4.824  19.002  0.00  0.00    +0.000 A 
ATOM     19  C   UNL     1       2.969   5.908  18.480  0.00  0.00    +0.000 A 
ATOM     20  N   UNL     1       2.801   7.153  18.981  0.00  0.00    +0.000 NA
BRANCH  19  21
ATOM     21  C   UNL     1       3.883   5.736  17.281  0.00  0.00    +0.000 C 
ATOM     22  C   UNL     1       5.121   6.622  17.422  0.00  0.00    +0.000 C 
ATOM     23  C   UNL     1       4.295   4.275  17.069  0.00  0.00    +0.000 C 
ENDBRANCH  19  21
BRANCH  17  24
ATOM     24  O   UNL     1       0.759   4.101  20.642  0.00  0.00    +0.000 OA
ATOM     25  H   UNL     1       1.065   3.339  20.117  0.00  0.00    +0.000 HD
ENDBRANCH  17  24
ENDBRANCH   7  15
TORSDOF 4
ENDMDL
