MODEL 1
REMARK VINA RESULT:      -7.2      0.000      0.000
REMARK  Name = 
REMARK  6 active torsions:
REMARK  status: ('A' for Active; 'I' for Inactive)
REMARK    1  A    between atoms: C_2  and  C_3
REMARK    2  A    between atoms: C_9  and  N_10
REMARK    3  A    between atoms: N_10  and  C_11
REMARK    4  A    between atoms: C_11  and  C_12
REMARK    5  A    between atoms: N_15  and  S_16
REMARK    6  A    between atoms: S_16  and  C_19
REMARK                            x       y       z     vdW  Elec       q    Type
REMARK                         _______ _______ _______ _____ _____    ______ ____
ROOT
ATOM      1  C   UNL     1       6.905   4.959  16.967  0.00  0.00    +0.000 C 
ENDROOT
BRANCH   1   2
ATOM      2  C   UNL     1       6.046   5.770  17.962  0.00  0.00    +0.000 C 
ATOM      3  C   UNL     1       5.823   5.057  19.311  0.00  0.00    +0.000 C 
ATOM      4  C   UNL     1       4.749   3.965  19.289  0.00  0.00    +0.000 C 
ATOM      5  N   UNL     1       3.498   4.475  18.671  0.00  0.00    +0.000 NA
ATOM      6  C   UNL     1       3.707   4.957  17.288  0.00  0.00    +0.000 C 
ATOM      7  C   UNL     1       4.689   6.130  17.323  0.00  0.00    +0.000 C 
BRANCH   5   8
ATOM      8  S   UNL     1       2.099   3.505  18.923  0.00  0.00    +0.000 S 
ATOM      9  O   UNL     1       1.227   3.717  17.781  0.00  0.00    +0.000 OA
ATOM     10  O   UNL     1       2.553   2.161  19.229  0.00  0.00    +0.000 OA
BRANCH   8  11
ATOM     11  C   UNL     1       1.299   4.220  20.413  0.00  0.00    +0.000 C 
ATOM     12  F   UNL     1       0.868   3.257  21.277  0.00  0.00    +0.000 F 
ATOM     13  F   UNL     1       2.149   5.020  21.121  0.00  0.00    +0.000 F 
ENDBRANCH   8  11
ENDBRANCH   5   8
ENDBRANCH   1   2
BRANCH   1  14
ATOM     14  N   UNL     1       6.982   5.601  15.647  0.00  0.00    +0.000 N 
ATOM     15  H   UNL     1       6.465   6.480  15.635  0.00  0.00    +0.000 HD
BRANCH  14  22
ATOM     16  C   UNL     1       7.405   4.866  13.262  0.00  0.00    +0.000 A 
ATOM     17  C   UNL     1       6.989   4.092  12.163  0.00  0.00    +0.000 A 
ATOM     18  C   UNL     1       5.843   3.322  12.250  0.00  0.00    +0.000 A 
ATOM     19  F   UNL     1       5.456   2.595  11.194  0.00  0.00    +0.000 F 
ATOM     20  C   UNL     1       5.086   3.318  13.405  0.00  0.00    +0.000 A 
ATOM     21  C   UNL     1       5.500   4.084  14.507  0.00  0.00    +0.000 A 
ATOM     22  C   UNL     1       6.694   4.844  14.485  0.00  0.00    +0.000 A 
BRANCH  16  24
ATOM     23  N   UNL     1       9.507   6.334  12.892  0.00  0.00    +0.000 NA
ATOM     24  C   UNL     1       8.561   5.677  13.034  0.00  0.00    +0.000 C 
ENDBRANCH  16  24
ENDBRANCH  14  22
ENDBRANCH   1  14
TORSDOF 6
ENDMDL
MODEL 2
REMARK VINA RESULT:      -7.0      0.747      1.068
REMARK  Name = 
REMARK  6 active torsions:
REMARK  status: ('A' for Active; 'I' for Inactive)
REMARK    1  A    between atoms: C_2  and  C_3
REMARK    2  A    between atoms: C_9  and  N_10
REMARK    3  A    between atoms: N_10  and  C_11
REMARK    4  A    between atoms: C_11  and  C_12
REMARK    5  A    between atoms: N_15  and  S_16
REMARK    6  A    between atoms: S_16  and  C_19
REMARK                            x       y       z     vdW  Elec       q    Type
REMARK                         _______ _______ _______ _____ _____    ______ ____
ROOT
ATOM      1  C   UNL     1       5.226   6.518  15.977  0.00  0.00    +0.000 C 
ENDROOT
BRANCH   1   2
ATOM      2  C   UNL     1       5.164   6.503  17.521  0.00  0.00    +0.000 C 
ATOM      3  C   UNL     1       5.756   5.227  18.151  0.00  0.00    +0.000 C 
ATOM      4  C   UNL     1       4.832   4.006  18.112  0.00  0.00    +0.000 C 
ATOM      5  N   UNL     1       3.483   4.354  18.628  0.00  0.00    +0.000 NA
ATOM      6  C   UNL     1       2.850   5.448  17.857  0.00  0.00    +0.000 C 
ATOM      7  C   UNL     1       3.712   6.704  17.997  0.00  0.00    +0.000 C 
BRANCH   5   8
ATOM      8  S   UNL     1       2.467   3.018  19.006  0.00  0.00    +0.000 S 
ATOM      9  O   UNL     1       1.480   2.924  17.944  0.00  0.00    +0.000 OA
ATOM     10  O   UNL     1       3.328   1.880  19.275  0.00  0.00    +0.000 OA
BRANCH   8  11
ATOM     11  C   UNL     1       1.615   3.504  20.557  0.00  0.00    +0.000 C 
ATOM     12  F   UNL     1       2.152   4.629  21.107  0.00  0.00    +0.000 F 
ATOM     13  F   UNL     1       0.290   3.768  20.356  0.00  0.00    +0.000 F 
ENDBRANCH   8  11
ENDBRANCH   5   8
ENDBRANCH   1   2
BRANCH   1  14
ATOM     14  N   UNL     1       6.432   5.853  15.463  0.00  0.00    +0.000 N 
ATOM     15  H   UNL     1       7.183   6.525  15.305  0.00  0.00    +0.000 HD
BRANCH  14  22
ATOM     16  C   UNL     1       7.236   4.834  13.289  0.00  0.00    +0.000 A 
ATOM     17  C   UNL     1       6.991   3.939  12.233  0.00  0.00    +0.000 A 
ATOM     18  C   UNL     1       5.824   3.197  12.207  0.00  0.00    +0.000 A 
ATOM     19  F   UNL     1       5.601   2.353  11.192  0.00  0.00    +0.000 F 
ATOM     20  C   UNL     1       4.879   3.339  13.205  0.00  0.00    +0.000 A 
ATOM     21  C   UNL     1       5.122   4.227  14.266  0.00  0.00    +0.000 A 
ATOM     22  C   UNL     1       6.325   4.966  14.364  0.00  0.00    +0.000 A 
BRANCH  16  24
ATOM     23  N   UNL     1       9.425   6.199  13.044  0.00  0.00    +0.000 NA
ATOM     24  C   UNL     1       8.438   5.600  13.174  0.00  0.00    +0.000 C 
ENDBRANCH  16  24
ENDBRANCH  14  22
ENDBRANCH   1  14
TORSDOF 6
ENDMDL
MODEL 3
REMARK VINA RESULT:      -6.9      4.679      7.444
REMARK  Name = 
REMARK  6 active torsions:
REMARK  status: ('A' for Active; 'I' for Inactive)
REMARK    1  A    between atoms: C_2  and  C_3
REMARK    2  A    between atoms: C_9  and  N_10
REMARK    3  A    between atoms: N_10  and  C_11
REMARK    4  A    between atoms: C_11  and  C_12
REMARK    5  A    between atoms: N_15  and  S_16
REMARK    6  A    between atoms: S_16  and  C_19
REMARK                            x       y       z     vdW  Elec       q    Type
REMARK                         _______ _______ _______ _____ _____    ______ ____
ROOT
ATOM      1  C   UNL     1       2.069   4.855  19.229  0.00  0.00    +0.000 C 
ENDROOT
BRANCH   1   2
ATOM      2  C   UNL     1       3.221   3.826  19.265  0.00  0.00    +0.000 C 
ATOM      3  C   UNL     1       4.492   4.344  19.968  0.00  0.00    +0.000 C 
ATOM      4  C   UNL     1       5.361   5.273  19.116  0.00  0.00    +0.000 C 
ATOM      5  N   UNL     1       5.623   4.669  17.784  0.00  0.00    +0.000 NA
ATOM      6  C   UNL     1       4.375   4.380  17.042  0.00  0.00    +0.000 C 
ATOM      7  C   UNL     1       3.561   3.357  17.836  0.00  0.00    +0.000 C 
BRANCH   5   8
ATOM      8  S   UNL     1       6.884   5.402  16.872  0.00  0.00    +0.000 S 
ATOM      9  O   UNL     1       7.974   4.444  16.812  0.00  0.00    +0.000 OA
ATOM     10  O   UNL     1       6.300   5.888  15.635  0.00  0.00    +0.000 OA
BRANCH   8  11
ATOM     11  C   UNL     1       7.419   6.836  17.886  0.00  0.00    +0.000 C 
ATOM     12  F   UNL     1       8.348   6.488  18.820  0.00  0.00    +0.000 F 
ATOM     13  F   UNL     1       7.985   7.821  17.128  0.00  0.00    +0.000 F 
ENDBRANCH   8  11
ENDBRANCH   5   8
ENDBRANCH   1   2
BRANCH   1  14
ATOM     14  N   UNL     1       2.354   6.037  20.055  0.00  0.00    +0.000 N 
ATOM     15  H   UNL     1       1.867   5.986  20.950  0.00  0.00    +0.000 HD
BRANCH  14  22
ATOM     16  C   UNL     1       1.477   8.412  20.026  0.00  0.00    +0.000 A 
ATOM     17  C   UNL     1       1.388   9.639  19.345  0.00  0.00    +0.000 A 
ATOM     18  C   UNL     1       1.993   9.795  18.111  0.00  0.00    +0.000 A 
ATOM     19  F   UNL     1       1.894  10.967  17.471  0.00  0.00    +0.000 F 
ATOM     20  C   UNL     1       2.675   8.745  17.526  0.00  0.00    +0.000 A 
ATOM     21  C   UNL     1       2.772   7.520  18.205  0.00  0.00    +0.000 A 
ATOM     22  C   UNL     1       2.217   7.330  19.493  0.00  0.00    +0.000 A 
BRANCH  16  24
ATOM     23  N   UNL     1       0.129   8.279  22.235  0.00  0.00    +0.000 NA
ATOM     24  C   UNL     1       0.753   8.343  21.258  0.00  0.00    +0.000 C 
ENDBRANCH  16  24
ENDBRANCH  14  22
ENDBRANCH   1  14
TORSDOF 6
ENDMDL
MODEL 4
REMARK VINA RESULT:      -6.9      3.898      7.530
REMARK  Name = 
REMARK  6 active torsions:
REMARK  status: ('A' for Active; 'I' for Inactive)
REMARK    1  A    between atoms: C_2  and  C_3
REMARK    2  A    between atoms: C_9  and  N_10
REMARK    3  A    between atoms: N_10  and  C_11
REMARK    4  A    between atoms: C_11  and  C_12
REMARK    5  A    between atoms: N_15  and  S_16
REMARK    6  A    between atoms: S_16  and  C_19
REMARK                            x       y       z     vdW  Elec       q    Type
REMARK                         _______ _______ _______ _____ _____    ______ ____
ROOT
ATOM      1  C   UNL     1       2.434   5.242  19.317  0.00  0.00    +0.000 C 
ENDROOT
BRANCH   1   2
ATOM      2  C   UNL     1       3.620   4.252  19.345  0.00  0.00    +0.000 C 
ATOM      3  C   UNL     1       4.993   4.936  19.496  0.00  0.00    +0.000 C 
ATOM      4  C   UNL     1       5.549   5.549  18.208  0.00  0.00    +0.000 C 
ATOM      5  N   UNL     1       5.493   4.567  17.095  0.00  0.00    +0.000 NA
ATOM      6  C   UNL     1       4.116   4.090  16.833  0.00  0.00    +0.000 C 
ATOM      7  C   UNL     1       3.605   3.368  18.081  0.00  0.00    +0.000 C 
BRANCH   5   8
ATOM      8  S   UNL     1       6.423   4.969  15.704  0.00  0.00    +0.000 S 
ATOM      9  O   UNL     1       6.042   6.315  15.315  0.00  0.00    +0.000 OA
ATOM     10  O   UNL     1       7.813   4.689  16.017  0.00  0.00    +0.000 OA
BRANCH   8  11
ATOM     11  C   UNL     1       5.855   3.800  14.409  0.00  0.00    +0.000 C 
ATOM     12  F   UNL     1       4.781   4.278  13.720  0.00  0.00    +0.000 F 
ATOM     13  F   UNL     1       6.824   3.546  13.482  0.00  0.00    +0.000 F 
ENDBRANCH   8  11
ENDBRANCH   5   8
ENDBRANCH   1   2
BRANCH   1  14
ATOM     14  N   UNL     1       2.618   6.357  20.258  0.00  0.00    +0.000 N 
ATOM     15  H   UNL     1       2.558   6.035  21.224  0.00  0.00    +0.000 HD
BRANCH  14  22
ATOM     16  C   UNL     1       1.896   8.409  18.965  0.00  0.00    +0.000 A 
ATOM     17  C   UNL     1       1.131   9.588  18.935  0.00  0.00    +0.000 A 
ATOM     18  C   UNL     1       0.364   9.947  20.029  0.00  0.00    +0.000 A 
ATOM     19  F   UNL     1      -0.355  11.076  19.988  0.00  0.00    +0.000 F 
ATOM     20  C   UNL     1       0.356   9.165  21.167  0.00  0.00    +0.000 A 
ATOM     21  C   UNL     1       1.114   7.983  21.200  0.00  0.00    +0.000 A 
ATOM     22  C   UNL     1       1.869   7.546  20.086  0.00  0.00    +0.000 A 
BRANCH  16  24
ATOM     23  N   UNL     1       3.351   8.029  16.855  0.00  0.00    +0.000 NA
ATOM     24  C   UNL     1       2.704   8.177  17.807  0.00  0.00    +0.000 C 
ENDBRANCH  16  24
ENDBRANCH  14  22
ENDBRANCH   1  14
TORSDOF 6
ENDMDL
MODEL 5
REMARK VINA RESULT:      -6.8      1.536      1.864
REMARK  Name = 
REMARK  6 active torsions:
REMARK  status: ('A' for Active; 'I' for Inactive)
REMARK    1  A    between atoms: C_2  and  C_3
REMARK    2  A    between atoms: C_9  and  N_10
REMARK    3  A    between atoms: N_10  and  C_11
REMARK    4  A    between atoms: C_11  and  C_12
REMARK    5  A    between atoms: N_15  and  S_16
REMARK    6  A    between atoms: S_16  and  C_19
REMARK                            x       y       z     vdW  Elec       q    Type
REMARK                         _______ _______ _______ _____ _____    ______ ____
ROOT
ATOM      1  C   UNL     1       5.061   6.419  15.871  0.00  0.00    +0.000 C 
ENDROOT
BRANCH   1   2
ATOM      2  C   UNL     1       5.109   6.657  17.396  0.00  0.00    +0.000 C 
ATOM      3  C   UNL     1       5.768   5.505  18.182  0.00  0.00    +0.000 C 
ATOM      4  C   UNL     1       4.867   4.288  18.410  0.00  0.00    +0.000 C 
ATOM      5  N   UNL     1       3.552   4.707  18.960  0.00  0.00    +0.000 NA
ATOM      6  C   UNL     1       2.845   5.656  18.070  0.00  0.00    +0.000 C 
ATOM      7  C   UNL     1       3.691   6.924  17.939  0.00  0.00    +0.000 C 
BRANCH   5   8
ATOM      8  S   UNL     1       2.590   3.444  19.624  0.00  0.00    +0.000 S 
ATOM      9  O   UNL     1       3.502   2.398  20.050  0.00  0.00    +0.000 OA
ATOM     10  O   UNL     1       1.697   4.046  20.598  0.00  0.00    +0.000 OA
BRANCH   8  11
ATOM     11  C   UNL     1       1.600   2.820  18.210  0.00  0.00    +0.000 C 
ATOM     12  F   UNL     1       2.363   2.136  17.311  0.00  0.00    +0.000 F 
ATOM     13  F   UNL     1       0.615   1.963  18.609  0.00  0.00    +0.000 F 
ENDBRANCH   8  11
ENDBRANCH   5   8
ENDBRANCH   1   2
BRANCH   1  14
ATOM     14  N   UNL     1       6.305   5.826  15.361  0.00  0.00    +0.000 N 
ATOM     15  H   UNL     1       7.009   6.543  15.184  0.00  0.00    +0.000 HD
BRANCH  14  22
ATOM     16  C   UNL     1       7.194   4.779  13.234  0.00  0.00    +0.000 A 
ATOM     17  C   UNL     1       7.001   3.854  12.193  0.00  0.00    +0.000 A 
ATOM     18  C   UNL     1       5.855   3.080  12.154  0.00  0.00    +0.000 A 
ATOM     19  F   UNL     1       5.682   2.207  11.153  0.00  0.00    +0.000 F 
ATOM     20  C   UNL     1       4.881   3.219  13.123  0.00  0.00    +0.000 A 
ATOM     21  C   UNL     1       5.071   4.138  14.169  0.00  0.00    +0.000 A 
ATOM     22  C   UNL     1       6.251   4.911  14.281  0.00  0.00    +0.000 A 
BRANCH  16  24
ATOM     23  N   UNL     1       9.333   6.235  13.091  0.00  0.00    +0.000 NA
ATOM     24  C   UNL     1       8.379   5.574  13.133  0.00  0.00    +0.000 C 
ENDBRANCH  16  24
ENDBRANCH  14  22
ENDBRANCH   1  14
TORSDOF 6
ENDMDL
MODEL 6
REMARK VINA RESULT:      -6.8      4.478      7.977
REMARK  Name = 
REMARK  6 active torsions:
REMARK  status: ('A' for Active; 'I' for Inactive)
REMARK    1  A    between atoms: C_2  and  C_3
REMARK    2  A    between atoms: C_9  and  N_10
REMARK    3  A    between atoms: N_10  and  C_11
REMARK    4  A    between atoms: C_11  and  C_12
REMARK    5  A    between atoms: N_15  and  S_16
REMARK    6  A    between atoms: S_16  and  C_19
REMARK                            x       y       z     vdW  Elec       q    Type
REMARK                         _______ _______ _______ _____ _____    ______ ____
ROOT
ATOM      1  C   UNL     1       3.077   6.213  19.965  0.00  0.00    +0.000 C 
ENDROOT
BRANCH   1   2
ATOM      2  C   UNL     1       3.208   4.941  19.098  0.00  0.00    +0.000 C 
ATOM      3  C   UNL     1       4.431   4.072  19.456  0.00  0.00    +0.000 C 
ATOM      4  C   UNL     1       5.763   4.579  18.897  0.00  0.00    +0.000 C 
ATOM      5  N   UNL     1       5.644   4.870  17.445  0.00  0.00    +0.000 NA
ATOM      6  C   UNL     1       4.598   5.876  17.155  0.00  0.00    +0.000 C 
ATOM      7  C   UNL     1       3.247   5.318  17.603  0.00  0.00    +0.000 C 
BRANCH   5   8
ATOM      8  S   UNL     1       7.133   5.072  16.606  0.00  0.00    +0.000 S 
ATOM      9  O   UNL     1       7.396   6.500  16.551  0.00  0.00    +0.000 OA
ATOM     10  O   UNL     1       8.106   4.196  17.232  0.00  0.00    +0.000 OA
BRANCH   8  11
ATOM     11  C   UNL     1       6.794   4.472  14.905  0.00  0.00    +0.000 C 
ATOM     12  F   UNL     1       6.143   3.275  14.901  0.00  0.00    +0.000 F 
ATOM     13  F   UNL     1       6.009   5.339  14.199  0.00  0.00    +0.000 F 
ENDBRANCH   8  11
ENDBRANCH   5   8
ENDBRANCH   1   2
BRANCH   1  14
ATOM     14  N   UNL     1       1.738   6.813  19.873  0.00  0.00    +0.000 N 
ATOM     15  H   UNL     1       1.125   6.255  19.278  0.00  0.00    +0.000 HD
BRANCH  14  22
ATOM     16  C   UNL     1       0.884   9.159  20.291  0.00  0.00    +0.000 A 
ATOM     17  C   UNL     1       0.802  10.491  19.850  0.00  0.00    +0.000 A 
ATOM     18  C   UNL     1       1.399  10.868  18.660  0.00  0.00    +0.000 A 
ATOM     19  F   UNL     1       1.307  12.138  18.249  0.00  0.00    +0.000 F 
ATOM     20  C   UNL     1       2.067   9.939  17.885  0.00  0.00    +0.000 A 
ATOM     21  C   UNL     1       2.157   8.608  18.325  0.00  0.00    +0.000 A 
ATOM     22  C   UNL     1       1.610   8.188  19.560  0.00  0.00    +0.000 A 
BRANCH  16  24
ATOM     23  N   UNL     1      -0.444   8.662  22.460  0.00  0.00    +0.000 NA
ATOM     24  C   UNL     1       0.169   8.870  21.496  0.00  0.00    +0.000 C 
ENDBRANCH  16  24
ENDBRANCH  14  22
ENDBRANCH   1  14
TORSDOF 6
ENDMDL
MODEL 7
REMARK VINA RESULT:      -6.8      4.257      8.004
REMARK  Name = 
REMARK  6 active torsions:
REMARK  status: ('A' for Active; 'I' for Inactive)
REMARK    1  A    between atoms: C_2  and  C_3
REMARK    2  A    between atoms: C_9  and  N_10
REMARK    3  A    between atoms: N_10  and  C_11
REMARK    4  A    between atoms: C_11  and  C_12
REMARK    5  A    between atoms: N_15  and  S_16
REMARK    6  A    between atoms: S_16  and  C_19
REMARK                            x       y       z     vdW  Elec       q    Type
REMARK                         _______ _______ _______ _____ _____    ______ ____
ROOT
ATOM      1  C   UNL     1       1.934   5.684  20.485  0.00  0.00    +0.000 C 
ENDROOT
BRANCH   1   2
ATOM      2  C   UNL     1       2.063   4.796  19.228  0.00  0.00    +0.000 C 
ATOM      3  C   UNL     1       3.121   3.683  19.362  0.00  0.00    +0.000 C 
ATOM      4  C   UNL     1       4.568   4.148  19.170  0.00  0.00    +0.000 C 
ATOM      5  N   UNL     1       4.699   4.946  17.924  0.00  0.00    +0.000 NA
ATOM      6  C   UNL     1       3.818   6.136  17.922  0.00  0.00    +0.000 C 
ATOM      7  C   UNL     1       2.364   5.666  17.991  0.00  0.00    +0.000 C 
BRANCH   5   8
ATOM      8  S   UNL     1       6.310   5.205  17.377  0.00  0.00    +0.000 S 
ATOM      9  O   UNL     1       6.493   6.642  17.267  0.00  0.00    +0.000 OA
ATOM     10  O   UNL     1       7.190   4.444  18.244  0.00  0.00    +0.000 OA
BRANCH   8  11
ATOM     11  C   UNL     1       6.352   4.477  15.693  0.00  0.00    +0.000 C 
ATOM     12  F   UNL     1       5.964   3.170  15.687  0.00  0.00    +0.000 F 
ATOM     13  F   UNL     1       5.521   5.129  14.828  0.00  0.00    +0.000 F 
ENDBRANCH   8  11
ENDBRANCH   5   8
ENDBRANCH   1   2
BRANCH   1  14
ATOM     14  N   UNL     1       2.342   7.073  20.229  0.00  0.00    +0.000 N 
ATOM     15  H   UNL     1       3.244   7.276  20.660  0.00  0.00    +0.000 HD
BRANCH  14  22
ATOM     16  C   UNL     1       1.129   9.209  19.618  0.00  0.00    +0.000 A 
ATOM     17  C   UNL     1       0.227  10.217  20.002  0.00  0.00    +0.000 A 
ATOM     18  C   UNL     1      -0.356  10.187  21.256  0.00  0.00    +0.000 A 
ATOM     19  F   UNL     1      -1.208  11.156  21.611  0.00  0.00    +0.000 F 
ATOM     20  C   UNL     1      -0.046   9.180  22.150  0.00  0.00    +0.000 A 
ATOM     21  C   UNL     1       0.849   8.167  21.768  0.00  0.00    +0.000 A 
ATOM     22  C   UNL     1       1.428   8.126  20.478  0.00  0.00    +0.000 A 
BRANCH  16  24
ATOM     23  N   UNL     1       2.224   9.561  17.296  0.00  0.00    +0.000 NA
ATOM     24  C   UNL     1       1.724   9.382  18.328  0.00  0.00    +0.000 C 
ENDBRANCH  16  24
ENDBRANCH  14  22
ENDBRANCH   1  14
TORSDOF 6
ENDMDL
MODEL 8
REMARK VINA RESULT:      -6.8      4.345      7.495
REMARK  Name = 
REMARK  6 active torsions:
REMARK  status: ('A' for Active; 'I' for Inactive)
REMARK    1  A    between atoms: C_2  and  C_3
REMARK    2  A    between atoms: C_9  and  N_10
REMARK    3  A    between atoms: N_10  and  C_11
REMARK    4  A    between atoms: C_11  and  C_12
REMARK    5  A    between atoms: N_15  and  S_16
REMARK    6  A    between atoms: S_16  and  C_19
REMARK                            x       y       z     vdW  Elec       q    Type
REMARK                         _______ _______ _______ _____ _____    ______ ____
ROOT
ATOM      1  C   UNL     1       2.139   4.729  17.824  0.00  0.00    +0.000 C 
ENDROOT
BRANCH   1   2
ATOM      2  C   UNL     1       3.118   3.535  17.859  0.00  0.00    +0.000 C 
ATOM      3  C   UNL     1       4.149   3.614  19.003  0.00  0.00    +0.000 C 
ATOM      4  C   UNL     1       5.326   4.559  18.740  0.00  0.00    +0.000 C 
ATOM      5  N   UNL     1       5.931   4.283  17.412  0.00  0.00    +0.000 NA
ATOM      6  C   UNL     1       4.956   4.428  16.307  0.00  0.00    +0.000 C 
ATOM      7  C   UNL     1       3.841   3.399  16.504  0.00  0.00    +0.000 C 
BRANCH   5   8
ATOM      8  S   UNL     1       7.478   4.987  17.142  0.00  0.00    +0.000 S 
ATOM      9  O   UNL     1       8.460   4.074  17.701  0.00  0.00    +0.000 OA
ATOM     10  O   UNL     1       7.556   5.336  15.735  0.00  0.00    +0.000 OA
BRANCH   8  11
ATOM     11  C   UNL     1       7.471   6.526  18.142  0.00  0.00    +0.000 C 
ATOM     12  F   UNL     1       8.171   6.388  19.303  0.00  0.00    +0.000 F 
ATOM     13  F   UNL     1       8.034   7.576  17.476  0.00  0.00    +0.000 F 
ENDBRANCH   8  11
ENDBRANCH   5   8
ENDBRANCH   1   2
BRANCH   1  14
ATOM     14  N   UNL     1       2.830   6.020  17.953  0.00  0.00    +0.000 N 
ATOM     15  H   UNL     1       3.824   5.887  18.144  0.00  0.00    +0.000 HD
BRANCH  14  22
ATOM     16  C   UNL     1       1.898   6.858  20.151  0.00  0.00    +0.000 A 
ATOM     17  C   UNL     1       1.337   7.925  20.876  0.00  0.00    +0.000 A 
ATOM     18  C   UNL     1       1.122   9.146  20.263  0.00  0.00    +0.000 A 
ATOM     19  F   UNL     1       0.582  10.150  20.964  0.00  0.00    +0.000 F 
ATOM     20  C   UNL     1       1.438   9.327  18.930  0.00  0.00    +0.000 A 
ATOM     21  C   UNL     1       2.004   8.267  18.203  0.00  0.00    +0.000 A 
ATOM     22  C   UNL     1       2.293   7.018  18.802  0.00  0.00    +0.000 A 
BRANCH  16  24
ATOM     23  N   UNL     1       2.052   4.615  21.438  0.00  0.00    +0.000 NA
ATOM     24  C   UNL     1       2.006   5.624  20.866  0.00  0.00    +0.000 C 
ENDBRANCH  16  24
ENDBRANCH  14  22
ENDBRANCH   1  14
TORSDOF 6
ENDMDL
MODEL 9
REMARK VINA RESULT:      -6.7      5.323      8.850
REMARK  Name = 
REMARK  6 active torsions:
REMARK  status: ('A' for Active; 'I' for Inactive)
REMARK    1  A    between atoms: C_2  and  C_3
REMARK    2  A    between atoms: C_9  and  N_10
REMARK    3  A    between atoms: N_10  and  C_11
REMARK    4  A    between atoms: C_11  and  C_12
REMARK    5  A    between atoms: N_15  and  S_16
REMARK    6  A    between atoms: S_16  and  C_19
REMARK                            x       y       z     vdW  Elec       q    Type
REMARK                         _______ _______ _______ _____ _____    ______ ____
ROOT
ATOM      1  C   UNL     1       2.169   7.151  20.135  0.00  0.00    +0.000 C 
ENDROOT
BRANCH   1   2
ATOM      2  C   UNL     1       2.245   6.159  18.954  0.00  0.00    +0.000 C 
ATOM      3  C   UNL     1       3.250   5.010  19.174  0.00  0.00    +0.000 C 
ATOM      4  C   UNL     1       4.715   5.387  18.939  0.00  0.00    +0.000 C 
ATOM      5  N   UNL     1       4.875   6.075  17.632  0.00  0.00    +0.000 NA
ATOM      6  C   UNL     1       4.053   7.301  17.536  0.00  0.00    +0.000 C 
ATOM      7  C   UNL     1       2.578   6.910  17.649  0.00  0.00    +0.000 C 
BRANCH   5   8
ATOM      8  S   UNL     1       6.493   6.210  17.060  0.00  0.00    +0.000 S 
ATOM      9  O   UNL     1       6.540   5.548  15.767  0.00  0.00    +0.000 OA
ATOM     10  O   UNL     1       6.870   7.608  17.153  0.00  0.00    +0.000 OA
BRANCH   8  11
ATOM     11  C   UNL     1       7.492   5.238  18.253  0.00  0.00    +0.000 C 
ATOM     12  F   UNL     1       8.259   4.296  17.635  0.00  0.00    +0.000 F 
ATOM     13  F   UNL     1       8.351   6.024  18.967  0.00  0.00    +0.000 F 
ENDBRANCH   8  11
ENDBRANCH   5   8
ENDBRANCH   1   2
BRANCH   1  14
ATOM     14  N   UNL     1       1.702   8.480  19.716  0.00  0.00    +0.000 N 
ATOM     15  H   UNL     1       2.474   9.046  19.363  0.00  0.00    +0.000 HD
BRANCH  14  22
ATOM     16  C   UNL     1       0.606  10.625  20.493  0.00  0.00    +0.000 A 
ATOM     17  C   UNL     1      -0.187  11.276  21.456  0.00  0.00    +0.000 A 
ATOM     18  C   UNL     1      -0.670  10.575  22.546  0.00  0.00    +0.000 A 
ATOM     19  F   UNL     1      -1.418  11.209  23.458  0.00  0.00    +0.000 F 
ATOM     20  C   UNL     1      -0.366   9.238  22.712  0.00  0.00    +0.000 A 
ATOM     21  C   UNL     1       0.419   8.582  21.750  0.00  0.00    +0.000 A 
ATOM     22  C   UNL     1       0.890   9.243  20.591  0.00  0.00    +0.000 A 
BRANCH  16  24
ATOM     23  N   UNL     1       1.477  12.151  18.588  0.00  0.00    +0.000 NA
ATOM     24  C   UNL     1       1.109  11.464  19.449  0.00  0.00    +0.000 C 
ENDBRANCH  16  24
ENDBRANCH  14  22
ENDBRANCH   1  14
TORSDOF 6
ENDMDL
