MODEL 1
REMARK VINA RESULT:      -8.6      0.000      0.000
REMARK  Name = 
REMARK  1 active torsions:
REMARK  status: ('A' for Active; 'I' for Inactive)
REMARK    1  A    between atoms: C_1  and  C_2
REMARK                            x       y       z     vdW  Elec       q    Type
REMARK                         _______ _______ _______ _____ _____    ______ ____
ROOT
ATOM      1  C   UNL     1       6.394   3.876  13.246  0.00  0.00    +0.000 C 
ATOM      2  C   UNL     1       6.294   4.280  14.666  0.00  0.00    +0.000 A 
ATOM      3  C   UNL     1       5.209   4.286  15.516  0.00  0.00    +0.000 A 
ATOM      4  C   UNL     1       5.690   4.496  16.841  0.00  0.00    +0.000 A 
ATOM      5  C   UNL     1       5.167   4.409  18.149  0.00  0.00    +0.000 A 
ATOM      6  N   UNL     1       3.875   3.917  18.427  0.00  0.00    +0.000 N 
ATOM      7  C   UNL     1       3.537   3.937  19.866  0.00  0.00    +0.000 C 
ATOM      8  C   UNL     1       2.074   3.479  20.071  0.00  0.00    +0.000 C 
ATOM      9  N   UNL     1       1.783   2.149  19.497  0.00  0.00    +0.000 NA
ATOM     10  C   UNL     1       2.168   2.145  18.076  0.00  0.00    +0.000 C 
ATOM     11  C   UNL     1       3.627   2.580  17.835  0.00  0.00    +0.000 C 
ATOM     12  N   UNL     1       5.995   4.803  19.160  0.00  0.00    +0.000 NA
ATOM     13  C   UNL     1       7.253   5.181  18.896  0.00  0.00    +0.000 A 
ATOM     14  N   UNL     1       8.036   5.535  19.986  0.00  0.00    +0.000 N 
ATOM     15  N   UNL     1       7.863   5.176  17.706  0.00  0.00    +0.000 NA
ATOM     16  C   UNL     1       7.023   4.831  16.717  0.00  0.00    +0.000 A 
ATOM     17  N   UNL     1       7.379   4.706  15.401  0.00  0.00    +0.000 N 
ATOM     18  H   UNL     1       0.783   1.968  19.570  0.00  0.00    +0.000 HD
ATOM     19  H   UNL     1       7.656   5.095  20.813  0.00  0.00    +0.000 HD
ATOM     20  H   UNL     1       9.004   5.359  19.770  0.00  0.00    +0.000 HD
ATOM     21  H   UNL     1       8.317   4.842  15.059  0.00  0.00    +0.000 HD
ENDROOT
TORSDOF 0
ENDMDL
MODEL 2
REMARK VINA RESULT:      -7.5      1.625      3.492
REMARK  Name = 
REMARK  1 active torsions:
REMARK  status: ('A' for Active; 'I' for Inactive)
REMARK    1  A    between atoms: C_1  and  C_2
REMARK                            x       y       z     vdW  Elec       q    Type
REMARK                         _______ _______ _______ _____ _____    ______ ____
ROOT
ATOM      1  C   UNL     1       8.150   8.501  18.294  0.00  0.00    +0.000 C 
ATOM      2  C   UNL     1       7.660   7.224  17.731  0.00  0.00    +0.000 A 
ATOM      3  C   UNL     1       6.903   6.227  18.309  0.00  0.00    +0.000 A 
ATOM      4  C   UNL     1       6.468   5.349  17.274  0.00  0.00    +0.000 A 
ATOM      5  C   UNL     1       5.538   4.296  17.145  0.00  0.00    +0.000 A 
ATOM      6  N   UNL     1       4.647   3.930  18.176  0.00  0.00    +0.000 N 
ATOM      7  C   UNL     1       3.779   2.787  17.820  0.00  0.00    +0.000 C 
ATOM      8  C   UNL     1       2.908   2.387  19.035  0.00  0.00    +0.000 C 
ATOM      9  N   UNL     1       2.096   3.498  19.573  0.00  0.00    +0.000 NA
ATOM     10  C   UNL     1       2.980   4.635  19.878  0.00  0.00    +0.000 C 
ATOM     11  C   UNL     1       3.851   5.073  18.683  0.00  0.00    +0.000 C 
ATOM     12  N   UNL     1       5.515   3.652  15.942  0.00  0.00    +0.000 NA
ATOM     13  C   UNL     1       6.300   4.066  14.938  0.00  0.00    +0.000 A 
ATOM     14  N   UNL     1       6.190   3.374  13.739  0.00  0.00    +0.000 N 
ATOM     15  N   UNL     1       7.116   5.124  14.937  0.00  0.00    +0.000 NA
ATOM     16  C   UNL     1       7.162   5.719  16.140  0.00  0.00    +0.000 A 
ATOM     17  N   UNL     1       7.884   6.847  16.425  0.00  0.00    +0.000 N 
ATOM     18  H   UNL     1       1.643   3.192  20.432  0.00  0.00    +0.000 HD
ATOM     19  H   UNL     1       5.284   2.926  13.706  0.00  0.00    +0.000 HD
ATOM     20  H   UNL     1       6.432   3.988  12.979  0.00  0.00    +0.000 HD
ATOM     21  H   UNL     1       8.433   7.347  15.744  0.00  0.00    +0.000 HD
ENDROOT
TORSDOF 0
ENDMDL
MODEL 3
REMARK VINA RESULT:      -7.2      2.213      5.984
REMARK  Name = 
REMARK  1 active torsions:
REMARK  status: ('A' for Active; 'I' for Inactive)
REMARK    1  A    between atoms: C_1  and  C_2
REMARK                            x       y       z     vdW  Elec       q    Type
REMARK                         _______ _______ _______ _____ _____    ______ ____
ROOT
ATOM      1  C   UNL     1       1.564   7.969  21.093  0.00  0.00    +0.000 C 
ATOM      2  C   UNL     1       1.865   6.834  20.193  0.00  0.00    +0.000 A 
ATOM      3  C   UNL     1       2.635   6.784  19.049  0.00  0.00    +0.000 A 
ATOM      4  C   UNL     1       2.832   5.413  18.713  0.00  0.00    +0.000 A 
ATOM      5  C   UNL     1       3.652   4.681  17.829  0.00  0.00    +0.000 A 
ATOM      6  N   UNL     1       4.673   5.277  17.058  0.00  0.00    +0.000 N 
ATOM      7  C   UNL     1       5.389   4.317  16.192  0.00  0.00    +0.000 C 
ATOM      8  C   UNL     1       6.416   5.067  15.311  0.00  0.00    +0.000 C 
ATOM      9  N   UNL     1       7.381   5.875  16.084  0.00  0.00    +0.000 NA
ATOM     10  C   UNL     1       6.641   6.791  16.967  0.00  0.00    +0.000 C 
ATOM     11  C   UNL     1       5.619   6.076  17.873  0.00  0.00    +0.000 C 
ATOM     12  N   UNL     1       3.433   3.335  17.773  0.00  0.00    +0.000 NA
ATOM     13  C   UNL     1       2.525   2.763  18.575  0.00  0.00    +0.000 A 
ATOM     14  N   UNL     1       2.388   1.385  18.475  0.00  0.00    +0.000 N 
ATOM     15  N   UNL     1       1.796   3.363  19.522  0.00  0.00    +0.000 NA
ATOM     16  C   UNL     1       1.990   4.691  19.534  0.00  0.00    +0.000 A 
ATOM     17  N   UNL     1       1.404   5.556  20.419  0.00  0.00    +0.000 N 
ATOM     18  H   UNL     1       7.947   6.424  15.438  0.00  0.00    +0.000 HD
ATOM     19  H   UNL     1       3.243   1.003  18.093  0.00  0.00    +0.000 HD
ATOM     20  H   UNL     1       2.069   1.019  19.356  0.00  0.00    +0.000 HD
ATOM     21  H   UNL     1       0.787   5.266  21.161  0.00  0.00    +0.000 HD
ENDROOT
TORSDOF 0
ENDMDL
MODEL 4
REMARK VINA RESULT:      -7.1      3.240      4.830
REMARK  Name = 
REMARK  1 active torsions:
REMARK  status: ('A' for Active; 'I' for Inactive)
REMARK    1  A    between atoms: C_1  and  C_2
REMARK                            x       y       z     vdW  Elec       q    Type
REMARK                         _______ _______ _______ _____ _____    ______ ____
ROOT
ATOM      1  C   UNL     1       6.778   4.375  16.844  0.00  0.00    +0.000 C 
ATOM      2  C   UNL     1       5.793   4.512  17.940  0.00  0.00    +0.000 A 
ATOM      3  C   UNL     1       5.160   5.633  18.434  0.00  0.00    +0.000 A 
ATOM      4  C   UNL     1       4.108   5.200  19.293  0.00  0.00    +0.000 A 
ATOM      5  C   UNL     1       2.994   5.789  19.929  0.00  0.00    +0.000 A 
ATOM      6  N   UNL     1       2.602   7.125  19.705  0.00  0.00    +0.000 N 
ATOM      7  C   UNL     1       1.418   7.528  20.493  0.00  0.00    +0.000 C 
ATOM      8  C   UNL     1       1.119   9.029  20.268  0.00  0.00    +0.000 C 
ATOM      9  N   UNL     1       0.932   9.388  18.847  0.00  0.00    +0.000 NA
ATOM     10  C   UNL     1       2.106   8.938  18.080  0.00  0.00    +0.000 C 
ATOM     11  C   UNL     1       2.424   7.442  18.268  0.00  0.00    +0.000 C 
ATOM     12  N   UNL     1       2.278   4.982  20.765  0.00  0.00    +0.000 NA
ATOM     13  C   UNL     1       2.602   3.689  20.900  0.00  0.00    +0.000 A 
ATOM     14  N   UNL     1       1.800   2.935  21.746  0.00  0.00    +0.000 N 
ATOM     15  N   UNL     1       3.560   3.027  20.246  0.00  0.00    +0.000 NA
ATOM     16  C   UNL     1       4.284   3.842  19.462  0.00  0.00    +0.000 A 
ATOM     17  N   UNL     1       5.307   3.435  18.649  0.00  0.00    +0.000 N 
ATOM     18  H   UNL     1       0.854  10.401  18.769  0.00  0.00    +0.000 HD
ATOM     19  H   UNL     1       0.898   3.384  21.823  0.00  0.00    +0.000 HD
ATOM     20  H   UNL     1       1.816   1.974  21.447  0.00  0.00    +0.000 HD
ATOM     21  H   UNL     1       5.595   2.474  18.549  0.00  0.00    +0.000 HD
ENDROOT
TORSDOF 0
ENDMDL
MODEL 5
REMARK VINA RESULT:      -6.8      2.234      5.524
REMARK  Name = 
REMARK  1 active torsions:
REMARK  status: ('A' for Active; 'I' for Inactive)
REMARK    1  A    between atoms: C_1  and  C_2
REMARK                            x       y       z     vdW  Elec       q    Type
REMARK                         _______ _______ _______ _____ _____    ______ ____
ROOT
ATOM      1  C   UNL     1       1.399   7.692  20.718  0.00  0.00    +0.000 C 
ATOM      2  C   UNL     1       2.033   6.469  20.180  0.00  0.00    +0.000 A 
ATOM      3  C   UNL     1       2.448   6.170  18.899  0.00  0.00    +0.000 A 
ATOM      4  C   UNL     1       3.240   4.987  18.959  0.00  0.00    +0.000 A 
ATOM      5  C   UNL     1       4.103   4.284  18.091  0.00  0.00    +0.000 A 
ATOM      6  N   UNL     1       4.476   4.772  16.821  0.00  0.00    +0.000 N 
ATOM      7  C   UNL     1       5.372   3.857  16.083  0.00  0.00    +0.000 C 
ATOM      8  C   UNL     1       5.649   4.417  14.668  0.00  0.00    +0.000 C 
ATOM      9  N   UNL     1       6.204   5.785  14.670  0.00  0.00    +0.000 NA
ATOM     10  C   UNL     1       5.314   6.664  15.446  0.00  0.00    +0.000 C 
ATOM     11  C   UNL     1       5.030   6.146  16.870  0.00  0.00    +0.000 C 
ATOM     12  N   UNL     1       4.597   3.100  18.556  0.00  0.00    +0.000 NA
ATOM     13  C   UNL     1       4.312   2.690  19.800  0.00  0.00    +0.000 A 
ATOM     14  N   UNL     1       4.883   1.490  20.202  0.00  0.00    +0.000 N 
ATOM     15  N   UNL     1       3.607   3.349  20.724  0.00  0.00    +0.000 NA
ATOM     16  C   UNL     1       3.090   4.489  20.237  0.00  0.00    +0.000 A 
ATOM     17  N   UNL     1       2.354   5.384  20.966  0.00  0.00    +0.000 N 
ATOM     18  H   UNL     1       6.252   6.126  13.711  0.00  0.00    +0.000 HD
ATOM     19  H   UNL     1       5.705   1.318  19.640  0.00  0.00    +0.000 HD
ATOM     20  H   UNL     1       4.999   1.497  21.202  0.00  0.00    +0.000 HD
ATOM     21  H   UNL     1       2.153   5.277  21.947  0.00  0.00    +0.000 HD
ENDROOT
TORSDOF 0
ENDMDL
MODEL 6
REMARK VINA RESULT:      -6.8      2.559      3.378
REMARK  Name = 
REMARK  1 active torsions:
REMARK  status: ('A' for Active; 'I' for Inactive)
REMARK    1  A    between atoms: C_1  and  C_2
REMARK                            x       y       z     vdW  Elec       q    Type
REMARK                         _______ _______ _______ _____ _____    ______ ____
ROOT
ATOM      1  C   UNL     1       6.921   4.738  15.564  0.00  0.00    +0.000 C 
ATOM      2  C   UNL     1       5.686   5.185  16.246  0.00  0.00    +0.000 A 
ATOM      3  C   UNL     1       4.783   4.476  17.009  0.00  0.00    +0.000 A 
ATOM      4  C   UNL     1       3.929   5.412  17.661  0.00  0.00    +0.000 A 
ATOM      5  C   UNL     1       2.970   5.379  18.696  0.00  0.00    +0.000 A 
ATOM      6  N   UNL     1       2.718   4.227  19.470  0.00  0.00    +0.000 N 
ATOM      7  C   UNL     1       1.660   4.423  20.483  0.00  0.00    +0.000 C 
ATOM      8  C   UNL     1       1.375   3.090  21.215  0.00  0.00    +0.000 C 
ATOM      9  N   UNL     1       2.573   2.489  21.837  0.00  0.00    +0.000 NA
ATOM     10  C   UNL     1       3.624   2.345  20.816  0.00  0.00    +0.000 C 
ATOM     11  C   UNL     1       3.945   3.659  20.078  0.00  0.00    +0.000 C 
ATOM     12  N   UNL     1       2.305   6.545  18.943  0.00  0.00    +0.000 NA
ATOM     13  C   UNL     1       2.616   7.658  18.266  0.00  0.00    +0.000 A 
ATOM     14  N   UNL     1       1.912   8.806  18.603  0.00  0.00    +0.000 N 
ATOM     15  N   UNL     1       3.588   7.805  17.361  0.00  0.00    +0.000 NA
ATOM     16  C   UNL     1       4.203   6.641  17.096  0.00  0.00    +0.000 A 
ATOM     17  N   UNL     1       5.259   6.495  16.237  0.00  0.00    +0.000 N 
ATOM     18  H   UNL     1       2.332   1.567  22.197  0.00  0.00    +0.000 HD
ATOM     19  H   UNL     1       1.555   8.703  19.543  0.00  0.00    +0.000 HD
ATOM     20  H   UNL     1       2.481   9.613  18.409  0.00  0.00    +0.000 HD
ATOM     21  H   UNL     1       5.687   7.260  15.741  0.00  0.00    +0.000 HD
ENDROOT
TORSDOF 0
ENDMDL
MODEL 7
REMARK VINA RESULT:      -6.6      3.524      5.692
REMARK  Name = 
REMARK  1 active torsions:
REMARK  status: ('A' for Active; 'I' for Inactive)
REMARK    1  A    between atoms: C_1  and  C_2
REMARK                            x       y       z     vdW  Elec       q    Type
REMARK                         _______ _______ _______ _____ _____    ______ ____
ROOT
ATOM      1  C   UNL     1       1.517   2.575  21.790  0.00  0.00    +0.000 C 
ATOM      2  C   UNL     1       2.083   3.398  20.698  0.00  0.00    +0.000 A 
ATOM      3  C   UNL     1       1.613   4.559  20.121  0.00  0.00    +0.000 A 
ATOM      4  C   UNL     1       2.653   5.100  19.312  0.00  0.00    +0.000 A 
ATOM      5  C   UNL     1       2.906   6.316  18.642  0.00  0.00    +0.000 A 
ATOM      6  N   UNL     1       2.068   7.445  18.761  0.00  0.00    +0.000 N 
ATOM      7  C   UNL     1       2.522   8.598  17.956  0.00  0.00    +0.000 C 
ATOM      8  C   UNL     1       1.497   9.752  18.062  0.00  0.00    +0.000 C 
ATOM      9  N   UNL     1       1.224  10.175  19.451  0.00  0.00    +0.000 NA
ATOM     10  C   UNL     1       0.816   9.001  20.239  0.00  0.00    +0.000 C 
ATOM     11  C   UNL     1       1.823   7.836  20.170  0.00  0.00    +0.000 C 
ATOM     12  N   UNL     1       4.039   6.365  17.883  0.00  0.00    +0.000 NA
ATOM     13  C   UNL     1       4.877   5.321  17.849  0.00  0.00    +0.000 A 
ATOM     14  N   UNL     1       6.021   5.469  17.076  0.00  0.00    +0.000 N 
ATOM     15  N   UNL     1       4.776   4.184  18.545  0.00  0.00    +0.000 NA
ATOM     16  C   UNL     1       3.636   4.132  19.251  0.00  0.00    +0.000 A 
ATOM     17  N   UNL     1       3.281   3.105  20.084  0.00  0.00    +0.000 N 
ATOM     18  H   UNL     1       0.463  10.853  19.448  0.00  0.00    +0.000 HD
ATOM     19  H   UNL     1       6.216   6.455  16.972  0.00  0.00    +0.000 HD
ATOM     20  H   UNL     1       6.752   4.888  17.451  0.00  0.00    +0.000 HD
ATOM     21  H   UNL     1       3.861   2.300  20.258  0.00  0.00    +0.000 HD
ENDROOT
TORSDOF 0
ENDMDL
MODEL 8
REMARK VINA RESULT:      -6.6      2.766      5.689
REMARK  Name = 
REMARK  1 active torsions:
REMARK  status: ('A' for Active; 'I' for Inactive)
REMARK    1  A    between atoms: C_1  and  C_2
REMARK                            x       y       z     vdW  Elec       q    Type
REMARK                         _______ _______ _______ _____ _____    ______ ____
ROOT
ATOM      1  C   UNL     1       2.156   3.230  21.618  0.00  0.00    +0.000 C 
ATOM      2  C   UNL     1       2.585   4.349  20.750  0.00  0.00    +0.000 A 
ATOM      3  C   UNL     1       3.610   4.421  19.831  0.00  0.00    +0.000 A 
ATOM      4  C   UNL     1       3.432   5.610  19.067  0.00  0.00    +0.000 A 
ATOM      5  C   UNL     1       3.972   6.162  17.885  0.00  0.00    +0.000 A 
ATOM      6  N   UNL     1       4.870   5.461  17.053  0.00  0.00    +0.000 N 
ATOM      7  C   UNL     1       5.316   6.246  15.882  0.00  0.00    +0.000 C 
ATOM      8  C   UNL     1       6.372   5.446  15.083  0.00  0.00    +0.000 C 
ATOM      9  N   UNL     1       5.906   4.111  14.656  0.00  0.00    +0.000 NA
ATOM     10  C   UNL     1       5.429   3.369  15.835  0.00  0.00    +0.000 C 
ATOM     11  C   UNL     1       4.362   4.130  16.647  0.00  0.00    +0.000 C 
ATOM     12  N   UNL     1       3.554   7.419  17.558  0.00  0.00    +0.000 NA
ATOM     13  C   UNL     1       2.630   8.041  18.303  0.00  0.00    +0.000 A 
ATOM     14  N   UNL     1       2.239   9.304  17.879  0.00  0.00    +0.000 N 
ATOM     15  N   UNL     1       1.982   7.545  19.361  0.00  0.00    +0.000 NA
ATOM     16  C   UNL     1       2.435   6.327  19.698  0.00  0.00    +0.000 A 
ATOM     17  N   UNL     1       1.935   5.563  20.718  0.00  0.00    +0.000 N 
ATOM     18  H   UNL     1       6.686   3.605  14.239  0.00  0.00    +0.000 HD
ATOM     19  H   UNL     1       2.432   9.388  16.891  0.00  0.00    +0.000 HD
ATOM     20  H   UNL     1       1.296   9.479  18.184  0.00  0.00    +0.000 HD
ATOM     21  H   UNL     1       1.158   5.841  21.296  0.00  0.00    +0.000 HD
ENDROOT
TORSDOF 0
ENDMDL
MODEL 9
REMARK VINA RESULT:      -6.6      3.002      4.427
REMARK  Name = 
REMARK  1 active torsions:
REMARK  status: ('A' for Active; 'I' for Inactive)
REMARK    1  A    between atoms: C_1  and  C_2
REMARK                            x       y       z     vdW  Elec       q    Type
REMARK                         _______ _______ _______ _____ _____    ______ ____
ROOT
ATOM      1  C   UNL     1       1.107   9.359  19.223  0.00  0.00    +0.000 C 
ATOM      2  C   UNL     1       2.097   8.364  18.753  0.00  0.00    +0.000 A 
ATOM      3  C   UNL     1       2.299   7.056  19.141  0.00  0.00    +0.000 A 
ATOM      4  C   UNL     1       3.182   6.452  18.201  0.00  0.00    +0.000 A 
ATOM      5  C   UNL     1       3.618   5.144  17.896  0.00  0.00    +0.000 A 
ATOM      6  N   UNL     1       3.083   3.994  18.514  0.00  0.00    +0.000 N 
ATOM      7  C   UNL     1       3.707   2.737  18.049  0.00  0.00    +0.000 C 
ATOM      8  C   UNL     1       3.138   1.540  18.846  0.00  0.00    +0.000 C 
ATOM      9  N   UNL     1       1.665   1.433  18.785  0.00  0.00    +0.000 NA
ATOM     10  C   UNL     1       1.073   2.712  19.212  0.00  0.00    +0.000 C 
ATOM     11  C   UNL     1       1.605   3.926  18.426  0.00  0.00    +0.000 C 
ATOM     12  N   UNL     1       4.579   5.035  16.933  0.00  0.00    +0.000 NA
ATOM     13  C   UNL     1       5.015   6.125  16.285  0.00  0.00    +0.000 A 
ATOM     14  N   UNL     1       5.970   5.919  15.299  0.00  0.00    +0.000 N 
ATOM     15  N   UNL     1       4.570   7.377  16.426  0.00  0.00    +0.000 NA
ATOM     16  C   UNL     1       3.659   7.475  17.407  0.00  0.00    +0.000 A 
ATOM     17  N   UNL     1       3.006   8.628  17.752  0.00  0.00    +0.000 N 
ATOM     18  H   UNL     1       1.359   0.698  19.420  0.00  0.00    +0.000 HD
ATOM     19  H   UNL     1       5.903   4.963  14.978  0.00  0.00    +0.000 HD
ATOM     20  H   UNL     1       5.895   6.646  14.608  0.00  0.00    +0.000 HD
ATOM     21  H   UNL     1       3.136   9.508  17.279  0.00  0.00    +0.000 HD
ENDROOT
TORSDOF 0
ENDMDL
