MODEL 1
REMARK VINA RESULT:      -9.4      0.000      0.000
REMARK  Name = 
REMARK  4 active torsions:
REMARK  status: ('A' for Active; 'I' for Inactive)
REMARK    1  A    between atoms: C_4  and  O_5
REMARK    2  A    between atoms: O_5  and  C_6
REMARK    3  A    between atoms: C_6  and  C_7
REMARK    4  A    between atoms: C_20  and  C_21
REMARK                            x       y       z     vdW  Elec       q    Type
REMARK                         _______ _______ _______ _____ _____    ______ ____
ROOT
ATOM      1  O   UNL     1       2.353   3.305  20.452  0.00  0.00    +0.000 OA
ATOM      2  C   UNL     1       2.708   4.118  19.604  0.00  0.00    +0.000 A 
ATOM      3  N   UNL     1       3.491   3.711  18.548  0.00  0.00    +0.000 NA
ATOM      4  C   UNL     1       3.850   4.620  17.723  0.00  0.00    +0.000 A 
ATOM      5  C   UNL     1       3.500   6.034  17.742  0.00  0.00    +0.000 A 
ATOM      6  C   UNL     1       2.696   6.417  18.746  0.00  0.00    +0.000 A 
ATOM      7  N   UNL     1       2.323   5.476  19.691  0.00  0.00    +0.000 N 
ATOM      8  C   UNL     1       1.514   5.819  20.852  0.00  0.00    +0.000 C 
ATOM      9  C   UNL     1       1.074   7.264  21.039  0.00  0.00    +0.000 C 
ATOM     10  C   UNL     1       1.444   8.223  19.949  0.00  0.00    +0.000 A 
ATOM     11  C   UNL     1       0.996   9.560  20.074  0.00  0.00    +0.000 A 
ATOM     12  C   UNL     1       1.295  10.543  19.120  0.00  0.00    +0.000 A 
ATOM     13  C   UNL     1       2.043  10.126  18.014  0.00  0.00    +0.000 A 
ATOM     14  C   UNL     1       2.486   8.801  17.878  0.00  0.00    +0.000 A 
ATOM     15  C   UNL     1       2.215   7.824  18.850  0.00  0.00    +0.000 A 
ENDROOT
BRANCH  12  16
ATOM     16  C   UNL     1       0.855  11.947  19.272  0.00  0.00    +0.000 A 
ATOM     17  C   UNL     1      -0.256  12.297  20.038  0.00  0.00    +0.000 A 
ATOM     18  C   UNL     1      -0.683  13.628  20.112  0.00  0.00    +0.000 A 
ATOM     19  C   UNL     1      -0.004  14.634  19.429  0.00  0.00    +0.000 A 
ATOM     20  N   UNL     1      -0.431  15.936  19.456  0.00  0.00    +0.000 N 
ATOM     21  C   UNL     1      -1.731  16.384  19.919  0.00  0.00    +0.000 C 
ATOM     22  C   UNL     1      -2.015  17.602  19.050  0.00  0.00    +0.000 C 
ATOM     23  C   UNL     1      -0.638  18.203  18.824  0.00  0.00    +0.000 C 
ATOM     24  C   UNL     1       0.306  16.996  18.781  0.00  0.00    +0.000 C 
ATOM     25  N   UNL     1       1.100  14.323  18.717  0.00  0.00    +0.000 NA
ATOM     26  C   UNL     1       1.491  13.019  18.649  0.00  0.00    +0.000 A 
ENDBRANCH  12  16
BRANCH   4  27
ATOM     27  O   UNL     1       4.632   4.409  16.642  0.00  0.00    +0.000 OA
BRANCH  27  28
ATOM     28  C   UNL     1       5.291   5.520  15.989  0.00  0.00    +0.000 C 
BRANCH  28  29
ATOM     29  C   UNL     1       6.804   5.322  16.203  0.00  0.00    +0.000 C 
ATOM     30  C   UNL     1       7.129   4.359  17.352  0.00  0.00    +0.000 C 
ATOM     31  O   UNL     1       6.997   4.985  18.634  0.00  0.00    +0.000 OA
ATOM     32  C   UNL     1       7.878   6.113  18.703  0.00  0.00    +0.000 C 
ATOM     33  C   UNL     1       7.483   7.134  17.643  0.00  0.00    +0.000 C 
ATOM     34  O   UNL     1       7.530   6.565  16.329  0.00  0.00    +0.000 OA
ENDBRANCH  28  29
ENDBRANCH  27  28
ENDBRANCH   4  27
TORSDOF 4
ENDMDL
MODEL 2
REMARK VINA RESULT:      -9.4      1.911      2.582
REMARK  Name = 
REMARK  4 active torsions:
REMARK  status: ('A' for Active; 'I' for Inactive)
REMARK    1  A    between atoms: C_4  and  O_5
REMARK    2  A    between atoms: O_5  and  C_6
REMARK    3  A    between atoms: C_6  and  C_7
REMARK    4  A    between atoms: C_20  and  C_21
REMARK                            x       y       z     vdW  Elec       q    Type
REMARK                         _______ _______ _______ _____ _____    ______ ____
ROOT
ATOM      1  O   UNL     1       3.044   1.662  19.209  0.00  0.00    +0.000 OA
ATOM      2  C   UNL     1       3.315   2.728  18.664  0.00  0.00    +0.000 A 
ATOM      3  N   UNL     1       4.152   2.747  17.571  0.00  0.00    +0.000 NA
ATOM      4  C   UNL     1       4.416   3.896  17.078  0.00  0.00    +0.000 A 
ATOM      5  C   UNL     1       3.910   5.192  17.509  0.00  0.00    +0.000 A 
ATOM      6  C   UNL     1       3.056   5.165  18.543  0.00  0.00    +0.000 A 
ATOM      7  N   UNL     1       2.779   3.946  19.141  0.00  0.00    +0.000 N 
ATOM      8  C   UNL     1       1.924   3.832  20.313  0.00  0.00    +0.000 C 
ATOM      9  C   UNL     1       1.323   5.097  20.909  0.00  0.00    +0.000 C 
ATOM     10  C   UNL     1       1.596   6.377  20.180  0.00  0.00    +0.000 A 
ATOM     11  C   UNL     1       0.999   7.558  20.684  0.00  0.00    +0.000 A 
ATOM     12  C   UNL     1       1.198   8.811  20.087  0.00  0.00    +0.000 A 
ATOM     13  C   UNL     1       2.001   8.833  18.942  0.00  0.00    +0.000 A 
ATOM     14  C   UNL     1       2.591   7.666  18.431  0.00  0.00    +0.000 A 
ATOM     15  C   UNL     1       2.420   6.415  19.048  0.00  0.00    +0.000 A 
ENDROOT
BRANCH  12  16
ATOM     16  C   UNL     1       0.601  10.048  20.638  0.00  0.00    +0.000 A 
ATOM     17  C   UNL     1       0.325  11.157  19.840  0.00  0.00    +0.000 A 
ATOM     18  C   UNL     1      -0.182  12.333  20.402  0.00  0.00    +0.000 A 
ATOM     19  C   UNL     1      -0.429  12.422  21.770  0.00  0.00    +0.000 A 
ATOM     20  N   UNL     1      -0.886  13.578  22.345  0.00  0.00    +0.000 N 
ATOM     21  C   UNL     1      -0.896  14.884  21.712  0.00  0.00    +0.000 C 
ATOM     22  C   UNL     1      -0.687  15.843  22.877  0.00  0.00    +0.000 C 
ATOM     23  C   UNL     1      -1.393  15.153  24.033  0.00  0.00    +0.000 C 
ATOM     24  C   UNL     1      -1.191  13.656  23.767  0.00  0.00    +0.000 C 
ATOM     25  N   UNL     1      -0.211  11.345  22.554  0.00  0.00    +0.000 NA
ATOM     26  C   UNL     1       0.295  10.213  21.987  0.00  0.00    +0.000 A 
ENDBRANCH  12  16
BRANCH   4  27
ATOM     27  O   UNL     1       5.230   4.108  16.021  0.00  0.00    +0.000 OA
BRANCH  27  28
ATOM     28  C   UNL     1       5.673   5.448  15.697  0.00  0.00    +0.000 C 
BRANCH  28  29
ATOM     29  C   UNL     1       7.174   5.510  16.042  0.00  0.00    +0.000 C 
ATOM     30  C   UNL     1       7.598   4.459  17.075  0.00  0.00    +0.000 C 
ATOM     31  O   UNL     1       7.243   4.840  18.410  0.00  0.00    +0.000 OA
ATOM     32  C   UNL     1       7.867   6.090  18.728  0.00  0.00    +0.000 C 
ATOM     33  C   UNL     1       7.354   7.170  17.784  0.00  0.00    +0.000 C 
ATOM     34  O   UNL     1       7.618   6.834  16.416  0.00  0.00    +0.000 OA
ENDBRANCH  28  29
ENDBRANCH  27  28
ENDBRANCH   4  27
TORSDOF 4
ENDMDL
MODEL 3
REMARK VINA RESULT:      -9.3      0.638      1.146
REMARK  Name = 
REMARK  4 active torsions:
REMARK  status: ('A' for Active; 'I' for Inactive)
REMARK    1  A    between atoms: C_4  and  O_5
REMARK    2  A    between atoms: O_5  and  C_6
REMARK    3  A    between atoms: C_6  and  C_7
REMARK    4  A    between atoms: C_20  and  C_21
REMARK                            x       y       z     vdW  Elec       q    Type
REMARK                         _______ _______ _______ _____ _____    ______ ____
ROOT
ATOM      1  O   UNL     1       2.479   3.417  20.620  0.00  0.00    +0.000 OA
ATOM      2  C   UNL     1       2.818   4.208  19.745  0.00  0.00    +0.000 A 
ATOM      3  N   UNL     1       3.624   3.785  18.712  0.00  0.00    +0.000 NA
ATOM      4  C   UNL     1       3.963   4.672  17.857  0.00  0.00    +0.000 A 
ATOM      5  C   UNL     1       3.570   6.074  17.818  0.00  0.00    +0.000 A 
ATOM      6  C   UNL     1       2.744   6.470  18.798  0.00  0.00    +0.000 A 
ATOM      7  N   UNL     1       2.390   5.555  19.776  0.00  0.00    +0.000 N 
ATOM      8  C   UNL     1       1.559   5.917  20.915  0.00  0.00    +0.000 C 
ATOM      9  C   UNL     1       1.073   7.354  21.042  0.00  0.00    +0.000 C 
ATOM     10  C   UNL     1       1.425   8.282  19.919  0.00  0.00    +0.000 A 
ATOM     11  C   UNL     1       0.934   9.608  19.988  0.00  0.00    +0.000 A 
ATOM     12  C   UNL     1       1.212  10.562  18.999  0.00  0.00    +0.000 A 
ATOM     13  C   UNL     1       1.984  10.127  17.917  0.00  0.00    +0.000 A 
ATOM     14  C   UNL     1       2.469   8.812  17.837  0.00  0.00    +0.000 A 
ATOM     15  C   UNL     1       2.219   7.865  18.844  0.00  0.00    +0.000 A 
ENDROOT
BRANCH  12  16
ATOM     16  C   UNL     1       0.728  11.957  19.093  0.00  0.00    +0.000 A 
ATOM     17  C   UNL     1       1.447  13.029  18.568  0.00  0.00    +0.000 A 
ATOM     18  C   UNL     1       0.991  14.342  18.727  0.00  0.00    +0.000 A 
ATOM     19  C   UNL     1      -0.195  14.608  19.407  0.00  0.00    +0.000 A 
ATOM     20  N   UNL     1      -0.637  15.890  19.609  0.00  0.00    +0.000 N 
ATOM     21  C   UNL     1       0.157  17.091  19.422  0.00  0.00    +0.000 C 
ATOM     22  C   UNL     1      -0.400  18.047  20.468  0.00  0.00    +0.000 C 
ATOM     23  C   UNL     1      -1.873  17.677  20.536  0.00  0.00    +0.000 C 
ATOM     24  C   UNL     1      -1.901  16.166  20.277  0.00  0.00    +0.000 C 
ATOM     25  N   UNL     1      -0.930  13.582  19.884  0.00  0.00    +0.000 NA
ATOM     26  C   UNL     1      -0.461  12.311  19.729  0.00  0.00    +0.000 A 
ENDBRANCH  12  16
BRANCH   4  27
ATOM     27  O   UNL     1       4.763   4.444  16.791  0.00  0.00    +0.000 OA
BRANCH  27  28
ATOM     28  C   UNL     1       5.355   5.552  16.073  0.00  0.00    +0.000 C 
BRANCH  28  29
ATOM     29  C   UNL     1       6.881   5.426  16.250  0.00  0.00    +0.000 C 
ATOM     30  C   UNL     1       7.278   4.474  17.386  0.00  0.00    +0.000 C 
ATOM     31  O   UNL     1       7.147   5.087  18.674  0.00  0.00    +0.000 OA
ATOM     32  C   UNL     1       7.974   6.256  18.730  0.00  0.00    +0.000 C 
ATOM     33  C   UNL     1       7.505   7.262  17.686  0.00  0.00    +0.000 C 
ATOM     34  O   UNL     1       7.549   6.702  16.367  0.00  0.00    +0.000 OA
ENDBRANCH  28  29
ENDBRANCH  27  28
ENDBRANCH   4  27
TORSDOF 4
ENDMDL
MODEL 4
REMARK VINA RESULT:      -9.2      3.446      5.163
REMARK  Name = 
REMARK  4 active torsions:
REMARK  status: ('A' for Active; 'I' for Inactive)
REMARK    1  A    between atoms: C_4  and  O_5
REMARK    2  A    between atoms: O_5  and  C_6
REMARK    3  A    between atoms: C_6  and  C_7
REMARK    4  A    between atoms: C_20  and  C_21
REMARK                            x       y       z     vdW  Elec       q    Type
REMARK                         _______ _______ _______ _____ _____    ______ ____
ROOT
ATOM      1  O   UNL     1       3.196   7.846  17.014  0.00  0.00    +0.000 OA
ATOM      2  C   UNL     1       2.739   7.593  18.125  0.00  0.00    +0.000 A 
ATOM      3  N   UNL     1       3.013   6.384  18.722  0.00  0.00    +0.000 NA
ATOM      4  C   UNL     1       2.475   6.178  19.863  0.00  0.00    +0.000 A 
ATOM      5  C   UNL     1       1.633   7.085  20.631  0.00  0.00    +0.000 A 
ATOM      6  C   UNL     1       1.409   8.282  20.068  0.00  0.00    +0.000 A 
ATOM      7  N   UNL     1       1.931   8.530  18.809  0.00  0.00    +0.000 N 
ATOM      8  C   UNL     1       1.676   9.772  18.093  0.00  0.00    +0.000 C 
ATOM      9  C   UNL     1       0.796  10.828  18.745  0.00  0.00    +0.000 C 
ATOM     10  C   UNL     1       0.319  10.537  20.136  0.00  0.00    +0.000 A 
ATOM     11  C   UNL     1      -0.454  11.531  20.783  0.00  0.00    +0.000 A 
ATOM     12  C   UNL     1      -0.962  11.359  22.079  0.00  0.00    +0.000 A 
ATOM     13  C   UNL     1      -0.641  10.156  22.716  0.00  0.00    +0.000 A 
ATOM     14  C   UNL     1       0.130   9.168  22.084  0.00  0.00    +0.000 A 
ATOM     15  C   UNL     1       0.611   9.326  20.774  0.00  0.00    +0.000 A 
ENDROOT
BRANCH  12  16
ATOM     16  C   UNL     1      -1.798  12.385  22.738  0.00  0.00    +0.000 A 
ATOM     17  C   UNL     1      -3.191  12.330  22.721  0.00  0.00    +0.000 A 
ATOM     18  C   UNL     1      -3.954  13.349  23.302  0.00  0.00    +0.000 A 
ATOM     19  C   UNL     1      -3.341  14.438  23.916  0.00  0.00    +0.000 A 
ATOM     20  N   UNL     1      -4.071  15.466  24.454  0.00  0.00    +0.000 N 
ATOM     21  C   UNL     1      -5.482  15.707  24.217  0.00  0.00    +0.000 C 
ATOM     22  C   UNL     1      -5.598  17.224  24.291  0.00  0.00    +0.000 C 
ATOM     23  C   UNL     1      -4.554  17.607  25.328  0.00  0.00    +0.000 C 
ATOM     24  C   UNL     1      -3.432  16.580  25.140  0.00  0.00    +0.000 C 
ATOM     25  N   UNL     1      -1.994  14.489  23.984  0.00  0.00    +0.000 NA
ATOM     26  C   UNL     1      -1.270  13.492  23.401  0.00  0.00    +0.000 A 
ENDBRANCH  12  16
BRANCH   4  27
ATOM     27  O   UNL     1       2.617   5.045  20.585  0.00  0.00    +0.000 OA
BRANCH  27  28
ATOM     28  C   UNL     1       1.466   4.218  20.879  0.00  0.00    +0.000 C 
BRANCH  28  29
ATOM     29  C   UNL     1       1.869   2.768  20.545  0.00  0.00    +0.000 C 
ATOM     30  C   UNL     1       3.387   2.553  20.537  0.00  0.00    +0.000 C 
ATOM     31  O   UNL     1       3.994   3.034  19.331  0.00  0.00    +0.000 OA
ATOM     32  C   UNL     1       3.417   2.356  18.207  0.00  0.00    +0.000 C 
ATOM     33  C   UNL     1       1.928   2.667  18.136  0.00  0.00    +0.000 C 
ATOM     34  O   UNL     1       1.254   2.270  19.336  0.00  0.00    +0.000 OA
ENDBRANCH  28  29
ENDBRANCH  27  28
ENDBRANCH   4  27
TORSDOF 4
ENDMDL
MODEL 5
REMARK VINA RESULT:      -8.8      2.839      3.814
REMARK  Name = 
REMARK  4 active torsions:
REMARK  status: ('A' for Active; 'I' for Inactive)
REMARK    1  A    between atoms: C_4  and  O_5
REMARK    2  A    between atoms: O_5  and  C_6
REMARK    3  A    between atoms: C_6  and  C_7
REMARK    4  A    between atoms: C_20  and  C_21
REMARK                            x       y       z     vdW  Elec       q    Type
REMARK                         _______ _______ _______ _____ _____    ______ ____
ROOT
ATOM      1  O   UNL     1       4.350   2.876  19.082  0.00  0.00    +0.000 OA
ATOM      2  C   UNL     1       4.312   4.009  18.611  0.00  0.00    +0.000 A 
ATOM      3  N   UNL     1       5.087   4.325  17.518  0.00  0.00    +0.000 NA
ATOM      4  C   UNL     1       5.021   5.532  17.104  0.00  0.00    +0.000 A 
ATOM      5  C   UNL     1       4.194   6.612  17.625  0.00  0.00    +0.000 A 
ATOM      6  C   UNL     1       3.403   6.287  18.659  0.00  0.00    +0.000 A 
ATOM      7  N   UNL     1       3.478   5.003  19.173  0.00  0.00    +0.000 N 
ATOM      8  C   UNL     1       2.711   4.586  20.338  0.00  0.00    +0.000 C 
ATOM      9  C   UNL     1       1.805   5.600  21.022  0.00  0.00    +0.000 C 
ATOM     10  C   UNL     1       1.707   6.951  20.381  0.00  0.00    +0.000 A 
ATOM     11  C   UNL     1       0.826   7.891  20.967  0.00  0.00    +0.000 A 
ATOM     12  C   UNL     1       0.665   9.187  20.457  0.00  0.00    +0.000 A 
ATOM     13  C   UNL     1       1.407   9.499  19.313  0.00  0.00    +0.000 A 
ATOM     14  C   UNL     1       2.278   8.571  18.721  0.00  0.00    +0.000 A 
ATOM     15  C   UNL     1       2.464   7.284  19.251  0.00  0.00    +0.000 A 
ENDROOT
BRANCH  12  16
ATOM     16  C   UNL     1      -0.230  10.177  21.094  0.00  0.00    +0.000 A 
ATOM     17  C   UNL     1      -0.483  10.175  22.465  0.00  0.00    +0.000 A 
ATOM     18  C   UNL     1      -1.383  11.087  23.027  0.00  0.00    +0.000 A 
ATOM     19  C   UNL     1      -2.040  12.023  22.232  0.00  0.00    +0.000 A 
ATOM     20  N   UNL     1      -2.955  12.897  22.758  0.00  0.00    +0.000 N 
ATOM     21  C   UNL     1      -3.559  12.790  24.074  0.00  0.00    +0.000 C 
ATOM     22  C   UNL     1      -4.948  13.382  23.874  0.00  0.00    +0.000 C 
ATOM     23  C   UNL     1      -4.724  14.463  22.828  0.00  0.00    +0.000 C 
ATOM     24  C   UNL     1      -3.607  13.908  21.936  0.00  0.00    +0.000 C 
ATOM     25  N   UNL     1      -1.776  12.072  20.910  0.00  0.00    +0.000 NA
ATOM     26  C   UNL     1      -0.905  11.166  20.381  0.00  0.00    +0.000 A 
ENDBRANCH  12  16
BRANCH   4  27
ATOM     27  O   UNL     1       5.723   6.025  16.061  0.00  0.00    +0.000 OA
BRANCH  27  28
ATOM     28  C   UNL     1       5.496   5.520  14.724  0.00  0.00    +0.000 C 
BRANCH  28  29
ATOM     29  C   UNL     1       6.604   4.483  14.451  0.00  0.00    +0.000 C 
ATOM     30  C   UNL     1       7.797   5.066  13.684  0.00  0.00    +0.000 C 
ATOM     31  O   UNL     1       7.527   5.194  12.282  0.00  0.00    +0.000 OA
ATOM     32  C   UNL     1       7.205   3.906  11.742  0.00  0.00    +0.000 C 
ATOM     33  C   UNL     1       5.945   3.374  12.413  0.00  0.00    +0.000 C 
ATOM     34  O   UNL     1       6.112   3.273  13.832  0.00  0.00    +0.000 OA
ENDBRANCH  28  29
ENDBRANCH  27  28
ENDBRANCH   4  27
TORSDOF 4
ENDMDL
MODEL 6
REMARK VINA RESULT:      -8.6      1.280      2.024
REMARK  Name = 
REMARK  4 active torsions:
REMARK  status: ('A' for Active; 'I' for Inactive)
REMARK    1  A    between atoms: C_4  and  O_5
REMARK    2  A    between atoms: O_5  and  C_6
REMARK    3  A    between atoms: C_6  and  C_7
REMARK    4  A    between atoms: C_20  and  C_21
REMARK                            x       y       z     vdW  Elec       q    Type
REMARK                         _______ _______ _______ _____ _____    ______ ____
ROOT
ATOM      1  O   UNL     1       1.818   3.958  21.326  0.00  0.00    +0.000 OA
ATOM      2  C   UNL     1       2.159   4.567  20.317  0.00  0.00    +0.000 A 
ATOM      3  N   UNL     1       2.770   3.894  19.283  0.00  0.00    +0.000 NA
ATOM      4  C   UNL     1       3.127   4.600  18.279  0.00  0.00    +0.000 A 
ATOM      5  C   UNL     1       2.935   6.029  18.076  0.00  0.00    +0.000 A 
ATOM      6  C   UNL     1       2.294   6.672  19.064  0.00  0.00    +0.000 A 
ATOM      7  N   UNL     1       1.933   5.957  20.194  0.00  0.00    +0.000 N 
ATOM      8  C   UNL     1       1.302   6.588  21.344  0.00  0.00    +0.000 C 
ATOM      9  C   UNL     1       1.042   8.087  21.308  0.00  0.00    +0.000 C 
ATOM     10  C   UNL     1       1.387   8.797  20.034  0.00  0.00    +0.000 A 
ATOM     11  C   UNL     1       1.100  10.181  19.957  0.00  0.00    +0.000 A 
ATOM     12  C   UNL     1       1.392  10.945  18.818  0.00  0.00    +0.000 A 
ATOM     13  C   UNL     1       1.961  10.259  17.740  0.00  0.00    +0.000 A 
ATOM     14  C   UNL     1       2.242   8.885  17.805  0.00  0.00    +0.000 A 
ATOM     15  C   UNL     1       1.981   8.126  18.958  0.00  0.00    +0.000 A 
ENDROOT
BRANCH  12  16
ATOM     16  C   UNL     1       1.123  12.398  18.756  0.00  0.00    +0.000 A 
ATOM     17  C   UNL     1       2.141  13.333  18.578  0.00  0.00    +0.000 A 
ATOM     18  C   UNL     1       1.862  14.704  18.585  0.00  0.00    +0.000 A 
ATOM     19  C   UNL     1       0.560  15.166  18.762  0.00  0.00    +0.000 A 
ATOM     20  N   UNL     1       0.273  16.505  18.813  0.00  0.00    +0.000 N 
ATOM     21  C   UNL     1       1.248  17.568  18.980  0.00  0.00    +0.000 C 
ATOM     22  C   UNL     1       0.481  18.631  19.755  0.00  0.00    +0.000 C 
ATOM     23  C   UNL     1      -0.942  18.486  19.241  0.00  0.00    +0.000 C 
ATOM     24  C   UNL     1      -1.095  16.989  18.949  0.00  0.00    +0.000 C 
ATOM     25  N   UNL     1      -0.447  14.278  18.891  0.00  0.00    +0.000 NA
ATOM     26  C   UNL     1      -0.150  12.947  18.894  0.00  0.00    +0.000 A 
ENDBRANCH  12  16
BRANCH   4  27
ATOM     27  O   UNL     1       3.756   4.114  17.185  0.00  0.00    +0.000 OA
BRANCH  27  28
ATOM     28  C   UNL     1       4.651   4.958  16.423  0.00  0.00    +0.000 C 
BRANCH  28  29
ATOM     29  C   UNL     1       5.948   4.152  16.219  0.00  0.00    +0.000 C 
ATOM     30  C   UNL     1       7.214   5.012  16.317  0.00  0.00    +0.000 C 
ATOM     31  O   UNL     1       7.452   5.761  15.119  0.00  0.00    +0.000 OA
ATOM     32  C   UNL     1       7.583   4.858  14.013  0.00  0.00    +0.000 C 
ATOM     33  C   UNL     1       6.282   4.086  13.830  0.00  0.00    +0.000 C 
ATOM     34  O   UNL     1       5.939   3.355  15.013  0.00  0.00    +0.000 OA
ENDBRANCH  28  29
ENDBRANCH  27  28
ENDBRANCH   4  27
TORSDOF 4
ENDMDL
MODEL 7
REMARK VINA RESULT:      -8.6      2.928      4.769
REMARK  Name = 
REMARK  4 active torsions:
REMARK  status: ('A' for Active; 'I' for Inactive)
REMARK    1  A    between atoms: C_4  and  O_5
REMARK    2  A    between atoms: O_5  and  C_6
REMARK    3  A    between atoms: C_6  and  C_7
REMARK    4  A    between atoms: C_20  and  C_21
REMARK                            x       y       z     vdW  Elec       q    Type
REMARK                         _______ _______ _______ _____ _____    ______ ____
ROOT
ATOM      1  O   UNL     1       3.868   7.194  17.009  0.00  0.00    +0.000 OA
ATOM      2  C   UNL     1       3.308   7.025  18.088  0.00  0.00    +0.000 A 
ATOM      3  N   UNL     1       3.524   5.867  18.800  0.00  0.00    +0.000 NA
ATOM      4  C   UNL     1       2.881   5.747  19.898  0.00  0.00    +0.000 A 
ATOM      5  C   UNL     1       1.971   6.705  20.511  0.00  0.00    +0.000 A 
ATOM      6  C   UNL     1       1.801   7.853  19.838  0.00  0.00    +0.000 A 
ATOM      7  N   UNL     1       2.439   8.007  18.618  0.00  0.00    +0.000 N 
ATOM      8  C   UNL     1       2.253   9.187  17.787  0.00  0.00    +0.000 C 
ATOM      9  C   UNL     1       1.316  10.284  18.270  0.00  0.00    +0.000 C 
ATOM     10  C   UNL     1       0.710  10.099  19.628  0.00  0.00    +0.000 A 
ATOM     11  C   UNL     1      -0.120  11.135  20.121  0.00  0.00    +0.000 A 
ATOM     12  C   UNL     1      -0.747  11.060  21.373  0.00  0.00    +0.000 A 
ATOM     13  C   UNL     1      -0.488   9.911  22.129  0.00  0.00    +0.000 A 
ATOM     14  C   UNL     1       0.339   8.883  21.651  0.00  0.00    +0.000 A 
ATOM     15  C   UNL     1       0.940   8.942  20.383  0.00  0.00    +0.000 A 
ENDROOT
BRANCH  12  16
ATOM     16  C   UNL     1      -1.642  12.128  21.869  0.00  0.00    +0.000 A 
ATOM     17  C   UNL     1      -2.346  12.009  23.067  0.00  0.00    +0.000 A 
ATOM     18  C   UNL     1      -3.232  13.011  23.478  0.00  0.00    +0.000 A 
ATOM     19  C   UNL     1      -3.425  14.153  22.705  0.00  0.00    +0.000 A 
ATOM     20  N   UNL     1      -4.319  15.126  23.070  0.00  0.00    +0.000 N 
ATOM     21  C   UNL     1      -5.345  14.985  24.087  0.00  0.00    +0.000 C 
ATOM     22  C   UNL     1      -6.472  15.871  23.576  0.00  0.00    +0.000 C 
ATOM     23  C   UNL     1      -5.740  17.002  22.872  0.00  0.00    +0.000 C 
ATOM     24  C   UNL     1      -4.486  16.343  22.288  0.00  0.00    +0.000 C 
ATOM     25  N   UNL     1      -2.721  14.309  21.565  0.00  0.00    +0.000 NA
ATOM     26  C   UNL     1      -1.872  13.315  21.177  0.00  0.00    +0.000 A 
ENDBRANCH  12  16
BRANCH   4  27
ATOM     27  O   UNL     1       2.954   4.674  20.716  0.00  0.00    +0.000 OA
BRANCH  27  28
ATOM     28  C   UNL     1       1.783   3.858  20.956  0.00  0.00    +0.000 C 
BRANCH  28  29
ATOM     29  C   UNL     1       2.166   2.415  20.575  0.00  0.00    +0.000 C 
ATOM     30  C   UNL     1       3.681   2.207  20.452  0.00  0.00    +0.000 C 
ATOM     31  O   UNL     1       4.196   2.706  19.212  0.00  0.00    +0.000 OA
ATOM     32  C   UNL     1       3.541   2.040  18.125  0.00  0.00    +0.000 C 
ATOM     33  C   UNL     1       2.049   2.345  18.166  0.00  0.00    +0.000 C 
ATOM     34  O   UNL     1       1.466   1.929  19.407  0.00  0.00    +0.000 OA
ENDBRANCH  28  29
ENDBRANCH  27  28
ENDBRANCH   4  27
TORSDOF 4
ENDMDL
MODEL 8
REMARK VINA RESULT:      -8.6      2.873      4.755
REMARK  Name = 
REMARK  4 active torsions:
REMARK  status: ('A' for Active; 'I' for Inactive)
REMARK    1  A    between atoms: C_4  and  O_5
REMARK    2  A    between atoms: O_5  and  C_6
REMARK    3  A    between atoms: C_6  and  C_7
REMARK    4  A    between atoms: C_20  and  C_21
REMARK                            x       y       z     vdW  Elec       q    Type
REMARK                         _______ _______ _______ _____ _____    ______ ____
ROOT
ATOM      1  O   UNL     1       4.392   7.002  16.628  0.00  0.00    +0.000 OA
ATOM      2  C   UNL     1       3.811   6.772  17.685  0.00  0.00    +0.000 A 
ATOM      3  N   UNL     1       4.038   5.588  18.349  0.00  0.00    +0.000 NA
ATOM      4  C   UNL     1       3.373   5.404  19.425  0.00  0.00    +0.000 A 
ATOM      5  C   UNL     1       2.426   6.312  20.058  0.00  0.00    +0.000 A 
ATOM      6  C   UNL     1       2.245   7.485  19.433  0.00  0.00    +0.000 A 
ATOM      7  N   UNL     1       2.908   7.708  18.237  0.00  0.00    +0.000 N 
ATOM      8  C   UNL     1       2.714   8.921  17.455  0.00  0.00    +0.000 C 
ATOM      9  C   UNL     1       1.740   9.974  17.964  0.00  0.00    +0.000 C 
ATOM     10  C   UNL     1       1.107   9.714  19.297  0.00  0.00    +0.000 A 
ATOM     11  C   UNL     1       0.241  10.707  19.816  0.00  0.00    +0.000 A 
ATOM     12  C   UNL     1      -0.413  10.562  21.047  0.00  0.00    +0.000 A 
ATOM     13  C   UNL     1      -0.144   9.386  21.757  0.00  0.00    +0.000 A 
ATOM     14  C   UNL     1       0.717   8.400  21.254  0.00  0.00    +0.000 A 
ATOM     15  C   UNL     1       1.347   8.530  20.005  0.00  0.00    +0.000 A 
ENDROOT
BRANCH  12  16
ATOM     16  C   UNL     1      -1.344  11.586  21.569  0.00  0.00    +0.000 A 
ATOM     17  C   UNL     1      -1.774  11.591  22.895  0.00  0.00    +0.000 A 
ATOM     18  C   UNL     1      -2.703  12.537  23.342  0.00  0.00    +0.000 A 
ATOM     19  C   UNL     1      -3.213  13.500  22.475  0.00  0.00    +0.000 A 
ATOM     20  N   UNL     1      -4.154  14.409  22.883  0.00  0.00    +0.000 N 
ATOM     21  C   UNL     1      -4.929  14.323  24.108  0.00  0.00    +0.000 C 
ATOM     22  C   UNL     1      -6.255  14.970  23.733  0.00  0.00    +0.000 C 
ATOM     23  C   UNL     1      -5.854  16.043  22.734  0.00  0.00    +0.000 C 
ATOM     24  C   UNL     1      -4.653  15.447  21.991  0.00  0.00    +0.000 C 
ATOM     25  N   UNL     1      -2.777  13.541  21.199  0.00  0.00    +0.000 NA
ATOM     26  C   UNL     1      -1.881  12.602  20.781  0.00  0.00    +0.000 A 
ENDBRANCH  12  16
BRANCH   4  27
ATOM     27  O   UNL     1       3.452   4.297  20.195  0.00  0.00    +0.000 OA
BRANCH  27  28
ATOM     28  C   UNL     1       4.220   3.153  19.753  0.00  0.00    +0.000 C 
BRANCH  28  29
ATOM     29  C   UNL     1       3.216   2.003  19.543  0.00  0.00    +0.000 C 
ATOM     30  C   UNL     1       2.712   1.900  18.098  0.00  0.00    +0.000 C 
ATOM     31  O   UNL     1       1.705   2.877  17.807  0.00  0.00    +0.000 OA
ATOM     32  C   UNL     1       0.600   2.700  18.703  0.00  0.00    +0.000 C 
ATOM     33  C   UNL     1       1.066   2.924  20.136  0.00  0.00    +0.000 C 
ATOM     34  O   UNL     1       2.122   2.022  20.488  0.00  0.00    +0.000 OA
ENDBRANCH  28  29
ENDBRANCH  27  28
ENDBRANCH   4  27
TORSDOF 4
ENDMDL
MODEL 9
REMARK VINA RESULT:      -8.5      3.110      4.937
REMARK  Name = 
REMARK  4 active torsions:
REMARK  status: ('A' for Active; 'I' for Inactive)
REMARK    1  A    between atoms: C_4  and  O_5
REMARK    2  A    between atoms: O_5  and  C_6
REMARK    3  A    between atoms: C_6  and  C_7
REMARK    4  A    between atoms: C_20  and  C_21
REMARK                            x       y       z     vdW  Elec       q    Type
REMARK                         _______ _______ _______ _____ _____    ______ ____
ROOT
ATOM      1  O   UNL     1       3.745   7.166  17.104  0.00  0.00    +0.000 OA
ATOM      2  C   UNL     1       3.160   7.047  18.177  0.00  0.00    +0.000 A 
ATOM      3  N   UNL     1       3.272   5.877  18.894  0.00  0.00    +0.000 NA
ATOM      4  C   UNL     1       2.609   5.813  19.984  0.00  0.00    +0.000 A 
ATOM      5  C   UNL     1       1.773   6.844  20.585  0.00  0.00    +0.000 A 
ATOM      6  C   UNL     1       1.706   8.000  19.908  0.00  0.00    +0.000 A 
ATOM      7  N   UNL     1       2.369   8.098  18.696  0.00  0.00    +0.000 N 
ATOM      8  C   UNL     1       2.291   9.287  17.860  0.00  0.00    +0.000 C 
ATOM      9  C   UNL     1       1.442  10.459  18.330  0.00  0.00    +0.000 C 
ATOM     10  C   UNL     1       0.807  10.328  19.681  0.00  0.00    +0.000 A 
ATOM     11  C   UNL     1       0.059  11.430  20.162  0.00  0.00    +0.000 A 
ATOM     12  C   UNL     1      -0.587  11.411  21.406  0.00  0.00    +0.000 A 
ATOM     13  C   UNL     1      -0.432  10.247  22.168  0.00  0.00    +0.000 A 
ATOM     14  C   UNL     1       0.313   9.153  21.701  0.00  0.00    +0.000 A 
ATOM     15  C   UNL     1       0.932   9.159  20.440  0.00  0.00    +0.000 A 
ENDROOT
BRANCH  12  16
ATOM     16  C   UNL     1      -1.396  12.550  21.890  0.00  0.00    +0.000 A 
ATOM     17  C   UNL     1      -0.822  13.768  22.251  0.00  0.00    +0.000 A 
ATOM     18  C   UNL     1      -1.608  14.805  22.764  0.00  0.00    +0.000 A 
ATOM     19  C   UNL     1      -2.984  14.649  22.918  0.00  0.00    +0.000 A 
ATOM     20  N   UNL     1      -3.765  15.638  23.456  0.00  0.00    +0.000 N 
ATOM     21  C   UNL     1      -3.272  16.800  24.174  0.00  0.00    +0.000 C 
ATOM     22  C   UNL     1      -4.373  17.081  25.188  0.00  0.00    +0.000 C 
ATOM     23  C   UNL     1      -5.640  16.670  24.456  0.00  0.00    +0.000 C 
ATOM     24  C   UNL     1      -5.209  15.494  23.572  0.00  0.00    +0.000 C 
ATOM     25  N   UNL     1      -3.566  13.494  22.533  0.00  0.00    +0.000 NA
ATOM     26  C   UNL     1      -2.780  12.492  22.047  0.00  0.00    +0.000 A 
ENDBRANCH  12  16
BRANCH   4  27
ATOM     27  O   UNL     1       2.583   4.740  20.805  0.00  0.00    +0.000 OA
BRANCH  27  28
ATOM     28  C   UNL     1       1.378   3.948  20.935  0.00  0.00    +0.000 C 
BRANCH  28  29
ATOM     29  C   UNL     1       1.777   2.488  20.645  0.00  0.00    +0.000 C 
ATOM     30  C   UNL     1       3.290   2.249  20.735  0.00  0.00    +0.000 C 
ATOM     31  O   UNL     1       3.979   2.704  19.564  0.00  0.00    +0.000 OA
ATOM     32  C   UNL     1       3.463   2.022  18.414  0.00  0.00    +0.000 C 
ATOM     33  C   UNL     1       1.986   2.355  18.245  0.00  0.00    +0.000 C 
ATOM     34  O   UNL     1       1.232   1.984  19.405  0.00  0.00    +0.000 OA
ENDBRANCH  28  29
ENDBRANCH  27  28
ENDBRANCH   4  27
TORSDOF 4
ENDMDL
