MODEL 1
REMARK VINA RESULT:      -7.4      0.000      0.000
REMARK  Name = 
REMARK  3 active torsions:
REMARK  status: ('A' for Active; 'I' for Inactive)
REMARK    1  A    between atoms: C_1  and  C_2
REMARK    2  A    between atoms: N_14  and  C_15
REMARK    3  A    between atoms: C_15  and  C_16
REMARK                            x       y       z     vdW  Elec       q    Type
REMARK                         _______ _______ _______ _____ _____    ______ ____
ROOT
ATOM      1  C   UNL     1      -1.186  13.890  23.717  0.00  0.00    +0.000 C 
ATOM      2  C   UNL     1      -0.860  12.904  22.642  0.00  0.00    +0.000 A 
ATOM      3  C   UNL     1      -0.212  13.285  21.476  0.00  0.00    +0.000 A 
ATOM      4  C   UNL     1       0.072  12.326  20.507  0.00  0.00    +0.000 A 
ATOM      5  C   UNL     1      -0.271  10.988  20.709  0.00  0.00    +0.000 A 
ATOM      6  N   UNL     1       0.030  10.030  19.767  0.00  0.00    +0.000 N 
ATOM      7  C   UNL     1       0.002  10.293  18.340  0.00  0.00    +0.000 C 
ATOM      8  C   UNL     1       1.412  10.128  17.794  0.00  0.00    +0.000 C 
ATOM      9  C   UNL     1       2.005   8.813  18.222  0.00  0.00    +0.000 A 
ATOM     10  N   UNL     1       3.050   8.379  17.483  0.00  0.00    +0.000 NA
ATOM     11  C   UNL     1       3.615   7.239  17.886  0.00  0.00    +0.000 A 
ATOM     12  N   UNL     1       3.223   6.488  18.922  0.00  0.00    +0.000 NA
ATOM     13  C   UNL     1       2.177   6.932  19.642  0.00  0.00    +0.000 A 
ATOM     14  N   UNL     1       1.692   6.130  20.687  0.00  0.00    +0.000 N 
ATOM     15  C   UNL     1       1.533   8.132  19.338  0.00  0.00    +0.000 A 
ATOM     16  C   UNL     1       0.423   8.690  20.208  0.00  0.00    +0.000 C 
ATOM     17  N   UNL     1      -0.882  10.608  21.850  0.00  0.00    +0.000 NA
ATOM     18  C   UNL     1      -1.176  11.558  22.772  0.00  0.00    +0.000 A 
ATOM     19  H   UNL     1       0.799   5.752  20.378  0.00  0.00    +0.000 HD
ENDROOT
BRANCH  14  20
ATOM     20  C   UNL     1       2.563   5.049  21.153  0.00  0.00    +0.000 C 
BRANCH  20  21
ATOM     21  C   UNL     1       1.850   3.677  21.209  0.00  0.00    +0.000 C 
ATOM     22  C   UNL     1       0.859   3.447  20.055  0.00  0.00    +0.000 C 
ATOM     23  C   UNL     1       1.557   3.318  18.704  0.00  0.00    +0.000 C 
ATOM     24  C   UNL     1       2.595   2.201  18.721  0.00  0.00    +0.000 C 
ATOM     25  C   UNL     1       3.584   2.338  19.877  0.00  0.00    +0.000 C 
ATOM     26  C   UNL     1       2.883   2.532  21.224  0.00  0.00    +0.000 C 
ENDBRANCH  20  21
ENDBRANCH  14  20
TORSDOF 2
ENDMDL
MODEL 2
REMARK VINA RESULT:      -7.1      6.797      9.045
REMARK  Name = 
REMARK  3 active torsions:
REMARK  status: ('A' for Active; 'I' for Inactive)
REMARK    1  A    between atoms: C_1  and  C_2
REMARK    2  A    between atoms: N_14  and  C_15
REMARK    3  A    between atoms: C_15  and  C_16
REMARK                            x       y       z     vdW  Elec       q    Type
REMARK                         _______ _______ _______ _____ _____    ______ ____
ROOT
ATOM      1  C   UNL     1      -0.308  10.808  19.945  0.00  0.00    +0.000 C 
ATOM      2  C   UNL     1       0.640  11.850  19.449  0.00  0.00    +0.000 A 
ATOM      3  C   UNL     1       0.545  13.174  19.852  0.00  0.00    +0.000 A 
ATOM      4  C   UNL     1       1.455  14.106  19.362  0.00  0.00    +0.000 A 
ATOM      5  C   UNL     1       2.472  13.715  18.489  0.00  0.00    +0.000 A 
ATOM      6  N   UNL     1       3.393  14.625  18.021  0.00  0.00    +0.000 N 
ATOM      7  C   UNL     1       3.057  16.008  17.733  0.00  0.00    +0.000 C 
ATOM      8  C   UNL     1       3.845  16.900  18.679  0.00  0.00    +0.000 C 
ATOM      9  C   UNL     1       5.308  16.548  18.659  0.00  0.00    +0.000 A 
ATOM     10  N   UNL     1       6.144  17.506  19.117  0.00  0.00    +0.000 NA
ATOM     11  C   UNL     1       7.438  17.183  19.151  0.00  0.00    +0.000 A 
ATOM     12  N   UNL     1       7.973  16.025  18.748  0.00  0.00    +0.000 NA
ATOM     13  C   UNL     1       7.127  15.085  18.287  0.00  0.00    +0.000 A 
ATOM     14  N   UNL     1       7.662  13.888  17.784  0.00  0.00    +0.000 N 
ATOM     15  C   UNL     1       5.748  15.296  18.244  0.00  0.00    +0.000 A 
ATOM     16  C   UNL     1       4.782  14.205  17.826  0.00  0.00    +0.000 C 
ATOM     17  N   UNL     1       2.583  12.425  18.110  0.00  0.00    +0.000 NA
ATOM     18  C   UNL     1       1.671  11.535  18.574  0.00  0.00    +0.000 A 
ATOM     19  H   UNL     1       7.541  13.914  16.774  0.00  0.00    +0.000 HD
ENDROOT
BRANCH  14  20
ATOM     20  C   UNL     1       9.056  13.593  18.118  0.00  0.00    +0.000 C 
BRANCH  20  21
ATOM     21  C   UNL     1       9.300  12.098  18.437  0.00  0.00    +0.000 C 
ATOM     22  C   UNL     1      10.520  11.502  17.715  0.00  0.00    +0.000 C 
ATOM     23  C   UNL     1      11.837  12.088  18.214  0.00  0.00    +0.000 C 
ATOM     24  C   UNL     1      11.989  11.904  19.721  0.00  0.00    +0.000 C 
ATOM     25  C   UNL     1      10.785  12.428  20.500  0.00  0.00    +0.000 C 
ATOM     26  C   UNL     1       9.459  11.890  19.957  0.00  0.00    +0.000 C 
ENDBRANCH  20  21
ENDBRANCH  14  20
TORSDOF 2
ENDMDL
MODEL 3
REMARK VINA RESULT:      -6.6      2.826      4.520
REMARK  Name = 
REMARK  3 active torsions:
REMARK  status: ('A' for Active; 'I' for Inactive)
REMARK    1  A    between atoms: C_1  and  C_2
REMARK    2  A    between atoms: N_14  and  C_15
REMARK    3  A    between atoms: C_15  and  C_16
REMARK                            x       y       z     vdW  Elec       q    Type
REMARK                         _______ _______ _______ _____ _____    ______ ____
ROOT
ATOM      1  C   UNL     1      -6.025  11.935  16.683  0.00  0.00    +0.000 C 
ATOM      2  C   UNL     1      -4.796  11.913  17.533  0.00  0.00    +0.000 A 
ATOM      3  C   UNL     1      -4.835  12.247  18.879  0.00  0.00    +0.000 A 
ATOM      4  C   UNL     1      -3.662  12.208  19.628  0.00  0.00    +0.000 A 
ATOM      5  C   UNL     1      -2.457  11.818  19.040  0.00  0.00    +0.000 A 
ATOM      6  N   UNL     1      -1.298  11.752  19.780  0.00  0.00    +0.000 N 
ATOM      7  C   UNL     1      -0.997  12.678  20.857  0.00  0.00    +0.000 C 
ATOM      8  C   UNL     1      -0.926  11.894  22.158  0.00  0.00    +0.000 C 
ATOM      9  C   UNL     1      -0.015  10.704  22.023  0.00  0.00    +0.000 A 
ATOM     10  N   UNL     1       0.445  10.189  23.184  0.00  0.00    +0.000 NA
ATOM     11  C   UNL     1       1.213   9.103  23.076  0.00  0.00    +0.000 A 
ATOM     12  N   UNL     1       1.585   8.510  21.936  0.00  0.00    +0.000 NA
ATOM     13  C   UNL     1       1.123   9.041  20.788  0.00  0.00    +0.000 A 
ATOM     14  N   UNL     1       1.556   8.490  19.572  0.00  0.00    +0.000 N 
ATOM     15  C   UNL     1       0.280  10.153  20.781  0.00  0.00    +0.000 A 
ATOM     16  C   UNL     1      -0.328  10.691  19.500  0.00  0.00    +0.000 C 
ATOM     17  N   UNL     1      -2.416  11.472  17.737  0.00  0.00    +0.000 NA
ATOM     18  C   UNL     1      -3.563  11.541  17.016  0.00  0.00    +0.000 A 
ATOM     19  H   UNL     1       2.193   9.165  19.154  0.00  0.00    +0.000 HD
ENDROOT
BRANCH  14  20
ATOM     20  C   UNL     1       2.186   7.170  19.628  0.00  0.00    +0.000 C 
BRANCH  20  21
ATOM     21  C   UNL     1       2.554   6.614  18.231  0.00  0.00    +0.000 C 
ATOM     22  C   UNL     1       4.067   6.441  18.012  0.00  0.00    +0.000 C 
ATOM     23  C   UNL     1       4.660   5.342  18.890  0.00  0.00    +0.000 C 
ATOM     24  C   UNL     1       3.951   4.010  18.665  0.00  0.00    +0.000 C 
ATOM     25  C   UNL     1       2.435   4.121  18.815  0.00  0.00    +0.000 C 
ATOM     26  C   UNL     1       1.849   5.265  17.984  0.00  0.00    +0.000 C 
ENDBRANCH  20  21
ENDBRANCH  14  20
TORSDOF 2
ENDMDL
MODEL 4
REMARK VINA RESULT:      -6.6      0.900      1.072
REMARK  Name = 
REMARK  3 active torsions:
REMARK  status: ('A' for Active; 'I' for Inactive)
REMARK    1  A    between atoms: C_1  and  C_2
REMARK    2  A    between atoms: N_14  and  C_15
REMARK    3  A    between atoms: C_15  and  C_16
REMARK                            x       y       z     vdW  Elec       q    Type
REMARK                         _______ _______ _______ _____ _____    ______ ____
ROOT
ATOM      1  C   UNL     1      -1.357  14.455  24.340  0.00  0.00    +0.000 C 
ATOM      2  C   UNL     1      -1.092  13.561  23.173  0.00  0.00    +0.000 A 
ATOM      3  C   UNL     1      -0.422  14.013  22.045  0.00  0.00    +0.000 A 
ATOM      4  C   UNL     1      -0.198  13.139  20.985  0.00  0.00    +0.000 A 
ATOM      5  C   UNL     1      -0.621  11.811  21.059  0.00  0.00    +0.000 A 
ATOM      6  N   UNL     1      -0.379  10.933  20.026  0.00  0.00    +0.000 N 
ATOM      7  C   UNL     1      -0.392  11.335  18.631  0.00  0.00    +0.000 C 
ATOM      8  C   UNL     1       1.004  11.139  18.063  0.00  0.00    +0.000 C 
ATOM      9  C   UNL     1       1.518   9.755  18.357  0.00  0.00    +0.000 A 
ATOM     10  N   UNL     1       2.533   9.333  17.572  0.00  0.00    +0.000 NA
ATOM     11  C   UNL     1       3.028   8.127  17.859  0.00  0.00    +0.000 A 
ATOM     12  N   UNL     1       2.592   7.303  18.819  0.00  0.00    +0.000 NA
ATOM     13  C   UNL     1       1.575   7.737  19.586  0.00  0.00    +0.000 A 
ATOM     14  N   UNL     1       1.044   6.868  20.551  0.00  0.00    +0.000 N 
ATOM     15  C   UNL     1       1.005   8.998  19.404  0.00  0.00    +0.000 A 
ATOM     16  C   UNL     1      -0.068   9.535  20.331  0.00  0.00    +0.000 C 
ATOM     17  N   UNL     1      -1.254  11.359  22.161  0.00  0.00    +0.000 NA
ATOM     18  C   UNL     1      -1.489  12.231  23.173  0.00  0.00    +0.000 A 
ATOM     19  H   UNL     1       0.129   6.577  20.213  0.00  0.00    +0.000 HD
ENDROOT
BRANCH  14  20
ATOM     20  C   UNL     1       1.847   5.696  20.904  0.00  0.00    +0.000 C 
BRANCH  20  21
ATOM     21  C   UNL     1       1.145   4.357  20.574  0.00  0.00    +0.000 C 
ATOM     22  C   UNL     1       1.306   3.919  19.108  0.00  0.00    +0.000 C 
ATOM     23  C   UNL     1       2.745   3.545  18.766  0.00  0.00    +0.000 C 
ATOM     24  C   UNL     1       3.267   2.450  19.691  0.00  0.00    +0.000 C 
ATOM     25  C   UNL     1       3.090   2.797  21.168  0.00  0.00    +0.000 C 
ATOM     26  C   UNL     1       1.661   3.235  21.497  0.00  0.00    +0.000 C 
ENDBRANCH  20  21
ENDBRANCH  14  20
TORSDOF 2
ENDMDL
MODEL 5
REMARK VINA RESULT:      -6.5      7.175      9.462
REMARK  Name = 
REMARK  3 active torsions:
REMARK  status: ('A' for Active; 'I' for Inactive)
REMARK    1  A    between atoms: C_1  and  C_2
REMARK    2  A    between atoms: N_14  and  C_15
REMARK    3  A    between atoms: C_15  and  C_16
REMARK                            x       y       z     vdW  Elec       q    Type
REMARK                         _______ _______ _______ _____ _____    ______ ____
ROOT
ATOM      1  C   UNL     1      -0.545  11.243  19.486  0.00  0.00    +0.000 C 
ATOM      2  C   UNL     1       0.519  12.214  19.089  0.00  0.00    +0.000 A 
ATOM      3  C   UNL     1       0.365  13.580  19.276  0.00  0.00    +0.000 A 
ATOM      4  C   UNL     1       1.388  14.443  18.892  0.00  0.00    +0.000 A 
ATOM      5  C   UNL     1       2.569  13.943  18.341  0.00  0.00    +0.000 A 
ATOM      6  N   UNL     1       3.596  14.787  17.983  0.00  0.00    +0.000 N 
ATOM      7  C   UNL     1       3.371  16.115  17.440  0.00  0.00    +0.000 C 
ATOM      8  C   UNL     1       3.940  17.134  18.414  0.00  0.00    +0.000 C 
ATOM      9  C   UNL     1       5.358  16.793  18.784  0.00  0.00    +0.000 A 
ATOM     10  N   UNL     1       6.088  17.811  19.292  0.00  0.00    +0.000 NA
ATOM     11  C   UNL     1       7.331  17.505  19.670  0.00  0.00    +0.000 A 
ATOM     12  N   UNL     1       7.915  16.307  19.563  0.00  0.00    +0.000 NA
ATOM     13  C   UNL     1       7.177  15.306  19.048  0.00  0.00    +0.000 A 
ATOM     14  N   UNL     1       7.784  14.056  18.851  0.00  0.00    +0.000 N 
ATOM     15  C   UNL     1       5.851  15.499  18.656  0.00  0.00    +0.000 A 
ATOM     16  C   UNL     1       4.981  14.354  18.175  0.00  0.00    +0.000 C 
ATOM     17  N   UNL     1       2.733  12.614  18.176  0.00  0.00    +0.000 NA
ATOM     18  C   UNL     1       1.717  11.790  18.530  0.00  0.00    +0.000 A 
ATOM     19  H   UNL     1       7.901  13.941  17.847  0.00  0.00    +0.000 HD
ENDROOT
BRANCH  14  20
ATOM     20  C   UNL     1       9.055  13.819  19.538  0.00  0.00    +0.000 C 
BRANCH  20  21
ATOM     21  C   UNL     1      10.286  14.041  18.628  0.00  0.00    +0.000 C 
ATOM     22  C   UNL     1      11.631  13.916  19.364  0.00  0.00    +0.000 C 
ATOM     23  C   UNL     1      11.910  12.489  19.829  0.00  0.00    +0.000 C 
ATOM     24  C   UNL     1      11.868  11.508  18.661  0.00  0.00    +0.000 C 
ATOM     25  C   UNL     1      10.578  11.616  17.852  0.00  0.00    +0.000 C 
ATOM     26  C   UNL     1      10.265  13.057  17.441  0.00  0.00    +0.000 C 
ENDBRANCH  20  21
ENDBRANCH  14  20
TORSDOF 2
ENDMDL
MODEL 6
REMARK VINA RESULT:      -6.4      7.942     10.027
REMARK  Name = 
REMARK  3 active torsions:
REMARK  status: ('A' for Active; 'I' for Inactive)
REMARK    1  A    between atoms: C_1  and  C_2
REMARK    2  A    between atoms: N_14  and  C_15
REMARK    3  A    between atoms: C_15  and  C_16
REMARK                            x       y       z     vdW  Elec       q    Type
REMARK                         _______ _______ _______ _____ _____    ______ ____
ROOT
ATOM      1  C   UNL     1       1.015  12.525  19.622  0.00  0.00    +0.000 C 
ATOM      2  C   UNL     1       2.173  13.455  19.461  0.00  0.00    +0.000 A 
ATOM      3  C   UNL     1       2.471  14.420  20.413  0.00  0.00    +0.000 A 
ATOM      4  C   UNL     1       3.564  15.260  20.217  0.00  0.00    +0.000 A 
ATOM      5  C   UNL     1       4.370  15.125  19.085  0.00  0.00    +0.000 A 
ATOM      6  N   UNL     1       5.468  15.934  18.897  0.00  0.00    +0.000 N 
ATOM      7  C   UNL     1       5.501  17.325  19.312  0.00  0.00    +0.000 C 
ATOM      8  C   UNL     1       6.568  17.481  20.384  0.00  0.00    +0.000 C 
ATOM      9  C   UNL     1       7.875  16.884  19.934  0.00  0.00    +0.000 A 
ATOM     10  N   UNL     1       8.970  17.315  20.598  0.00  0.00    +0.000 NA
ATOM     11  C   UNL     1      10.126  16.753  20.241  0.00  0.00    +0.000 A 
ATOM     12  N   UNL     1      10.295  15.840  19.278  0.00  0.00    +0.000 NA
ATOM     13  C   UNL     1       9.195  15.427  18.623  0.00  0.00    +0.000 A 
ATOM     14  N   UNL     1       9.347  14.527  17.556  0.00  0.00    +0.000 N 
ATOM     15  C   UNL     1       7.926  15.915  18.939  0.00  0.00    +0.000 A 
ATOM     16  C   UNL     1       6.672  15.377  18.277  0.00  0.00    +0.000 C 
ATOM     17  N   UNL     1       4.099  14.175  18.166  0.00  0.00    +0.000 NA
ATOM     18  C   UNL     1       3.015  13.383  18.359  0.00  0.00    +0.000 A 
ATOM     19  H   UNL     1       9.165  15.049  16.703  0.00  0.00    +0.000 HD
ENDROOT
BRANCH  14  20
ATOM     20  C   UNL     1      10.628  13.826  17.456  0.00  0.00    +0.000 C 
BRANCH  20  21
ATOM     21  C   UNL     1      10.494  12.292  17.608  0.00  0.00    +0.000 C 
ATOM     22  C   UNL     1      11.741  11.617  18.206  0.00  0.00    +0.000 C 
ATOM     23  C   UNL     1      11.968  12.001  19.665  0.00  0.00    +0.000 C 
ATOM     24  C   UNL     1      10.746  11.675  20.520  0.00  0.00    +0.000 C 
ATOM     25  C   UNL     1       9.460  12.271  19.953  0.00  0.00    +0.000 C 
ATOM     26  C   UNL     1       9.266  11.940  18.471  0.00  0.00    +0.000 C 
ENDBRANCH  20  21
ENDBRANCH  14  20
TORSDOF 2
ENDMDL
MODEL 7
REMARK VINA RESULT:      -6.4      2.552      8.550
REMARK  Name = 
REMARK  3 active torsions:
REMARK  status: ('A' for Active; 'I' for Inactive)
REMARK    1  A    between atoms: C_1  and  C_2
REMARK    2  A    between atoms: N_14  and  C_15
REMARK    3  A    between atoms: C_15  and  C_16
REMARK                            x       y       z     vdW  Elec       q    Type
REMARK                         _______ _______ _______ _____ _____    ______ ____
ROOT
ATOM      1  C   UNL     1       7.464   4.816  17.127  0.00  0.00    +0.000 C 
ATOM      2  C   UNL     1       6.149   5.314  17.630  0.00  0.00    +0.000 A 
ATOM      3  C   UNL     1       5.658   4.947  18.875  0.00  0.00    +0.000 A 
ATOM      4  C   UNL     1       4.427   5.442  19.298  0.00  0.00    +0.000 A 
ATOM      5  C   UNL     1       3.698   6.317  18.491  0.00  0.00    +0.000 A 
ATOM      6  N   UNL     1       2.493   6.832  18.914  0.00  0.00    +0.000 N 
ATOM      7  C   UNL     1       1.555   6.077  19.724  0.00  0.00    +0.000 C 
ATOM      8  C   UNL     1       1.413   6.772  21.069  0.00  0.00    +0.000 C 
ATOM      9  C   UNL     1       1.117   8.237  20.890  0.00  0.00    +0.000 A 
ATOM     10  N   UNL     1       0.573   8.855  21.961  0.00  0.00    +0.000 NA
ATOM     11  C   UNL     1       0.354  10.165  21.829  0.00  0.00    +0.000 A 
ATOM     12  N   UNL     1       0.593  10.898  20.736  0.00  0.00    +0.000 NA
ATOM     13  C   UNL     1       1.129  10.265  19.676  0.00  0.00    +0.000 A 
ATOM     14  N   UNL     1       1.321  10.988  18.488  0.00  0.00    +0.000 N 
ATOM     15  C   UNL     1       1.438   8.905  19.714  0.00  0.00    +0.000 A 
ATOM     16  C   UNL     1       2.138   8.208  18.562  0.00  0.00    +0.000 C 
ATOM     17  N   UNL     1       4.179   6.695  17.289  0.00  0.00    +0.000 NA
ATOM     18  C   UNL     1       5.367   6.182  16.880  0.00  0.00    +0.000 A 
ATOM     19  H   UNL     1       0.627  10.653  17.824  0.00  0.00    +0.000 HD
ENDROOT
BRANCH  14  20
ATOM     20  C   UNL     1       1.266  12.448  18.584  0.00  0.00    +0.000 C 
BRANCH  20  21
ATOM     21  C   UNL     1       2.634  13.086  18.925  0.00  0.00    +0.000 C 
ATOM     22  C   UNL     1       2.977  14.313  18.063  0.00  0.00    +0.000 C 
ATOM     23  C   UNL     1       2.062  15.500  18.348  0.00  0.00    +0.000 C 
ATOM     24  C   UNL     1       2.095  15.883  19.825  0.00  0.00    +0.000 C 
ATOM     25  C   UNL     1       1.814  14.696  20.744  0.00  0.00    +0.000 C 
ATOM     26  C   UNL     1       2.688  13.483  20.414  0.00  0.00    +0.000 C 
ENDBRANCH  20  21
ENDBRANCH  14  20
TORSDOF 2
ENDMDL
MODEL 8
REMARK VINA RESULT:      -6.3      2.312      8.385
REMARK  Name = 
REMARK  3 active torsions:
REMARK  status: ('A' for Active; 'I' for Inactive)
REMARK    1  A    between atoms: C_1  and  C_2
REMARK    2  A    between atoms: N_14  and  C_15
REMARK    3  A    between atoms: C_15  and  C_16
REMARK                            x       y       z     vdW  Elec       q    Type
REMARK                         _______ _______ _______ _____ _____    ______ ____
ROOT
ATOM      1  C   UNL     1       7.457   5.122  16.146  0.00  0.00    +0.000 C 
ATOM      2  C   UNL     1       6.182   5.510  16.819  0.00  0.00    +0.000 A 
ATOM      3  C   UNL     1       5.823   4.993  18.055  0.00  0.00    +0.000 A 
ATOM      4  C   UNL     1       4.624   5.390  18.642  0.00  0.00    +0.000 A 
ATOM      5  C   UNL     1       3.796   6.317  18.006  0.00  0.00    +0.000 A 
ATOM      6  N   UNL     1       2.621   6.735  18.591  0.00  0.00    +0.000 N 
ATOM      7  C   UNL     1       1.788   5.860  19.396  0.00  0.00    +0.000 C 
ATOM      8  C   UNL     1       1.755   6.402  20.816  0.00  0.00    +0.000 C 
ATOM      9  C   UNL     1       1.399   7.864  20.828  0.00  0.00    +0.000 A 
ATOM     10  N   UNL     1       0.941   8.342  22.006  0.00  0.00    +0.000 NA
ATOM     11  C   UNL     1       0.672   9.649  22.039  0.00  0.00    +0.000 A 
ATOM     12  N   UNL     1       0.784  10.504  21.016  0.00  0.00    +0.000 NA
ATOM     13  C   UNL     1       1.235  10.009  19.849  0.00  0.00    +0.000 A 
ATOM     14  N   UNL     1       1.291  10.862  18.735  0.00  0.00    +0.000 N 
ATOM     15  C   UNL     1       1.587   8.666  19.708  0.00  0.00    +0.000 A 
ATOM     16  C   UNL     1       2.194   8.126  18.427  0.00  0.00    +0.000 C 
ATOM     17  N   UNL     1       4.148   6.839  16.814  0.00  0.00    +0.000 NA
ATOM     18  C   UNL     1       5.306   6.421  16.244  0.00  0.00    +0.000 A 
ATOM     19  H   UNL     1       0.547  10.572  18.105  0.00  0.00    +0.000 HD
ENDROOT
BRANCH  14  20
ATOM     20  C   UNL     1       1.201  12.300  18.995  0.00  0.00    +0.000 C 
BRANCH  20  21
ATOM     21  C   UNL     1       0.033  12.981  18.242  0.00  0.00    +0.000 C 
ATOM     22  C   UNL     1      -1.261  12.149  18.226  0.00  0.00    +0.000 C 
ATOM     23  C   UNL     1      -1.889  12.022  19.611  0.00  0.00    +0.000 C 
ATOM     24  C   UNL     1      -2.164  13.392  20.222  0.00  0.00    +0.000 C 
ATOM     25  C   UNL     1      -0.931  14.292  20.222  0.00  0.00    +0.000 C 
ATOM     26  C   UNL     1      -0.264  14.368  18.847  0.00  0.00    +0.000 C 
ENDBRANCH  20  21
ENDBRANCH  14  20
TORSDOF 2
ENDMDL
MODEL 9
REMARK VINA RESULT:      -6.3      4.554      9.306
REMARK  Name = 
REMARK  3 active torsions:
REMARK  status: ('A' for Active; 'I' for Inactive)
REMARK    1  A    between atoms: C_1  and  C_2
REMARK    2  A    between atoms: N_14  and  C_15
REMARK    3  A    between atoms: C_15  and  C_16
REMARK                            x       y       z     vdW  Elec       q    Type
REMARK                         _______ _______ _______ _____ _____    ______ ____
ROOT
ATOM      1  C   UNL     1       1.731   9.456  17.835  0.00  0.00    +0.000 C 
ATOM      2  C   UNL     1       0.360  10.035  17.964  0.00  0.00    +0.000 A 
ATOM      3  C   UNL     1      -0.759   9.371  17.482  0.00  0.00    +0.000 A 
ATOM      4  C   UNL     1      -2.016   9.952  17.630  0.00  0.00    +0.000 A 
ATOM      5  C   UNL     1      -2.158  11.182  18.276  0.00  0.00    +0.000 A 
ATOM      6  N   UNL     1      -3.400  11.751  18.450  0.00  0.00    +0.000 N 
ATOM      7  C   UNL     1      -4.466  11.627  17.473  0.00  0.00    +0.000 C 
ATOM      8  C   UNL     1      -5.613  10.857  18.108  0.00  0.00    +0.000 C 
ATOM      9  C   UNL     1      -5.989  11.450  19.439  0.00  0.00    +0.000 A 
ATOM     10  N   UNL     1      -7.221  11.130  19.892  0.00  0.00    +0.000 NA
ATOM     11  C   UNL     1      -7.543  11.610  21.094  0.00  0.00    +0.000 A 
ATOM     12  N   UNL     1      -6.777  12.393  21.863  0.00  0.00    +0.000 NA
ATOM     13  C   UNL     1      -5.555  12.708  21.393  0.00  0.00    +0.000 A 
ATOM     14  N   UNL     1      -4.756  13.589  22.138  0.00  0.00    +0.000 N 
ATOM     15  C   UNL     1      -5.095  12.229  20.166  0.00  0.00    +0.000 A 
ATOM     16  C   UNL     1      -3.683  12.493  19.680  0.00  0.00    +0.000 C 
ATOM     17  N   UNL     1      -1.076  11.822  18.765  0.00  0.00    +0.000 NA
ATOM     18  C   UNL     1       0.143  11.255  18.589  0.00  0.00    +0.000 A 
ATOM     19  H   UNL     1      -4.734  14.469  21.628  0.00  0.00    +0.000 HD
ENDROOT
BRANCH  14  20
ATOM     20  C   UNL     1      -5.146  13.822  23.530  0.00  0.00    +0.000 C 
BRANCH  20  21
ATOM     21  C   UNL     1      -4.141  13.232  24.549  0.00  0.00    +0.000 C 
ATOM     22  C   UNL     1      -3.103  12.289  23.918  0.00  0.00    +0.000 C 
ATOM     23  C   UNL     1      -2.132  13.023  22.997  0.00  0.00    +0.000 C 
ATOM     24  C   UNL     1      -1.421  14.155  23.731  0.00  0.00    +0.000 C 
ATOM     25  C   UNL     1      -2.394  15.104  24.427  0.00  0.00    +0.000 C 
ATOM     26  C   UNL     1      -3.408  14.361  25.301  0.00  0.00    +0.000 C 
ENDBRANCH  20  21
ENDBRANCH  14  20
TORSDOF 2
ENDMDL
