MODEL 1
REMARK VINA RESULT:      -7.5      0.000      0.000
REMARK  Name = 
REMARK  2 active torsions:
REMARK  status: ('A' for Active; 'I' for Inactive)
REMARK    1  A    between atoms: C_1  and  N_2
REMARK    2  A    between atoms: C_8  and  C_9
REMARK                            x       y       z     vdW  Elec       q    Type
REMARK                         _______ _______ _______ _____ _____    ______ ____
ROOT
ATOM      1  C   UNL     1       2.065   5.221  20.630  0.00  0.00    +0.000 C 
ATOM      2  N   UNL     1       2.947   4.653  19.632  0.00  0.00    +0.000 N 
ATOM      3  C   UNL     1       3.458   3.365  19.849  0.00  0.00    +0.000 A 
ATOM      4  O   UNL     1       3.214   2.686  20.846  0.00  0.00    +0.000 OA
ATOM      5  N   UNL     1       4.282   2.836  18.874  0.00  0.00    +0.000 N 
ATOM      6  C   UNL     1       4.557   3.581  17.769  0.00  0.00    +0.000 A 
ATOM      7  N   UNL     1       5.325   3.254  16.700  0.00  0.00    +0.000 N 
ATOM      8  C   UNL     1       5.291   4.328  15.829  0.00  0.00    +0.000 A 
ATOM      9  N   UNL     1       4.564   5.312  16.341  0.00  0.00    +0.000 NA
ATOM     10  C   UNL     1       4.085   4.840  17.538  0.00  0.00    +0.000 A 
ATOM     11  C   UNL     1       3.208   5.467  18.507  0.00  0.00    +0.000 A 
ATOM     12  O   UNL     1       2.737   6.594  18.361  0.00  0.00    +0.000 OA
ATOM     13  H   UNL     1       4.648   1.906  19.031  0.00  0.00    +0.000 HD
ATOM     14  H   UNL     1       5.840   2.399  16.554  0.00  0.00    +0.000 HD
ENDROOT
BRANCH   8  15
ATOM     15  C   UNL     1       5.991   4.348  14.542  0.00  0.00    +0.000 A 
ATOM     16  C   UNL     1       7.131   5.140  14.336  0.00  0.00    +0.000 A 
ATOM     17  C   UNL     1       7.787   5.134  13.102  0.00  0.00    +0.000 A 
ATOM     18  C   UNL     1       7.311   4.339  12.063  0.00  0.00    +0.000 A 
ATOM     19  C   UNL     1       6.184   3.544  12.255  0.00  0.00    +0.000 A 
ATOM     20  C   UNL     1       5.531   3.546  13.491  0.00  0.00    +0.000 A 
ENDBRANCH   8  15
TORSDOF 1
ENDMDL
MODEL 2
REMARK VINA RESULT:      -7.5      0.093      1.141
REMARK  Name = 
REMARK  2 active torsions:
REMARK  status: ('A' for Active; 'I' for Inactive)
REMARK    1  A    between atoms: C_1  and  N_2
REMARK    2  A    between atoms: C_8  and  C_9
REMARK                            x       y       z     vdW  Elec       q    Type
REMARK                         _______ _______ _______ _____ _____    ______ ____
ROOT
ATOM      1  C   UNL     1       2.179   5.266  20.606  0.00  0.00    +0.000 C 
ATOM      2  N   UNL     1       3.044   4.685  19.600  0.00  0.00    +0.000 N 
ATOM      3  C   UNL     1       3.539   3.390  19.815  0.00  0.00    +0.000 A 
ATOM      4  O   UNL     1       3.295   2.716  20.815  0.00  0.00    +0.000 OA
ATOM      5  N   UNL     1       4.346   2.849  18.833  0.00  0.00    +0.000 N 
ATOM      6  C   UNL     1       4.621   3.588  17.725  0.00  0.00    +0.000 A 
ATOM      7  N   UNL     1       5.375   3.249  16.649  0.00  0.00    +0.000 N 
ATOM      8  C   UNL     1       5.349   4.323  15.776  0.00  0.00    +0.000 A 
ATOM      9  N   UNL     1       4.639   5.317  16.294  0.00  0.00    +0.000 NA
ATOM     10  C   UNL     1       4.166   4.854  17.496  0.00  0.00    +0.000 A 
ATOM     11  C   UNL     1       3.306   5.494  18.472  0.00  0.00    +0.000 A 
ATOM     12  O   UNL     1       2.850   6.627  18.329  0.00  0.00    +0.000 OA
ATOM     13  H   UNL     1       4.701   1.914  18.988  0.00  0.00    +0.000 HD
ATOM     14  H   UNL     1       5.877   2.388  16.499  0.00  0.00    +0.000 HD
ENDROOT
BRANCH   8  15
ATOM     15  C   UNL     1       6.037   4.332  14.483  0.00  0.00    +0.000 A 
ATOM     16  C   UNL     1       5.586   3.559  13.403  0.00  0.00    +0.000 A 
ATOM     17  C   UNL     1       6.254   3.593  12.177  0.00  0.00    +0.000 A 
ATOM     18  C   UNL     1       7.379   4.398  12.017  0.00  0.00    +0.000 A 
ATOM     19  C   UNL     1       7.835   5.175  13.079  0.00  0.00    +0.000 A 
ATOM     20  C   UNL     1       7.163   5.145  14.304  0.00  0.00    +0.000 A 
ENDBRANCH   8  15
TORSDOF 1
ENDMDL
MODEL 3
REMARK VINA RESULT:      -7.3      1.323      1.326
REMARK  Name = 
REMARK  2 active torsions:
REMARK  status: ('A' for Active; 'I' for Inactive)
REMARK    1  A    between atoms: C_1  and  N_2
REMARK    2  A    between atoms: C_8  and  C_9
REMARK                            x       y       z     vdW  Elec       q    Type
REMARK                         _______ _______ _______ _____ _____    ______ ____
ROOT
ATOM      1  C   UNL     1       1.199   2.954  20.222  0.00  0.00    +0.000 C 
ATOM      2  N   UNL     1       2.437   3.107  19.485  0.00  0.00    +0.000 N 
ATOM      3  C   UNL     1       3.643   2.818  20.142  0.00  0.00    +0.000 A 
ATOM      4  O   UNL     1       3.719   2.453  21.314  0.00  0.00    +0.000 OA
ATOM      5  N   UNL     1       4.809   2.952  19.414  0.00  0.00    +0.000 N 
ATOM      6  C   UNL     1       4.733   3.355  18.116  0.00  0.00    +0.000 A 
ATOM      7  N   UNL     1       5.743   3.540  17.229  0.00  0.00    +0.000 N 
ATOM      8  C   UNL     1       5.169   3.940  16.035  0.00  0.00    +0.000 A 
ATOM      9  N   UNL     1       3.853   4.042  16.169  0.00  0.00    +0.000 NA
ATOM     10  C   UNL     1       3.577   3.655  17.457  0.00  0.00    +0.000 A 
ATOM     11  C   UNL     1       2.307   3.535  18.146  0.00  0.00    +0.000 A 
ATOM     12  O   UNL     1       1.225   3.778  17.614  0.00  0.00    +0.000 OA
ATOM     13  H   UNL     1       5.678   2.741  19.887  0.00  0.00    +0.000 HD
ATOM     14  H   UNL     1       6.731   3.424  17.391  0.00  0.00    +0.000 HD
ENDROOT
BRANCH   8  15
ATOM     15  C   UNL     1       5.940   4.223  14.822  0.00  0.00    +0.000 A 
ATOM     16  C   UNL     1       7.031   5.104  14.831  0.00  0.00    +0.000 A 
ATOM     17  C   UNL     1       7.757   5.349  13.663  0.00  0.00    +0.000 A 
ATOM     18  C   UNL     1       7.399   4.719  12.474  0.00  0.00    +0.000 A 
ATOM     19  C   UNL     1       6.321   3.838  12.450  0.00  0.00    +0.000 A 
ATOM     20  C   UNL     1       5.598   3.588  13.621  0.00  0.00    +0.000 A 
ENDBRANCH   8  15
TORSDOF 1
ENDMDL
MODEL 4
REMARK VINA RESULT:      -7.2      1.125      1.593
REMARK  Name = 
REMARK  2 active torsions:
REMARK  status: ('A' for Active; 'I' for Inactive)
REMARK    1  A    between atoms: C_1  and  N_2
REMARK    2  A    between atoms: C_8  and  C_9
REMARK                            x       y       z     vdW  Elec       q    Type
REMARK                         _______ _______ _______ _____ _____    ______ ____
ROOT
ATOM      1  C   UNL     1       1.284   3.399  20.098  0.00  0.00    +0.000 C 
ATOM      2  N   UNL     1       2.515   3.430  19.335  0.00  0.00    +0.000 N 
ATOM      3  C   UNL     1       3.698   3.013  19.963  0.00  0.00    +0.000 A 
ATOM      4  O   UNL     1       3.762   2.634  21.131  0.00  0.00    +0.000 OA
ATOM      5  N   UNL     1       4.856   3.033  19.209  0.00  0.00    +0.000 N 
ATOM      6  C   UNL     1       4.794   3.452  17.916  0.00  0.00    +0.000 A 
ATOM      7  N   UNL     1       5.798   3.540  17.007  0.00  0.00    +0.000 N 
ATOM      8  C   UNL     1       5.242   4.006  15.829  0.00  0.00    +0.000 A 
ATOM      9  N   UNL     1       3.947   4.242  15.994  0.00  0.00    +0.000 NA
ATOM     10  C   UNL     1       3.661   3.875  17.285  0.00  0.00    +0.000 A 
ATOM     11  C   UNL     1       2.400   3.880  18.001  0.00  0.00    +0.000 A 
ATOM     12  O   UNL     1       1.338   4.237  17.495  0.00  0.00    +0.000 OA
ATOM     13  H   UNL     1       5.709   2.731  19.662  0.00  0.00    +0.000 HD
ATOM     14  H   UNL     1       6.772   3.322  17.147  0.00  0.00    +0.000 HD
ENDROOT
BRANCH   8  15
ATOM     15  C   UNL     1       6.012   4.218  14.601  0.00  0.00    +0.000 A 
ATOM     16  C   UNL     1       5.703   3.540  13.412  0.00  0.00    +0.000 A 
ATOM     17  C   UNL     1       6.446   3.768  12.250  0.00  0.00    +0.000 A 
ATOM     18  C   UNL     1       7.504   4.674  12.265  0.00  0.00    +0.000 A 
ATOM     19  C   UNL     1       7.818   5.358  13.436  0.00  0.00    +0.000 A 
ATOM     20  C   UNL     1       7.072   5.134  14.597  0.00  0.00    +0.000 A 
ENDBRANCH   8  15
TORSDOF 1
ENDMDL
MODEL 5
REMARK VINA RESULT:      -7.1      4.096      5.952
REMARK  Name = 
REMARK  2 active torsions:
REMARK  status: ('A' for Active; 'I' for Inactive)
REMARK    1  A    between atoms: C_1  and  N_2
REMARK    2  A    between atoms: C_8  and  C_9
REMARK                            x       y       z     vdW  Elec       q    Type
REMARK                         _______ _______ _______ _____ _____    ______ ____
ROOT
ATOM      1  C   UNL     1      -0.737  11.601  21.358  0.00  0.00    +0.000 C 
ATOM      2  N   UNL     1       0.099  10.437  21.152  0.00  0.00    +0.000 N 
ATOM      3  C   UNL     1       0.480   9.683  22.272  0.00  0.00    +0.000 A 
ATOM      4  O   UNL     1       0.158   9.956  23.428  0.00  0.00    +0.000 OA
ATOM      5  N   UNL     1       1.261   8.566  22.050  0.00  0.00    +0.000 N 
ATOM      6  C   UNL     1       1.622   8.257  20.774  0.00  0.00    +0.000 A 
ATOM      7  N   UNL     1       2.369   7.213  20.337  0.00  0.00    +0.000 N 
ATOM      8  C   UNL     1       2.451   7.318  18.959  0.00  0.00    +0.000 A 
ATOM      9  N   UNL     1       1.816   8.405  18.543  0.00  0.00    +0.000 NA
ATOM     10  C   UNL     1       1.278   8.979  19.669  0.00  0.00    +0.000 A 
ATOM     11  C   UNL     1       0.453  10.163  19.812  0.00  0.00    +0.000 A 
ATOM     12  O   UNL     1       0.096  10.855  18.861  0.00  0.00    +0.000 OA
ATOM     13  H   UNL     1       1.534   8.022  22.858  0.00  0.00    +0.000 HD
ATOM     14  H   UNL     1       2.800   6.492  20.894  0.00  0.00    +0.000 HD
ENDROOT
BRANCH   8  15
ATOM     15  C   UNL     1       3.167   6.357  18.116  0.00  0.00    +0.000 A 
ATOM     16  C   UNL     1       4.290   6.731  17.364  0.00  0.00    +0.000 A 
ATOM     17  C   UNL     1       4.962   5.794  16.576  0.00  0.00    +0.000 A 
ATOM     18  C   UNL     1       4.518   4.475  16.529  0.00  0.00    +0.000 A 
ATOM     19  C   UNL     1       3.407   4.088  17.274  0.00  0.00    +0.000 A 
ATOM     20  C   UNL     1       2.738   5.025  18.068  0.00  0.00    +0.000 A 
ENDBRANCH   8  15
TORSDOF 1
ENDMDL
MODEL 6
REMARK VINA RESULT:      -7.0      4.306      6.323
REMARK  Name = 
REMARK  2 active torsions:
REMARK  status: ('A' for Active; 'I' for Inactive)
REMARK    1  A    between atoms: C_1  and  N_2
REMARK    2  A    between atoms: C_8  and  C_9
REMARK                            x       y       z     vdW  Elec       q    Type
REMARK                         _______ _______ _______ _____ _____    ______ ____
ROOT
ATOM      1  C   UNL     1      -0.812  11.929  21.326  0.00  0.00    +0.000 C 
ATOM      2  N   UNL     1      -0.030  10.721  21.166  0.00  0.00    +0.000 N 
ATOM      3  C   UNL     1       0.236   9.945  22.304  0.00  0.00    +0.000 A 
ATOM      4  O   UNL     1      -0.144  10.232  23.438  0.00  0.00    +0.000 OA
ATOM      5  N   UNL     1       0.967   8.786  22.125  0.00  0.00    +0.000 N 
ATOM      6  C   UNL     1       1.392   8.462  20.873  0.00  0.00    +0.000 A 
ATOM      7  N   UNL     1       2.106   7.379  20.478  0.00  0.00    +0.000 N 
ATOM      8  C   UNL     1       2.283   7.483  19.109  0.00  0.00    +0.000 A 
ATOM      9  N   UNL     1       1.736   8.605  18.660  0.00  0.00    +0.000 NA
ATOM     10  C   UNL     1       1.160   9.204  19.752  0.00  0.00    +0.000 A 
ATOM     11  C   UNL     1       0.394  10.432  19.850  0.00  0.00    +0.000 A 
ATOM     12  O   UNL     1       0.136  11.145  18.882  0.00  0.00    +0.000 OA
ATOM     13  H   UNL     1       1.157   8.226  22.945  0.00  0.00    +0.000 HD
ATOM     14  H   UNL     1       2.461   6.634  21.057  0.00  0.00    +0.000 HD
ENDROOT
BRANCH   8  15
ATOM     15  C   UNL     1       2.997   6.486  18.307  0.00  0.00    +0.000 A 
ATOM     16  C   UNL     1       2.566   5.154  18.234  0.00  0.00    +0.000 A 
ATOM     17  C   UNL     1       3.258   4.224  17.453  0.00  0.00    +0.000 A 
ATOM     18  C   UNL     1       4.388   4.616  16.740  0.00  0.00    +0.000 A 
ATOM     19  C   UNL     1       4.825   5.938  16.800  0.00  0.00    +0.000 A 
ATOM     20  C   UNL     1       4.129   6.868  17.576  0.00  0.00    +0.000 A 
ENDBRANCH   8  15
TORSDOF 1
ENDMDL
MODEL 7
REMARK VINA RESULT:      -7.0      3.540      5.179
REMARK  Name = 
REMARK  2 active torsions:
REMARK  status: ('A' for Active; 'I' for Inactive)
REMARK    1  A    between atoms: C_1  and  N_2
REMARK    2  A    between atoms: C_8  and  C_9
REMARK                            x       y       z     vdW  Elec       q    Type
REMARK                         _______ _______ _______ _____ _____    ______ ____
ROOT
ATOM      1  C   UNL     1      -0.418  10.969  20.746  0.00  0.00    +0.000 C 
ATOM      2  N   UNL     1       0.439   9.820  20.542  0.00  0.00    +0.000 N 
ATOM      3  C   UNL     1       0.707   8.986  21.637  0.00  0.00    +0.000 A 
ATOM      4  O   UNL     1       0.270   9.175  22.771  0.00  0.00    +0.000 OA
ATOM      5  N   UNL     1       1.511   7.884  21.414  0.00  0.00    +0.000 N 
ATOM      6  C   UNL     1       2.000   7.668  20.163  0.00  0.00    +0.000 A 
ATOM      7  N   UNL     1       2.790   6.655  19.728  0.00  0.00    +0.000 N 
ATOM      8  C   UNL     1       3.011   6.859  18.377  0.00  0.00    +0.000 A 
ATOM      9  N   UNL     1       2.417   7.976  17.979  0.00  0.00    +0.000 NA
ATOM     10  C   UNL     1       1.766   8.469  19.083  0.00  0.00    +0.000 A 
ATOM     11  C   UNL     1       0.927   9.642  19.228  0.00  0.00    +0.000 A 
ATOM     12  O   UNL     1       0.665  10.403  18.298  0.00  0.00    +0.000 OA
ATOM     13  H   UNL     1       1.703   7.283  22.204  0.00  0.00    +0.000 HD
ATOM     14  H   UNL     1       3.166   5.894  20.272  0.00  0.00    +0.000 HD
ENDROOT
BRANCH   8  15
ATOM     15  C   UNL     1       3.811   5.960  17.543  0.00  0.00    +0.000 A 
ATOM     16  C   UNL     1       3.676   4.566  17.623  0.00  0.00    +0.000 A 
ATOM     17  C   UNL     1       4.443   3.729  16.808  0.00  0.00    +0.000 A 
ATOM     18  C   UNL     1       5.354   4.275  15.909  0.00  0.00    +0.000 A 
ATOM     19  C   UNL     1       5.496   5.658  15.815  0.00  0.00    +0.000 A 
ATOM     20  C   UNL     1       4.724   6.495  16.626  0.00  0.00    +0.000 A 
ENDBRANCH   8  15
TORSDOF 1
ENDMDL
MODEL 8
REMARK VINA RESULT:      -7.0      0.995      2.044
REMARK  Name = 
REMARK  2 active torsions:
REMARK  status: ('A' for Active; 'I' for Inactive)
REMARK    1  A    between atoms: C_1  and  N_2
REMARK    2  A    between atoms: C_8  and  C_9
REMARK                            x       y       z     vdW  Elec       q    Type
REMARK                         _______ _______ _______ _____ _____    ______ ____
ROOT
ATOM      1  C   UNL     1       2.430   3.549  20.886  0.00  0.00    +0.000 C 
ATOM      2  N   UNL     1       2.989   4.155  19.695  0.00  0.00    +0.000 N 
ATOM      3  C   UNL     1       2.859   5.542  19.530  0.00  0.00    +0.000 A 
ATOM      4  O   UNL     1       2.286   6.281  20.330  0.00  0.00    +0.000 OA
ATOM      5  N   UNL     1       3.416   6.101  18.397  0.00  0.00    +0.000 N 
ATOM      6  C   UNL     1       4.051   5.291  17.507  0.00  0.00    +0.000 A 
ATOM      7  N   UNL     1       4.669   5.630  16.347  0.00  0.00    +0.000 N 
ATOM      8  C   UNL     1       5.176   4.466  15.799  0.00  0.00    +0.000 A 
ATOM      9  N   UNL     1       4.860   3.425  16.558  0.00  0.00    +0.000 NA
ATOM     10  C   UNL     1       4.181   3.939  17.635  0.00  0.00    +0.000 A 
ATOM     11  C   UNL     1       3.630   3.273  18.799  0.00  0.00    +0.000 A 
ATOM     12  O   UNL     1       3.718   2.061  18.986  0.00  0.00    +0.000 OA
ATOM     13  H   UNL     1       3.323   7.102  18.279  0.00  0.00    +0.000 HD
ATOM     14  H   UNL     1       4.745   6.549  15.939  0.00  0.00    +0.000 HD
ENDROOT
BRANCH   8  15
ATOM     15  C   UNL     1       5.930   4.424  14.544  0.00  0.00    +0.000 A 
ATOM     16  C   UNL     1       7.103   5.172  14.364  0.00  0.00    +0.000 A 
ATOM     17  C   UNL     1       7.811   5.107  13.161  0.00  0.00    +0.000 A 
ATOM     18  C   UNL     1       7.353   4.296  12.125  0.00  0.00    +0.000 A 
ATOM     19  C   UNL     1       6.192   3.544  12.291  0.00  0.00    +0.000 A 
ATOM     20  C   UNL     1       5.488   3.605  13.497  0.00  0.00    +0.000 A 
ENDBRANCH   8  15
TORSDOF 1
ENDMDL
MODEL 9
REMARK VINA RESULT:      -6.9      0.994      2.335
REMARK  Name = 
REMARK  2 active torsions:
REMARK  status: ('A' for Active; 'I' for Inactive)
REMARK    1  A    between atoms: C_1  and  N_2
REMARK    2  A    between atoms: C_8  and  C_9
REMARK                            x       y       z     vdW  Elec       q    Type
REMARK                         _______ _______ _______ _____ _____    ______ ____
ROOT
ATOM      1  C   UNL     1       2.442   3.435  20.878  0.00  0.00    +0.000 C 
ATOM      2  N   UNL     1       2.996   4.048  19.689  0.00  0.00    +0.000 N 
ATOM      3  C   UNL     1       2.866   5.437  19.534  0.00  0.00    +0.000 A 
ATOM      4  O   UNL     1       2.298   6.170  20.341  0.00  0.00    +0.000 OA
ATOM      5  N   UNL     1       3.419   6.003  18.401  0.00  0.00    +0.000 N 
ATOM      6  C   UNL     1       4.048   5.198  17.503  0.00  0.00    +0.000 A 
ATOM      7  N   UNL     1       4.661   5.545  16.343  0.00  0.00    +0.000 N 
ATOM      8  C   UNL     1       5.164   4.383  15.784  0.00  0.00    +0.000 A 
ATOM      9  N   UNL     1       4.851   3.338  16.538  0.00  0.00    +0.000 NA
ATOM     10  C   UNL     1       4.177   3.845  17.621  0.00  0.00    +0.000 A 
ATOM     11  C   UNL     1       3.632   3.171  18.783  0.00  0.00    +0.000 A 
ATOM     12  O   UNL     1       3.720   1.958  18.962  0.00  0.00    +0.000 OA
ATOM     13  H   UNL     1       3.326   7.004  18.291  0.00  0.00    +0.000 HD
ATOM     14  H   UNL     1       4.736   6.466  15.941  0.00  0.00    +0.000 HD
ENDROOT
BRANCH   8  15
ATOM     15  C   UNL     1       5.912   4.350  14.525  0.00  0.00    +0.000 A 
ATOM     16  C   UNL     1       5.506   3.548  13.448  0.00  0.00    +0.000 A 
ATOM     17  C   UNL     1       6.231   3.542  12.253  0.00  0.00    +0.000 A 
ATOM     18  C   UNL     1       7.369   4.334  12.123  0.00  0.00    +0.000 A 
ATOM     19  C   UNL     1       7.781   5.139  13.182  0.00  0.00    +0.000 A 
ATOM     20  C   UNL     1       7.053   5.149  14.375  0.00  0.00    +0.000 A 
ENDBRANCH   8  15
TORSDOF 1
ENDMDL
