MODEL 1
REMARK VINA RESULT:      -8.6      0.000      0.000
REMARK  Name = 
REMARK  12 active torsions:
REMARK  status: ('A' for Active; 'I' for Inactive)
REMARK    1  A    between atoms: C_1  and  C_2
REMARK    2  A    between atoms: C_2  and  O_3
REMARK    3  A    between atoms: O_3  and  C_4
REMARK    4  A    between atoms: C_9  and  C_10
REMARK    5  A    between atoms: N_12  and  C_13
REMARK    6  A    between atoms: C_13  and  C_14
REMARK    7  A    between atoms: C_13  and  C_27
REMARK    8  A    between atoms: N_16  and  C_17
REMARK    9  A    between atoms: C_21  and  S_22
REMARK   10  A    between atoms: S_22  and  N_23
REMARK   11  A    between atoms: C_27  and  C_28
REMARK   12  A    between atoms: C_27  and  C_29
REMARK                            x       y       z     vdW  Elec       q    Type
REMARK                         _______ _______ _______ _____ _____    ______ ____
ROOT
ATOM      1  C   UNL     1       2.732   5.377  19.931  0.00  0.00    +0.000 C 
ENDROOT
BRANCH   1   4
ATOM      2  C   UNL     1       4.653   4.448  18.615  0.00  0.00    +0.000 C 
ATOM      3  O   UNL     1       4.966   3.680  19.524  0.00  0.00    +0.000 OA
ATOM      4  N   UNL     1       3.579   5.295  18.735  0.00  0.00    +0.000 N 
ATOM      5  H   UNL     1       3.359   5.918  17.957  0.00  0.00    +0.000 HD
BRANCH   2  11
ATOM      6  C   UNL     1       6.870   4.546  17.279  0.00  0.00    +0.000 A 
ATOM      7  C   UNL     1       7.506   4.472  16.026  0.00  0.00    +0.000 A 
ATOM      8  C   UNL     1       6.764   4.447  14.845  0.00  0.00    +0.000 A 
ATOM      9  C   UNL     1       5.378   4.467  14.903  0.00  0.00    +0.000 A 
ATOM     10  C   UNL     1       4.735   4.470  16.144  0.00  0.00    +0.000 A 
ATOM     11  C   UNL     1       5.464   4.491  17.349  0.00  0.00    +0.000 A 
BRANCH   6  12
ATOM     12  O   UNL     1       7.584   4.667  18.445  0.00  0.00    +0.000 OA
BRANCH  12  14
ATOM     13  C   UNL     1       7.856   7.019  18.107  0.00  0.00    +0.000 C 
ATOM     14  C   UNL     1       7.488   5.935  19.103  0.00  0.00    +0.000 C 
ENDBRANCH  12  14
ENDBRANCH   6  12
ENDBRANCH   2  11
ENDBRANCH   1   4
BRANCH   1  15
ATOM     15  C   UNL     1       2.248   6.839  19.966  0.00  0.00    +0.000 C 
ATOM     16  O   UNL     1       2.585   7.618  19.072  0.00  0.00    +0.000 OA
ATOM     17  N   UNL     1       1.482   7.187  21.070  0.00  0.00    +0.000 N 
ATOM     18  H   UNL     1       1.536   6.570  21.874  0.00  0.00    +0.000 HD
BRANCH  17  19
ATOM     19  C   UNL     1       0.857   8.442  21.254  0.00  0.00    +0.000 A 
ATOM     20  C   UNL     1       0.598   8.975  22.523  0.00  0.00    +0.000 A 
ATOM     21  C   UNL     1      -0.071  10.191  22.677  0.00  0.00    +0.000 A 
ATOM     22  C   UNL     1      -0.486  10.899  21.557  0.00  0.00    +0.000 A 
ATOM     23  C   UNL     1      -0.188  10.398  20.288  0.00  0.00    +0.000 A 
ATOM     24  C   UNL     1       0.488   9.179  20.126  0.00  0.00    +0.000 A 
BRANCH  23  25
ATOM     25  S   UNL     1      -0.732  11.305  18.874  0.00  0.00    +0.000 S 
ATOM     26  O   UNL     1      -2.166  11.497  18.954  0.00  0.00    +0.000 OA
ATOM     27  O   UNL     1       0.184  12.391  18.617  0.00  0.00    +0.000 OA
BRANCH  25  28
ATOM     28  N   UNL     1      -0.483  10.186  17.649  0.00  0.00    +0.000 NA
ATOM     29  H   UNL     1      -0.980  10.478  16.804  0.00  0.00    +0.000 HD
ATOM     30  H   UNL     1       0.515  10.035  17.513  0.00  0.00    +0.000 HD
ENDBRANCH  25  28
ENDBRANCH  23  25
ENDBRANCH  17  19
ENDBRANCH   1  15
BRANCH   1  31
ATOM     31  C   UNL     1       1.500   4.438  19.834  0.00  0.00    +0.000 C 
ATOM     32  C   UNL     1       1.398   3.718  18.486  0.00  0.00    +0.000 C 
ATOM     33  C   UNL     1       1.499   3.379  20.948  0.00  0.00    +0.000 C 
ENDBRANCH   1  31
TORSDOF 9
ENDMDL
MODEL 2
REMARK VINA RESULT:      -8.6      1.071      1.174
REMARK  Name = 
REMARK  12 active torsions:
REMARK  status: ('A' for Active; 'I' for Inactive)
REMARK    1  A    between atoms: C_1  and  C_2
REMARK    2  A    between atoms: C_2  and  O_3
REMARK    3  A    between atoms: O_3  and  C_4
REMARK    4  A    between atoms: C_9  and  C_10
REMARK    5  A    between atoms: N_12  and  C_13
REMARK    6  A    between atoms: C_13  and  C_14
REMARK    7  A    between atoms: C_13  and  C_27
REMARK    8  A    between atoms: N_16  and  C_17
REMARK    9  A    between atoms: C_21  and  S_22
REMARK   10  A    between atoms: S_22  and  N_23
REMARK   11  A    between atoms: C_27  and  C_28
REMARK   12  A    between atoms: C_27  and  C_29
REMARK                            x       y       z     vdW  Elec       q    Type
REMARK                         _______ _______ _______ _____ _____    ______ ____
ROOT
ATOM      1  C   UNL     1       2.727   5.525  20.008  0.00  0.00    +0.000 C 
ENDROOT
BRANCH   1   4
ATOM      2  C   UNL     1       4.823   5.169  18.679  0.00  0.00    +0.000 C 
ATOM      3  O   UNL     1       5.510   5.088  19.696  0.00  0.00    +0.000 OA
ATOM      4  N   UNL     1       3.466   5.372  18.750  0.00  0.00    +0.000 N 
ATOM      5  H   UNL     1       2.937   5.437  17.880  0.00  0.00    +0.000 HD
BRANCH   2  11
ATOM      6  C   UNL     1       6.304   6.037  16.739  0.00  0.00    +0.000 A 
ATOM      7  C   UNL     1       6.926   5.766  15.507  0.00  0.00    +0.000 A 
ATOM      8  C   UNL     1       6.644   4.594  14.804  0.00  0.00    +0.000 A 
ATOM      9  C   UNL     1       5.761   3.667  15.337  0.00  0.00    +0.000 A 
ATOM     10  C   UNL     1       5.191   3.893  16.593  0.00  0.00    +0.000 A 
ATOM     11  C   UNL     1       5.465   5.067  17.322  0.00  0.00    +0.000 A 
BRANCH   6  12
ATOM     12  O   UNL     1       6.496   7.224  17.399  0.00  0.00    +0.000 OA
BRANCH  12  14
ATOM     13  C   UNL     1       8.120   8.910  17.887  0.00  0.00    +0.000 C 
ATOM     14  C   UNL     1       7.804   7.428  17.945  0.00  0.00    +0.000 C 
ENDBRANCH  12  14
ENDBRANCH   6  12
ENDBRANCH   2  11
ENDBRANCH   1   4
BRANCH   1  15
ATOM     15  C   UNL     1       2.178   6.964  19.965  0.00  0.00    +0.000 C 
ATOM     16  O   UNL     1       2.411   7.680  18.989  0.00  0.00    +0.000 OA
ATOM     17  N   UNL     1       1.480   7.370  21.094  0.00  0.00    +0.000 N 
ATOM     18  H   UNL     1       1.623   6.825  21.938  0.00  0.00    +0.000 HD
BRANCH  17  19
ATOM     19  C   UNL     1       0.812   8.609  21.226  0.00  0.00    +0.000 A 
ATOM     20  C   UNL     1       0.528   9.182  22.472  0.00  0.00    +0.000 A 
ATOM     21  C   UNL     1      -0.183  10.380  22.575  0.00  0.00    +0.000 A 
ATOM     22  C   UNL     1      -0.616  11.029  21.427  0.00  0.00    +0.000 A 
ATOM     23  C   UNL     1      -0.294  10.489  20.179  0.00  0.00    +0.000 A 
ATOM     24  C   UNL     1       0.424   9.289  20.068  0.00  0.00    +0.000 A 
BRANCH  23  25
ATOM     25  S   UNL     1      -0.861  11.321  18.728  0.00  0.00    +0.000 S 
ATOM     26  O   UNL     1      -1.177  10.341  17.710  0.00  0.00    +0.000 OA
ATOM     27  O   UNL     1      -1.775  12.373  19.104  0.00  0.00    +0.000 OA
BRANCH  25  28
ATOM     28  N   UNL     1       0.543  12.084  18.216  0.00  0.00    +0.000 NA
ATOM     29  H   UNL     1       0.595  12.069  17.195  0.00  0.00    +0.000 HD
ATOM     30  H   UNL     1       0.599  13.018  18.621  0.00  0.00    +0.000 HD
ENDBRANCH  25  28
ENDBRANCH  23  25
ENDBRANCH  17  19
ENDBRANCH   1  15
BRANCH   1  31
ATOM     31  C   UNL     1       1.538   4.533  20.107  0.00  0.00    +0.000 C 
ATOM     32  C   UNL     1       1.312   3.737  18.817  0.00  0.00    +0.000 C 
ATOM     33  C   UNL     1       1.719   3.536  21.262  0.00  0.00    +0.000 C 
ENDBRANCH   1  31
TORSDOF 9
ENDMDL
MODEL 3
REMARK VINA RESULT:      -8.4      2.083      2.678
REMARK  Name = 
REMARK  12 active torsions:
REMARK  status: ('A' for Active; 'I' for Inactive)
REMARK    1  A    between atoms: C_1  and  C_2
REMARK    2  A    between atoms: C_2  and  O_3
REMARK    3  A    between atoms: O_3  and  C_4
REMARK    4  A    between atoms: C_9  and  C_10
REMARK    5  A    between atoms: N_12  and  C_13
REMARK    6  A    between atoms: C_13  and  C_14
REMARK    7  A    between atoms: C_13  and  C_27
REMARK    8  A    between atoms: N_16  and  C_17
REMARK    9  A    between atoms: C_21  and  S_22
REMARK   10  A    between atoms: S_22  and  N_23
REMARK   11  A    between atoms: C_27  and  C_28
REMARK   12  A    between atoms: C_27  and  C_29
REMARK                            x       y       z     vdW  Elec       q    Type
REMARK                         _______ _______ _______ _____ _____    ______ ____
ROOT
ATOM      1  C   UNL     1       3.097   4.052  19.855  0.00  0.00    +0.000 C 
ENDROOT
BRANCH   1   4
ATOM      2  C   UNL     1       5.124   4.214  18.390  0.00  0.00    +0.000 C 
ATOM      3  O   UNL     1       5.873   3.883  19.308  0.00  0.00    +0.000 OA
ATOM      4  N   UNL     1       3.767   4.310  18.575  0.00  0.00    +0.000 N 
ATOM      5  H   UNL     1       3.186   4.593  17.786  0.00  0.00    +0.000 HD
BRANCH   2  11
ATOM      6  C   UNL     1       6.371   5.732  16.700  0.00  0.00    +0.000 A 
ATOM      7  C   UNL     1       6.944   5.866  15.422  0.00  0.00    +0.000 A 
ATOM      8  C   UNL     1       6.761   4.885  14.448  0.00  0.00    +0.000 A 
ATOM      9  C   UNL     1       6.028   3.746  14.747  0.00  0.00    +0.000 A 
ATOM     10  C   UNL     1       5.513   3.570  16.034  0.00  0.00    +0.000 A 
ATOM     11  C   UNL     1       5.690   4.545  17.035  0.00  0.00    +0.000 A 
BRANCH   6  12
ATOM     12  O   UNL     1       6.461   6.728  17.640  0.00  0.00    +0.000 OA
BRANCH  12  14
ATOM     13  C   UNL     1       8.031   8.525  17.790  0.00  0.00    +0.000 C 
ATOM     14  C   UNL     1       7.786   7.055  18.074  0.00  0.00    +0.000 C 
ENDBRANCH  12  14
ENDBRANCH   6  12
ENDBRANCH   2  11
ENDBRANCH   1   4
BRANCH   1  15
ATOM     15  C   UNL     1       2.213   5.292  20.090  0.00  0.00    +0.000 C 
ATOM     16  O   UNL     1       1.232   5.213  20.832  0.00  0.00    +0.000 OA
ATOM     17  N   UNL     1       2.578   6.428  19.380  0.00  0.00    +0.000 N 
ATOM     18  H   UNL     1       3.188   6.288  18.581  0.00  0.00    +0.000 HD
BRANCH  17  19
ATOM     19  C   UNL     1       1.967   7.695  19.519  0.00  0.00    +0.000 A 
ATOM     20  C   UNL     1       1.840   8.591  18.449  0.00  0.00    +0.000 A 
ATOM     21  C   UNL     1       1.284   9.859  18.627  0.00  0.00    +0.000 A 
ATOM     22  C   UNL     1       0.835  10.249  19.881  0.00  0.00    +0.000 A 
ATOM     23  C   UNL     1       0.913   9.343  20.942  0.00  0.00    +0.000 A 
ATOM     24  C   UNL     1       1.468   8.066  20.771  0.00  0.00    +0.000 A 
BRANCH  23  25
ATOM     25  S   UNL     1       0.349   9.858  22.534  0.00  0.00    +0.000 S 
ATOM     26  O   UNL     1       1.363   9.549  23.521  0.00  0.00    +0.000 OA
ATOM     27  O   UNL     1      -0.262  11.162  22.429  0.00  0.00    +0.000 OA
BRANCH  25  28
ATOM     28  N   UNL     1      -0.905   8.777  22.805  0.00  0.00    +0.000 NA
ATOM     29  H   UNL     1      -0.551   7.947  23.287  0.00  0.00    +0.000 HD
ATOM     30  H   UNL     1      -1.669   9.245  23.290  0.00  0.00    +0.000 HD
ENDBRANCH  25  28
ENDBRANCH  23  25
ENDBRANCH  17  19
ENDBRANCH   1  15
BRANCH   1  31
ATOM     31  C   UNL     1       2.193   2.791  19.792  0.00  0.00    +0.000 C 
ATOM     32  C   UNL     1       1.502   2.481  21.123  0.00  0.00    +0.000 C 
ATOM     33  C   UNL     1       1.113   2.916  18.706  0.00  0.00    +0.000 C 
ENDBRANCH   1  31
TORSDOF 9
ENDMDL
MODEL 4
REMARK VINA RESULT:      -8.4      2.042      2.509
REMARK  Name = 
REMARK  12 active torsions:
REMARK  status: ('A' for Active; 'I' for Inactive)
REMARK    1  A    between atoms: C_1  and  C_2
REMARK    2  A    between atoms: C_2  and  O_3
REMARK    3  A    between atoms: O_3  and  C_4
REMARK    4  A    between atoms: C_9  and  C_10
REMARK    5  A    between atoms: N_12  and  C_13
REMARK    6  A    between atoms: C_13  and  C_14
REMARK    7  A    between atoms: C_13  and  C_27
REMARK    8  A    between atoms: N_16  and  C_17
REMARK    9  A    between atoms: C_21  and  S_22
REMARK   10  A    between atoms: S_22  and  N_23
REMARK   11  A    between atoms: C_27  and  C_28
REMARK   12  A    between atoms: C_27  and  C_29
REMARK                            x       y       z     vdW  Elec       q    Type
REMARK                         _______ _______ _______ _____ _____    ______ ____
ROOT
ATOM      1  C   UNL     1       3.361   4.330  19.736  0.00  0.00    +0.000 C 
ENDROOT
BRANCH   1   4
ATOM      2  C   UNL     1       5.353   4.478  18.221  0.00  0.00    +0.000 C 
ATOM      3  O   UNL     1       6.132   4.526  19.173  0.00  0.00    +0.000 OA
ATOM      4  N   UNL     1       3.997   4.374  18.415  0.00  0.00    +0.000 N 
ATOM      5  H   UNL     1       3.389   4.342  17.596  0.00  0.00    +0.000 HD
BRANCH   2  11
ATOM      6  C   UNL     1       7.004   5.287  16.396  0.00  0.00    +0.000 A 
ATOM      7  C   UNL     1       7.446   5.183  15.064  0.00  0.00    +0.000 A 
ATOM      8  C   UNL     1       6.724   4.448  14.124  0.00  0.00    +0.000 A 
ATOM      9  C   UNL     1       5.569   3.783  14.510  0.00  0.00    +0.000 A 
ATOM     10  C   UNL     1       5.159   3.821  15.845  0.00  0.00    +0.000 A 
ATOM     11  C   UNL     1       5.875   4.554  16.812  0.00  0.00    +0.000 A 
BRANCH   6  12
ATOM     12  O   UNL     1       7.647   6.082  17.311  0.00  0.00    +0.000 OA
BRANCH  12  14
ATOM     13  C   UNL     1       8.220   8.211  18.237  0.00  0.00    +0.000 C 
ATOM     14  C   UNL     1       7.326   7.477  17.256  0.00  0.00    +0.000 C 
ENDBRANCH  12  14
ENDBRANCH   6  12
ENDBRANCH   2  11
ENDBRANCH   1   4
BRANCH   1  15
ATOM     15  C   UNL     1       2.332   5.476  19.713  0.00  0.00    +0.000 C 
ATOM     16  O   UNL     1       1.199   5.292  20.162  0.00  0.00    +0.000 OA
ATOM     17  N   UNL     1       2.764   6.655  19.119  0.00  0.00    +0.000 N 
ATOM     18  H   UNL     1       3.579   6.588  18.517  0.00  0.00    +0.000 HD
BRANCH  17  19
ATOM     19  C   UNL     1       2.020   7.856  19.077  0.00  0.00    +0.000 A 
ATOM     20  C   UNL     1       1.712   8.508  17.876  0.00  0.00    +0.000 A 
ATOM     21  C   UNL     1       1.024   9.724  17.867  0.00  0.00    +0.000 A 
ATOM     22  C   UNL     1       0.624  10.302  19.064  0.00  0.00    +0.000 A 
ATOM     23  C   UNL     1       0.884   9.632  20.262  0.00  0.00    +0.000 A 
ATOM     24  C   UNL     1       1.572   8.409  20.279  0.00  0.00    +0.000 A 
BRANCH  23  25
ATOM     25  S   UNL     1       0.379  10.387  21.777  0.00  0.00    +0.000 S 
ATOM     26  O   UNL     1      -1.062  10.534  21.779  0.00  0.00    +0.000 OA
ATOM     27  O   UNL     1       1.100   9.789  22.875  0.00  0.00    +0.000 OA
BRANCH  25  28
ATOM     28  N   UNL     1       1.002  11.934  21.598  0.00  0.00    +0.000 NA
ATOM     29  H   UNL     1       1.323  12.287  22.502  0.00  0.00    +0.000 HD
ATOM     30  H   UNL     1       1.718  11.939  20.872  0.00  0.00    +0.000 HD
ENDBRANCH  25  28
ENDBRANCH  23  25
ENDBRANCH  17  19
ENDBRANCH   1  15
BRANCH   1  31
ATOM     31  C   UNL     1       2.618   2.988  19.977  0.00  0.00    +0.000 C 
ATOM     32  C   UNL     1       3.069   1.874  19.028  0.00  0.00    +0.000 C 
ATOM     33  C   UNL     1       2.791   2.490  21.420  0.00  0.00    +0.000 C 
ENDBRANCH   1  31
TORSDOF 9
ENDMDL
MODEL 5
REMARK VINA RESULT:      -8.3      1.665      2.240
REMARK  Name = 
REMARK  12 active torsions:
REMARK  status: ('A' for Active; 'I' for Inactive)
REMARK    1  A    between atoms: C_1  and  C_2
REMARK    2  A    between atoms: C_2  and  O_3
REMARK    3  A    between atoms: O_3  and  C_4
REMARK    4  A    between atoms: C_9  and  C_10
REMARK    5  A    between atoms: N_12  and  C_13
REMARK    6  A    between atoms: C_13  and  C_14
REMARK    7  A    between atoms: C_13  and  C_27
REMARK    8  A    between atoms: N_16  and  C_17
REMARK    9  A    between atoms: C_21  and  S_22
REMARK   10  A    between atoms: S_22  and  N_23
REMARK   11  A    between atoms: C_27  and  C_28
REMARK   12  A    between atoms: C_27  and  C_29
REMARK                            x       y       z     vdW  Elec       q    Type
REMARK                         _______ _______ _______ _____ _____    ______ ____
ROOT
ATOM      1  C   UNL     1       2.767   4.898  20.204  0.00  0.00    +0.000 C 
ENDROOT
BRANCH   1   4
ATOM      2  C   UNL     1       4.715   4.196  18.792  0.00  0.00    +0.000 C 
ATOM      3  O   UNL     1       5.160   3.472  19.682  0.00  0.00    +0.000 OA
ATOM      4  N   UNL     1       3.557   4.912  18.967  0.00  0.00    +0.000 N 
ATOM      5  H   UNL     1       3.228   5.503  18.203  0.00  0.00    +0.000 HD
BRANCH   2  11
ATOM      6  C   UNL     1       6.844   4.502  17.347  0.00  0.00    +0.000 A 
ATOM      7  C   UNL     1       7.417   4.505  16.062  0.00  0.00    +0.000 A 
ATOM      8  C   UNL     1       6.618   4.441  14.921  0.00  0.00    +0.000 A 
ATOM      9  C   UNL     1       5.240   4.346  15.049  0.00  0.00    +0.000 A 
ATOM     10  C   UNL     1       4.665   4.272  16.321  0.00  0.00    +0.000 A 
ATOM     11  C   UNL     1       5.453   4.329  17.487  0.00  0.00    +0.000 A 
BRANCH   6  12
ATOM     12  O   UNL     1       7.605   4.659  18.478  0.00  0.00    +0.000 OA
BRANCH  12  14
ATOM     13  C   UNL     1       7.752   6.998  17.998  0.00  0.00    +0.000 C 
ATOM     14  C   UNL     1       7.557   5.956  19.084  0.00  0.00    +0.000 C 
ENDBRANCH  12  14
ENDBRANCH   6  12
ENDBRANCH   2  11
ENDBRANCH   1   4
BRANCH   1  15
ATOM     15  C   UNL     1       2.046   6.259  20.222  0.00  0.00    +0.000 C 
ATOM     16  O   UNL     1       1.204   6.495  21.091  0.00  0.00    +0.000 OA
ATOM     17  N   UNL     1       2.380   7.125  19.189  0.00  0.00    +0.000 N 
ATOM     18  H   UNL     1       2.830   6.713  18.379  0.00  0.00    +0.000 HD
BRANCH  17  19
ATOM     19  C   UNL     1       1.914   8.454  19.070  0.00  0.00    +0.000 A 
ATOM     20  C   UNL     1       2.074   9.205  17.899  0.00  0.00    +0.000 A 
ATOM     21  C   UNL     1       1.654  10.535  17.826  0.00  0.00    +0.000 A 
ATOM     22  C   UNL     1       1.057  11.133  18.927  0.00  0.00    +0.000 A 
ATOM     23  C   UNL     1       0.849  10.376  20.082  0.00  0.00    +0.000 A 
ATOM     24  C   UNL     1       1.264   9.038  20.161  0.00  0.00    +0.000 A 
BRANCH  23  25
ATOM     25  S   UNL     1       0.098  11.155  21.478  0.00  0.00    +0.000 S 
ATOM     26  O   UNL     1       0.758  12.418  21.731  0.00  0.00    +0.000 OA
ATOM     27  O   UNL     1      -1.337  11.033  21.381  0.00  0.00    +0.000 OA
BRANCH  25  28
ATOM     28  N   UNL     1       0.569  10.130  22.720  0.00  0.00    +0.000 NA
ATOM     29  H   UNL     1       1.556  10.280  22.940  0.00  0.00    +0.000 HD
ATOM     30  H   UNL     1      -0.056  10.238  23.517  0.00  0.00    +0.000 HD
ENDBRANCH  25  28
ENDBRANCH  23  25
ENDBRANCH  17  19
ENDBRANCH   1  15
BRANCH   1  31
ATOM     31  C   UNL     1       1.706   3.764  20.201  0.00  0.00    +0.000 C 
ATOM     32  C   UNL     1       1.449   3.186  18.806  0.00  0.00    +0.000 C 
ATOM     33  C   UNL     1       2.099   2.610  21.135  0.00  0.00    +0.000 C 
ENDBRANCH   1  31
TORSDOF 9
ENDMDL
MODEL 6
REMARK VINA RESULT:      -8.3      0.989      1.243
REMARK  Name = 
REMARK  12 active torsions:
REMARK  status: ('A' for Active; 'I' for Inactive)
REMARK    1  A    between atoms: C_1  and  C_2
REMARK    2  A    between atoms: C_2  and  O_3
REMARK    3  A    between atoms: O_3  and  C_4
REMARK    4  A    between atoms: C_9  and  C_10
REMARK    5  A    between atoms: N_12  and  C_13
REMARK    6  A    between atoms: C_13  and  C_14
REMARK    7  A    between atoms: C_13  and  C_27
REMARK    8  A    between atoms: N_16  and  C_17
REMARK    9  A    between atoms: C_21  and  S_22
REMARK   10  A    between atoms: S_22  and  N_23
REMARK   11  A    between atoms: C_27  and  C_28
REMARK   12  A    between atoms: C_27  and  C_29
REMARK                            x       y       z     vdW  Elec       q    Type
REMARK                         _______ _______ _______ _____ _____    ______ ____
ROOT
ATOM      1  C   UNL     1       2.711   5.616  19.860  0.00  0.00    +0.000 C 
ENDROOT
BRANCH   1   4
ATOM      2  C   UNL     1       4.586   4.709  18.466  0.00  0.00    +0.000 C 
ATOM      3  O   UNL     1       4.933   3.932  19.355  0.00  0.00    +0.000 OA
ATOM      4  N   UNL     1       3.514   5.550  18.634  0.00  0.00    +0.000 N 
ATOM      5  H   UNL     1       3.265   6.181  17.871  0.00  0.00    +0.000 HD
BRANCH   2  11
ATOM      6  C   UNL     1       6.295   5.754  16.823  0.00  0.00    +0.000 A 
ATOM      7  C   UNL     1       7.018   5.628  15.622  0.00  0.00    +0.000 A 
ATOM      8  C   UNL     1       6.742   4.598  14.724  0.00  0.00    +0.000 A 
ATOM      9  C   UNL     1       5.762   3.665  15.026  0.00  0.00    +0.000 A 
ATOM     10  C   UNL     1       5.085   3.739  16.247  0.00  0.00    +0.000 A 
ATOM     11  C   UNL     1       5.351   4.768  17.172  0.00  0.00    +0.000 A 
BRANCH   6  12
ATOM     12  O   UNL     1       6.486   6.813  17.674  0.00  0.00    +0.000 OA
BRANCH  12  14
ATOM     13  C   UNL     1       8.034   5.903  19.254  0.00  0.00    +0.000 C 
ATOM     14  C   UNL     1       7.813   6.963  18.191  0.00  0.00    +0.000 C 
ENDBRANCH  12  14
ENDBRANCH   6  12
ENDBRANCH   2  11
ENDBRANCH   1   4
BRANCH   1  15
ATOM     15  C   UNL     1       2.165   7.057  19.892  0.00  0.00    +0.000 C 
ATOM     16  O   UNL     1       2.359   7.807  18.933  0.00  0.00    +0.000 OA
ATOM     17  N   UNL     1       1.517   7.423  21.064  0.00  0.00    +0.000 N 
ATOM     18  H   UNL     1       1.693   6.848  21.880  0.00  0.00    +0.000 HD
BRANCH  17  19
ATOM     19  C   UNL     1       0.859   8.658  21.268  0.00  0.00    +0.000 A 
ATOM     20  C   UNL     1       0.398   9.066  22.526  0.00  0.00    +0.000 A 
ATOM     21  C   UNL     1      -0.299  10.265  22.690  0.00  0.00    +0.000 A 
ATOM     22  C   UNL     1      -0.538  11.082  21.593  0.00  0.00    +0.000 A 
ATOM     23  C   UNL     1      -0.039  10.705  20.344  0.00  0.00    +0.000 A 
ATOM     24  C   UNL     1       0.665   9.504  20.172  0.00  0.00    +0.000 A 
BRANCH  23  25
ATOM     25  S   UNL     1      -0.362  11.750  18.957  0.00  0.00    +0.000 S 
ATOM     26  O   UNL     1       0.883  12.322  18.491  0.00  0.00    +0.000 OA
ATOM     27  O   UNL     1      -1.297  11.096  18.072  0.00  0.00    +0.000 OA
BRANCH  25  28
ATOM     28  N   UNL     1      -1.206  13.006  19.680  0.00  0.00    +0.000 NA
ATOM     29  H   UNL     1      -1.194  13.829  19.073  0.00  0.00    +0.000 HD
ATOM     30  H   UNL     1      -2.141  12.694  19.939  0.00  0.00    +0.000 HD
ENDBRANCH  25  28
ENDBRANCH  23  25
ENDBRANCH  17  19
ENDBRANCH   1  15
BRANCH   1  31
ATOM     31  C   UNL     1       1.517   4.624  19.826  0.00  0.00    +0.000 C 
ATOM     32  C   UNL     1       1.390   3.884  18.490  0.00  0.00    +0.000 C 
ATOM     33  C   UNL     1       1.610   3.579  20.948  0.00  0.00    +0.000 C 
ENDBRANCH   1  31
TORSDOF 9
ENDMDL
MODEL 7
REMARK VINA RESULT:      -8.1      1.146      1.333
REMARK  Name = 
REMARK  12 active torsions:
REMARK  status: ('A' for Active; 'I' for Inactive)
REMARK    1  A    between atoms: C_1  and  C_2
REMARK    2  A    between atoms: C_2  and  O_3
REMARK    3  A    between atoms: O_3  and  C_4
REMARK    4  A    between atoms: C_9  and  C_10
REMARK    5  A    between atoms: N_12  and  C_13
REMARK    6  A    between atoms: C_13  and  C_14
REMARK    7  A    between atoms: C_13  and  C_27
REMARK    8  A    between atoms: N_16  and  C_17
REMARK    9  A    between atoms: C_21  and  S_22
REMARK   10  A    between atoms: S_22  and  N_23
REMARK   11  A    between atoms: C_27  and  C_28
REMARK   12  A    between atoms: C_27  and  C_29
REMARK                            x       y       z     vdW  Elec       q    Type
REMARK                         _______ _______ _______ _____ _____    ______ ____
ROOT
ATOM      1  C   UNL     1       3.149   5.261  19.449  0.00  0.00    +0.000 C 
ENDROOT
BRANCH   1   4
ATOM      2  C   UNL     1       5.067   4.575  17.989  0.00  0.00    +0.000 C 
ATOM      3  O   UNL     1       5.571   3.902  18.887  0.00  0.00    +0.000 OA
ATOM      4  N   UNL     1       3.891   5.256  18.183  0.00  0.00    +0.000 N 
ATOM      5  H   UNL     1       3.512   5.805  17.411  0.00  0.00    +0.000 HD
BRANCH   2  11
ATOM      6  C   UNL     1       6.920   5.421  16.388  0.00  0.00    +0.000 A 
ATOM      7  C   UNL     1       7.513   5.350  15.114  0.00  0.00    +0.000 A 
ATOM      8  C   UNL     1       6.904   4.641  14.079  0.00  0.00    +0.000 A 
ATOM      9  C   UNL     1       5.711   3.973  14.310  0.00  0.00    +0.000 A 
ATOM     10  C   UNL     1       5.148   3.979  15.590  0.00  0.00    +0.000 A 
ATOM     11  C   UNL     1       5.749   4.684  16.652  0.00  0.00    +0.000 A 
BRANCH   6  12
ATOM     12  O   UNL     1       7.454   6.190  17.391  0.00  0.00    +0.000 OA
BRANCH  12  14
ATOM     13  C   UNL     1       8.165   8.416  17.903  0.00  0.00    +0.000 C 
ATOM     14  C   UNL     1       7.009   7.551  17.435  0.00  0.00    +0.000 C 
ENDBRANCH  12  14
ENDBRANCH   6  12
ENDBRANCH   2  11
ENDBRANCH   1   4
BRANCH   1  15
ATOM     15  C   UNL     1       2.368   6.590  19.438  0.00  0.00    +0.000 C 
ATOM     16  O   UNL     1       2.077   7.120  18.364  0.00  0.00    +0.000 OA
ATOM     17  N   UNL     1       2.088   7.128  20.687  0.00  0.00    +0.000 N 
ATOM     18  H   UNL     1       2.639   6.780  21.465  0.00  0.00    +0.000 HD
BRANCH  17  19
ATOM     19  C   UNL     1       1.303   8.282  20.909  0.00  0.00    +0.000 A 
ATOM     20  C   UNL     1       0.442   8.407  22.007  0.00  0.00    +0.000 A 
ATOM     21  C   UNL     1      -0.364   9.535  22.173  0.00  0.00    +0.000 A 
ATOM     22  C   UNL     1      -0.314  10.564  21.242  0.00  0.00    +0.000 A 
ATOM     23  C   UNL     1       0.578  10.469  20.171  0.00  0.00    +0.000 A 
ATOM     24  C   UNL     1       1.394   9.340  20.000  0.00  0.00    +0.000 A 
BRANCH  23  25
ATOM     25  S   UNL     1       0.620  11.781  18.990  0.00  0.00    +0.000 S 
ATOM     26  O   UNL     1      -0.623  11.794  18.247  0.00  0.00    +0.000 OA
ATOM     27  O   UNL     1       1.170  12.964  19.606  0.00  0.00    +0.000 OA
BRANCH  25  28
ATOM     28  N   UNL     1       1.790  11.225  17.923  0.00  0.00    +0.000 NA
ATOM     29  H   UNL     1       1.981  10.236  18.100  0.00  0.00    +0.000 HD
ATOM     30  H   UNL     1       1.513  11.430  16.964  0.00  0.00    +0.000 HD
ENDBRANCH  25  28
ENDBRANCH  23  25
ENDBRANCH  17  19
ENDBRANCH   1  15
BRANCH   1  31
ATOM     31  C   UNL     1       2.141   4.083  19.536  0.00  0.00    +0.000 C 
ATOM     32  C   UNL     1       1.050   4.304  20.588  0.00  0.00    +0.000 C 
ATOM     33  C   UNL     1       1.460   3.812  18.186  0.00  0.00    +0.000 C 
ENDBRANCH   1  31
TORSDOF 9
ENDMDL
MODEL 8
REMARK VINA RESULT:      -8.1      1.150      2.128
REMARK  Name = 
REMARK  12 active torsions:
REMARK  status: ('A' for Active; 'I' for Inactive)
REMARK    1  A    between atoms: C_1  and  C_2
REMARK    2  A    between atoms: C_2  and  O_3
REMARK    3  A    between atoms: O_3  and  C_4
REMARK    4  A    between atoms: C_9  and  C_10
REMARK    5  A    between atoms: N_12  and  C_13
REMARK    6  A    between atoms: C_13  and  C_14
REMARK    7  A    between atoms: C_13  and  C_27
REMARK    8  A    between atoms: N_16  and  C_17
REMARK    9  A    between atoms: C_21  and  S_22
REMARK   10  A    between atoms: S_22  and  N_23
REMARK   11  A    between atoms: C_27  and  C_28
REMARK   12  A    between atoms: C_27  and  C_29
REMARK                            x       y       z     vdW  Elec       q    Type
REMARK                         _______ _______ _______ _____ _____    ______ ____
ROOT
ATOM      1  C   UNL     1       2.738   5.707  20.405  0.00  0.00    +0.000 C 
ENDROOT
BRANCH   1   4
ATOM      2  C   UNL     1       4.714   5.267  18.928  0.00  0.00    +0.000 C 
ATOM      3  O   UNL     1       5.495   5.324  19.876  0.00  0.00    +0.000 OA
ATOM      4  N   UNL     1       3.363   5.434  19.106  0.00  0.00    +0.000 N 
ATOM      5  H   UNL     1       2.753   5.383  18.290  0.00  0.00    +0.000 HD
BRANCH   2  11
ATOM      6  C   UNL     1       4.639   4.190  16.572  0.00  0.00    +0.000 A 
ATOM      7  C   UNL     1       5.168   4.144  15.270  0.00  0.00    +0.000 A 
ATOM      8  C   UNL     1       6.332   4.841  14.944  0.00  0.00    +0.000 A 
ATOM      9  C   UNL     1       6.964   5.613  15.907  0.00  0.00    +0.000 A 
ATOM     10  C   UNL     1       6.409   5.722  17.185  0.00  0.00    +0.000 A 
ATOM     11  C   UNL     1       5.232   5.031  17.535  0.00  0.00    +0.000 A 
BRANCH   6  12
ATOM     12  O   UNL     1       3.550   3.438  16.936  0.00  0.00    +0.000 OA
BRANCH  12  14
ATOM     13  C   UNL     1       3.530   1.771  18.652  0.00  0.00    +0.000 C 
ATOM     14  C   UNL     1       3.809   2.051  17.187  0.00  0.00    +0.000 C 
ENDBRANCH  12  14
ENDBRANCH   6  12
ENDBRANCH   2  11
ENDBRANCH   1   4
BRANCH   1  15
ATOM     15  C   UNL     1       2.082   7.092  20.240  0.00  0.00    +0.000 C 
ATOM     16  O   UNL     1       2.145   7.674  19.155  0.00  0.00    +0.000 OA
ATOM     17  N   UNL     1       1.493   7.614  21.384  0.00  0.00    +0.000 N 
ATOM     18  H   UNL     1       1.775   7.203  22.268  0.00  0.00    +0.000 HD
BRANCH  17  19
ATOM     19  C   UNL     1       0.755   8.819  21.432  0.00  0.00    +0.000 A 
ATOM     20  C   UNL     1       0.266   9.354  22.630  0.00  0.00    +0.000 A 
ATOM     21  C   UNL     1      -0.508  10.516  22.643  0.00  0.00    +0.000 A 
ATOM     22  C   UNL     1      -0.798  11.168  21.452  0.00  0.00    +0.000 A 
ATOM     23  C   UNL     1      -0.273  10.668  20.258  0.00  0.00    +0.000 A 
ATOM     24  C   UNL     1       0.509   9.503  20.238  0.00  0.00    +0.000 A 
BRANCH  23  25
ATOM     25  S   UNL     1      -0.661  11.501  18.751  0.00  0.00    +0.000 S 
ATOM     26  O   UNL     1      -2.071  11.830  18.737  0.00  0.00    +0.000 OA
ATOM     27  O   UNL     1       0.367  12.473  18.461  0.00  0.00    +0.000 OA
BRANCH  25  28
ATOM     28  N   UNL     1      -0.463  10.267  17.632  0.00  0.00    +0.000 NA
ATOM     29  H   UNL     1      -1.352  10.074  17.165  0.00  0.00    +0.000 HD
ATOM     30  H   UNL     1       0.300  10.493  16.995  0.00  0.00    +0.000 HD
ENDBRANCH  25  28
ENDBRANCH  23  25
ENDBRANCH  17  19
ENDBRANCH   1  15
BRANCH   1  31
ATOM     31  C   UNL     1       1.639   4.666  20.750  0.00  0.00    +0.000 C 
ATOM     32  C   UNL     1       1.018   4.015  19.510  0.00  0.00    +0.000 C 
ATOM     33  C   UNL     1       2.175   3.551  21.662  0.00  0.00    +0.000 C 
ENDBRANCH   1  31
TORSDOF 9
ENDMDL
MODEL 9
REMARK VINA RESULT:      -8.1      1.425      2.495
REMARK  Name = 
REMARK  12 active torsions:
REMARK  status: ('A' for Active; 'I' for Inactive)
REMARK    1  A    between atoms: C_1  and  C_2
REMARK    2  A    between atoms: C_2  and  O_3
REMARK    3  A    between atoms: O_3  and  C_4
REMARK    4  A    between atoms: C_9  and  C_10
REMARK    5  A    between atoms: N_12  and  C_13
REMARK    6  A    between atoms: C_13  and  C_14
REMARK    7  A    between atoms: C_13  and  C_27
REMARK    8  A    between atoms: N_16  and  C_17
REMARK    9  A    between atoms: C_21  and  S_22
REMARK   10  A    between atoms: S_22  and  N_23
REMARK   11  A    between atoms: C_27  and  C_28
REMARK   12  A    between atoms: C_27  and  C_29
REMARK                            x       y       z     vdW  Elec       q    Type
REMARK                         _______ _______ _______ _____ _____    ______ ____
ROOT
ATOM      1  C   UNL     1       2.683   4.549  19.893  0.00  0.00    +0.000 C 
ENDROOT
BRANCH   1   4
ATOM      2  C   UNL     1       5.073   4.816  19.188  0.00  0.00    +0.000 C 
ATOM      3  O   UNL     1       5.368   3.692  19.593  0.00  0.00    +0.000 OA
ATOM      4  N   UNL     1       3.792   5.298  19.292  0.00  0.00    +0.000 N 
ATOM      5  H   UNL     1       3.595   6.238  18.946  0.00  0.00    +0.000 HD
BRANCH   2  11
ATOM      6  C   UNL     1       6.054   6.321  17.322  0.00  0.00    +0.000 A 
ATOM      7  C   UNL     1       7.067   7.214  16.925  0.00  0.00    +0.000 A 
ATOM      8  C   UNL     1       8.194   7.418  17.720  0.00  0.00    +0.000 A 
ATOM      9  C   UNL     1       8.311   6.755  18.933  0.00  0.00    +0.000 A 
ATOM     10  C   UNL     1       7.279   5.920  19.369  0.00  0.00    +0.000 A 
ATOM     11  C   UNL     1       6.129   5.703  18.585  0.00  0.00    +0.000 A 
BRANCH   6  12
ATOM     12  O   UNL     1       4.984   6.036  16.511  0.00  0.00    +0.000 OA
BRANCH  12  14
ATOM     13  C   UNL     1       5.726   4.007  15.483  0.00  0.00    +0.000 C 
ATOM     14  C   UNL     1       5.304   5.445  15.246  0.00  0.00    +0.000 C 
ENDBRANCH  12  14
ENDBRANCH   6  12
ENDBRANCH   2  11
ENDBRANCH   1   4
BRANCH   1  15
ATOM     15  C   UNL     1       1.675   5.628  20.333  0.00  0.00    +0.000 C 
ATOM     16  O   UNL     1       0.544   5.299  20.695  0.00  0.00    +0.000 OA
ATOM     17  N   UNL     1       2.124   6.938  20.236  0.00  0.00    +0.000 N 
ATOM     18  H   UNL     1       2.931   7.099  19.642  0.00  0.00    +0.000 HD
BRANCH  17  19
ATOM     19  C   UNL     1       1.403   8.072  20.676  0.00  0.00    +0.000 A 
ATOM     20  C   UNL     1       1.253   8.389  22.032  0.00  0.00    +0.000 A 
ATOM     21  C   UNL     1       0.488   9.483  22.441  0.00  0.00    +0.000 A 
ATOM     22  C   UNL     1      -0.134  10.286  21.494  0.00  0.00    +0.000 A 
ATOM     23  C   UNL     1       0.052  10.005  20.139  0.00  0.00    +0.000 A 
ATOM     24  C   UNL     1       0.822   8.910  19.720  0.00  0.00    +0.000 A 
BRANCH  23  25
ATOM     25  S   UNL     1      -0.756  11.028  18.947  0.00  0.00    +0.000 S 
ATOM     26  O   UNL     1      -1.187  10.211  17.832  0.00  0.00    +0.000 OA
ATOM     27  O   UNL     1      -1.639  11.948  19.623  0.00  0.00    +0.000 OA
BRANCH  25  28
ATOM     28  N   UNL     1       0.527  11.947  18.378  0.00  0.00    +0.000 NA
ATOM     29  H   UNL     1       1.135  12.215  19.156  0.00  0.00    +0.000 HD
ATOM     30  H   UNL     1       1.007  11.450  17.629  0.00  0.00    +0.000 HD
ENDBRANCH  25  28
ENDBRANCH  23  25
ENDBRANCH  17  19
ENDBRANCH   1  15
BRANCH   1  31
ATOM     31  C   UNL     1       1.997   3.605  18.868  0.00  0.00    +0.000 C 
ATOM     32  C   UNL     1       2.277   3.995  17.414  0.00  0.00    +0.000 C 
ATOM     33  C   UNL     1       2.422   2.142  19.065  0.00  0.00    +0.000 C 
ENDBRANCH   1  31
TORSDOF 9
ENDMDL
