MODEL 1
REMARK VINA RESULT:      -7.3      0.000      0.000
REMARK  Name = 
REMARK  10 active torsions:
REMARK  status: ('A' for Active; 'I' for Inactive)
REMARK    1  A    between atoms: C_1  and  O_2
REMARK    2  A    between atoms: O_2  and  C_3
REMARK    3  A    between atoms: C_5  and  C_6
REMARK    4  A    between atoms: C_6  and  C_7
REMARK    5  A    between atoms: C_7  and  C_8
REMARK    6  A    between atoms: C_11  and  O_12
REMARK    7  A    between atoms: O_12  and  C_13
REMARK    8  A    between atoms: C_14  and  O_15
REMARK    9  A    between atoms: O_15  and  C_16
REMARK   10  A    between atoms: C_20  and  O_21
REMARK                            x       y       z     vdW  Elec       q    Type
REMARK                         _______ _______ _______ _____ _____    ______ ____
ROOT
ATOM      1  C   UNL     1       2.390   3.489  17.672  0.00  0.00    +0.000 C 
ENDROOT
BRANCH   1   4
ATOM      2  C   UNL     1       2.337   7.093  18.978  0.00  0.00    +0.000 A 
ATOM      3  C   UNL     1       2.470   5.977  18.137  0.00  0.00    +0.000 A 
ATOM      4  C   UNL     1       2.218   4.674  18.594  0.00  0.00    +0.000 A 
ATOM      5  C   UNL     1       1.802   4.498  19.916  0.00  0.00    +0.000 A 
ATOM      6  C   UNL     1       1.664   5.599  20.766  0.00  0.00    +0.000 A 
ATOM      7  C   UNL     1       1.935   6.891  20.302  0.00  0.00    +0.000 A 
BRANCH   2   9
ATOM      8  C   UNL     1       1.575   9.024  17.780  0.00  0.00    +0.000 C 
ATOM      9  O   UNL     1       2.638   8.274  18.350  0.00  0.00    +0.000 OA
ENDBRANCH   2   9
BRANCH   7  10
ATOM     10  O   UNL     1       1.796   7.933  21.177  0.00  0.00    +0.000 OA
ATOM     11  H   UNL     1       0.980   8.416  20.972  0.00  0.00    +0.000 HD
ENDBRANCH   7  10
ENDBRANCH   1   4
BRANCH   1  12
ATOM     12  C   UNL     1       3.802   2.897  17.732  0.00  0.00    +0.000 C 
BRANCH  12  13
ATOM     13  C   UNL     1       4.873   3.941  17.517  0.00  0.00    +0.000 A 
ATOM     14  C   UNL     1       5.512   4.546  18.600  0.00  0.00    +0.000 A 
ATOM     15  C   UNL     1       6.506   5.510  18.392  0.00  0.00    +0.000 A 
ATOM     16  C   UNL     1       6.884   5.900  17.097  0.00  0.00    +0.000 A 
ATOM     17  C   UNL     1       6.241   5.300  15.999  0.00  0.00    +0.000 A 
ATOM     18  C   UNL     1       5.243   4.333  16.226  0.00  0.00    +0.000 A 
BRANCH  16  19
ATOM     19  O   UNL     1       7.850   6.840  16.856  0.00  0.00    +0.000 OA
ATOM     20  C   UNL     1       7.793   8.070  17.564  0.00  0.00    +0.000 C 
ENDBRANCH  16  19
BRANCH  17  21
ATOM     21  O   UNL     1       6.446   5.518  14.660  0.00  0.00    +0.000 OA
ATOM     22  C   UNL     1       6.519   4.405  13.782  0.00  0.00    +0.000 C 
ENDBRANCH  17  21
ENDBRANCH  12  13
ENDBRANCH   1  12
TORSDOF 7
ENDMDL
MODEL 2
REMARK VINA RESULT:      -7.1      0.888      2.365
REMARK  Name = 
REMARK  10 active torsions:
REMARK  status: ('A' for Active; 'I' for Inactive)
REMARK    1  A    between atoms: C_1  and  O_2
REMARK    2  A    between atoms: O_2  and  C_3
REMARK    3  A    between atoms: C_5  and  C_6
REMARK    4  A    between atoms: C_6  and  C_7
REMARK    5  A    between atoms: C_7  and  C_8
REMARK    6  A    between atoms: C_11  and  O_12
REMARK    7  A    between atoms: O_12  and  C_13
REMARK    8  A    between atoms: C_14  and  O_15
REMARK    9  A    between atoms: O_15  and  C_16
REMARK   10  A    between atoms: C_20  and  O_21
REMARK                            x       y       z     vdW  Elec       q    Type
REMARK                         _______ _______ _______ _____ _____    ______ ____
ROOT
ATOM      1  C   UNL     1       2.782   4.018  17.332  0.00  0.00    +0.000 C 
ENDROOT
BRANCH   1   4
ATOM      2  C   UNL     1       2.278   7.400  19.067  0.00  0.00    +0.000 A 
ATOM      3  C   UNL     1       2.542   6.421  18.096  0.00  0.00    +0.000 A 
ATOM      4  C   UNL     1       2.473   5.051  18.391  0.00  0.00    +0.000 A 
ATOM      5  C   UNL     1       2.108   4.662  19.683  0.00  0.00    +0.000 A 
ATOM      6  C   UNL     1       1.842   5.625  20.661  0.00  0.00    +0.000 A 
ATOM      7  C   UNL     1       1.931   6.988  20.357  0.00  0.00    +0.000 A 
BRANCH   2   9
ATOM      8  C   UNL     1       1.365   9.203  17.780  0.00  0.00    +0.000 C 
ATOM      9  O   UNL     1       2.409   8.677  18.587  0.00  0.00    +0.000 OA
ENDBRANCH   2   9
BRANCH   7  10
ATOM     10  O   UNL     1       1.672   7.888  21.353  0.00  0.00    +0.000 OA
ATOM     11  H   UNL     1       2.297   8.627  21.286  0.00  0.00    +0.000 HD
ENDBRANCH   7  10
ENDBRANCH   1   4
BRANCH   1  12
ATOM     12  C   UNL     1       4.171   3.395  17.506  0.00  0.00    +0.000 C 
BRANCH  12  13
ATOM     13  C   UNL     1       5.178   3.951  16.526  0.00  0.00    +0.000 A 
ATOM     14  C   UNL     1       5.311   3.407  15.248  0.00  0.00    +0.000 A 
ATOM     15  C   UNL     1       6.244   3.930  14.346  0.00  0.00    +0.000 A 
ATOM     16  C   UNL     1       7.075   5.007  14.697  0.00  0.00    +0.000 A 
ATOM     17  C   UNL     1       6.953   5.558  15.985  0.00  0.00    +0.000 A 
ATOM     18  C   UNL     1       6.010   5.019  16.881  0.00  0.00    +0.000 A 
BRANCH  16  19
ATOM     19  O   UNL     1       7.999   5.543  13.841  0.00  0.00    +0.000 OA
ATOM     20  C   UNL     1       7.837   5.329  12.445  0.00  0.00    +0.000 C 
ENDBRANCH  16  19
BRANCH  17  21
ATOM     21  O   UNL     1       7.646   6.603  16.541  0.00  0.00    +0.000 OA
ATOM     22  C   UNL     1       7.032   7.374  17.563  0.00  0.00    +0.000 C 
ENDBRANCH  17  21
ENDBRANCH  12  13
ENDBRANCH   1  12
TORSDOF 7
ENDMDL
MODEL 3
REMARK VINA RESULT:      -6.8      2.195      6.111
REMARK  Name = 
REMARK  10 active torsions:
REMARK  status: ('A' for Active; 'I' for Inactive)
REMARK    1  A    between atoms: C_1  and  O_2
REMARK    2  A    between atoms: O_2  and  C_3
REMARK    3  A    between atoms: C_5  and  C_6
REMARK    4  A    between atoms: C_6  and  C_7
REMARK    5  A    between atoms: C_7  and  C_8
REMARK    6  A    between atoms: C_11  and  O_12
REMARK    7  A    between atoms: O_12  and  C_13
REMARK    8  A    between atoms: C_14  and  O_15
REMARK    9  A    between atoms: O_15  and  C_16
REMARK   10  A    between atoms: C_20  and  O_21
REMARK                            x       y       z     vdW  Elec       q    Type
REMARK                         _______ _______ _______ _____ _____    ______ ____
ROOT
ATOM      1  C   UNL     1       4.037   7.886  17.758  0.00  0.00    +0.000 C 
ENDROOT
BRANCH   1   4
ATOM      2  C   UNL     1       6.894   5.347  17.464  0.00  0.00    +0.000 A 
ATOM      3  C   UNL     1       5.974   6.270  17.984  0.00  0.00    +0.000 A 
ATOM      4  C   UNL     1       5.002   6.880  17.175  0.00  0.00    +0.000 A 
ATOM      5  C   UNL     1       4.945   6.533  15.822  0.00  0.00    +0.000 A 
ATOM      6  C   UNL     1       5.854   5.615  15.289  0.00  0.00    +0.000 A 
ATOM      7  C   UNL     1       6.828   5.027  16.103  0.00  0.00    +0.000 A 
BRANCH   2   9
ATOM      8  C   UNL     1       7.883   5.581  19.633  0.00  0.00    +0.000 C 
ATOM      9  O   UNL     1       7.767   4.873  18.408  0.00  0.00    +0.000 OA
ENDBRANCH   2   9
BRANCH   7  10
ATOM     10  O   UNL     1       7.701   4.144  15.529  0.00  0.00    +0.000 OA
ATOM     11  H   UNL     1       7.302   3.781  14.723  0.00  0.00    +0.000 HD
ENDBRANCH   7  10
ENDBRANCH   1   4
BRANCH   1  12
ATOM     12  C   UNL     1       2.574   7.466  17.583  0.00  0.00    +0.000 C 
BRANCH  12  13
ATOM     13  C   UNL     1       2.186   6.334  18.506  0.00  0.00    +0.000 A 
ATOM     14  C   UNL     1       2.100   6.530  19.884  0.00  0.00    +0.000 A 
ATOM     15  C   UNL     1       1.736   5.477  20.732  0.00  0.00    +0.000 A 
ATOM     16  C   UNL     1       1.456   4.197  20.227  0.00  0.00    +0.000 A 
ATOM     17  C   UNL     1       1.546   3.988  18.839  0.00  0.00    +0.000 A 
ATOM     18  C   UNL     1       1.913   5.057  18.001  0.00  0.00    +0.000 A 
BRANCH  16  19
ATOM     19  O   UNL     1       1.099   3.144  21.026  0.00  0.00    +0.000 OA
ATOM     20  C   UNL     1       2.121   2.433  21.709  0.00  0.00    +0.000 C 
ENDBRANCH  16  19
BRANCH  17  21
ATOM     21  O   UNL     1       1.315   2.838  18.128  0.00  0.00    +0.000 OA
ATOM     22  C   UNL     1       2.420   2.045  17.718  0.00  0.00    +0.000 C 
ENDBRANCH  17  21
ENDBRANCH  12  13
ENDBRANCH   1  12
TORSDOF 7
ENDMDL
MODEL 4
REMARK VINA RESULT:      -6.8      4.087      7.246
REMARK  Name = 
REMARK  10 active torsions:
REMARK  status: ('A' for Active; 'I' for Inactive)
REMARK    1  A    between atoms: C_1  and  O_2
REMARK    2  A    between atoms: O_2  and  C_3
REMARK    3  A    between atoms: C_5  and  C_6
REMARK    4  A    between atoms: C_6  and  C_7
REMARK    5  A    between atoms: C_7  and  C_8
REMARK    6  A    between atoms: C_11  and  O_12
REMARK    7  A    between atoms: O_12  and  C_13
REMARK    8  A    between atoms: C_14  and  O_15
REMARK    9  A    between atoms: O_15  and  C_16
REMARK   10  A    between atoms: C_20  and  O_21
REMARK                            x       y       z     vdW  Elec       q    Type
REMARK                         _______ _______ _______ _____ _____    ______ ____
ROOT
ATOM      1  C   UNL     1       8.459   7.787  18.723  0.00  0.00    +0.000 C 
ENDROOT
BRANCH   1   4
ATOM      2  C   UNL     1       6.393   5.521  16.422  0.00  0.00    +0.000 A 
ATOM      3  C   UNL     1       7.223   6.552  16.890  0.00  0.00    +0.000 A 
ATOM      4  C   UNL     1       7.580   6.655  18.243  0.00  0.00    +0.000 A 
ATOM      5  C   UNL     1       7.109   5.687  19.135  0.00  0.00    +0.000 A 
ATOM      6  C   UNL     1       6.281   4.655  18.684  0.00  0.00    +0.000 A 
ATOM      7  C   UNL     1       5.920   4.573  17.335  0.00  0.00    +0.000 A 
BRANCH   2   9
ATOM      8  C   UNL     1       7.026   4.909  14.193  0.00  0.00    +0.000 C 
ATOM      9  O   UNL     1       6.153   5.600  15.075  0.00  0.00    +0.000 OA
ENDBRANCH   2   9
BRANCH   7  10
ATOM     10  O   UNL     1       5.099   3.550  16.948  0.00  0.00    +0.000 OA
ATOM     11  H   UNL     1       4.289   3.573  17.480  0.00  0.00    +0.000 HD
ENDBRANCH   7  10
ENDBRANCH   1   4
BRANCH   1  12
ATOM     12  C   UNL     1       8.185   9.099  17.981  0.00  0.00    +0.000 C 
BRANCH  12  13
ATOM     13  C   UNL     1       8.950  10.263  18.568  0.00  0.00    +0.000 A 
ATOM     14  C   UNL     1       9.302  10.281  19.918  0.00  0.00    +0.000 A 
ATOM     15  C   UNL     1      10.013  11.361  20.454  0.00  0.00    +0.000 A 
ATOM     16  C   UNL     1      10.387  12.456  19.658  0.00  0.00    +0.000 A 
ATOM     17  C   UNL     1      10.031  12.449  18.297  0.00  0.00    +0.000 A 
ATOM     18  C   UNL     1       9.315  11.356  17.774  0.00  0.00    +0.000 A 
BRANCH  16  19
ATOM     19  O   UNL     1      11.082  13.529  20.147  0.00  0.00    +0.000 OA
ATOM     20  C   UNL     1      10.390  14.478  20.947  0.00  0.00    +0.000 C 
ENDBRANCH  16  19
BRANCH  17  21
ATOM     21  O   UNL     1      10.289  13.395  17.338  0.00  0.00    +0.000 OA
ATOM     22  C   UNL     1      11.532  13.364  16.651  0.00  0.00    +0.000 C 
ENDBRANCH  17  21
ENDBRANCH  12  13
ENDBRANCH   1  12
TORSDOF 7
ENDMDL
MODEL 5
REMARK VINA RESULT:      -6.8      2.319      6.923
REMARK  Name = 
REMARK  10 active torsions:
REMARK  status: ('A' for Active; 'I' for Inactive)
REMARK    1  A    between atoms: C_1  and  O_2
REMARK    2  A    between atoms: O_2  and  C_3
REMARK    3  A    between atoms: C_5  and  C_6
REMARK    4  A    between atoms: C_6  and  C_7
REMARK    5  A    between atoms: C_7  and  C_8
REMARK    6  A    between atoms: C_11  and  O_12
REMARK    7  A    between atoms: O_12  and  C_13
REMARK    8  A    between atoms: C_14  and  O_15
REMARK    9  A    between atoms: O_15  and  C_16
REMARK   10  A    between atoms: C_20  and  O_21
REMARK                            x       y       z     vdW  Elec       q    Type
REMARK                         _______ _______ _______ _____ _____    ______ ____
ROOT
ATOM      1  C   UNL     1       3.531   7.309  17.507  0.00  0.00    +0.000 C 
ENDROOT
BRANCH   1   4
ATOM      2  C   UNL     1       6.766   5.558  16.430  0.00  0.00    +0.000 A 
ATOM      3  C   UNL     1       5.614   6.359  16.425  0.00  0.00    +0.000 A 
ATOM      4  C   UNL     1       4.776   6.454  17.547  0.00  0.00    +0.000 A 
ATOM      5  C   UNL     1       5.122   5.747  18.702  0.00  0.00    +0.000 A 
ATOM      6  C   UNL     1       6.266   4.944  18.723  0.00  0.00    +0.000 A 
ATOM      7  C   UNL     1       7.083   4.845  17.591  0.00  0.00    +0.000 A 
BRANCH   2   9
ATOM      8  C   UNL     1       6.990   4.752  14.185  0.00  0.00    +0.000 C 
ATOM      9  O   UNL     1       7.443   5.588  15.239  0.00  0.00    +0.000 OA
ENDBRANCH   2   9
BRANCH   7  10
ATOM     10  O   UNL     1       8.184   4.037  17.661  0.00  0.00    +0.000 OA
ATOM     11  H   UNL     1       8.763   4.347  18.376  0.00  0.00    +0.000 HD
ENDBRANCH   7  10
ENDBRANCH   1   4
BRANCH   1  12
ATOM     12  C   UNL     1       2.442   6.806  18.461  0.00  0.00    +0.000 C 
BRANCH  12  13
ATOM     13  C   UNL     1       1.909   7.903  19.354  0.00  0.00    +0.000 A 
ATOM     14  C   UNL     1       1.735   7.691  20.722  0.00  0.00    +0.000 A 
ATOM     15  C   UNL     1       1.244   8.713  21.543  0.00  0.00    +0.000 A 
ATOM     16  C   UNL     1       0.907   9.972  21.020  0.00  0.00    +0.000 A 
ATOM     17  C   UNL     1       1.073  10.193  19.641  0.00  0.00    +0.000 A 
ATOM     18  C   UNL     1       1.567   9.154  18.829  0.00  0.00    +0.000 A 
BRANCH  16  19
ATOM     19  O   UNL     1       0.423  10.993  21.792  0.00  0.00    +0.000 OA
ATOM     20  C   UNL     1      -0.980  11.215  21.826  0.00  0.00    +0.000 C 
ENDBRANCH  16  19
BRANCH  17  21
ATOM     21  O   UNL     1       0.817  11.329  18.916  0.00  0.00    +0.000 OA
ATOM     22  C   UNL     1       1.841  12.302  18.772  0.00  0.00    +0.000 C 
ENDBRANCH  17  21
ENDBRANCH  12  13
ENDBRANCH   1  12
TORSDOF 7
ENDMDL
MODEL 6
REMARK VINA RESULT:      -6.8      0.943      2.121
REMARK  Name = 
REMARK  10 active torsions:
REMARK  status: ('A' for Active; 'I' for Inactive)
REMARK    1  A    between atoms: C_1  and  O_2
REMARK    2  A    between atoms: O_2  and  C_3
REMARK    3  A    between atoms: C_5  and  C_6
REMARK    4  A    between atoms: C_6  and  C_7
REMARK    5  A    between atoms: C_7  and  C_8
REMARK    6  A    between atoms: C_11  and  O_12
REMARK    7  A    between atoms: O_12  and  C_13
REMARK    8  A    between atoms: C_14  and  O_15
REMARK    9  A    between atoms: O_15  and  C_16
REMARK   10  A    between atoms: C_20  and  O_21
REMARK                            x       y       z     vdW  Elec       q    Type
REMARK                         _______ _______ _______ _____ _____    ______ ____
ROOT
ATOM      1  C   UNL     1       2.240   3.542  17.597  0.00  0.00    +0.000 C 
ENDROOT
BRANCH   1   4
ATOM      2  C   UNL     1       2.325   7.146  18.900  0.00  0.00    +0.000 A 
ATOM      3  C   UNL     1       2.397   6.027  18.055  0.00  0.00    +0.000 A 
ATOM      4  C   UNL     1       2.136   4.731  18.524  0.00  0.00    +0.000 A 
ATOM      5  C   UNL     1       1.773   4.564  19.863  0.00  0.00    +0.000 A 
ATOM      6  C   UNL     1       1.697   5.668  20.717  0.00  0.00    +0.000 A 
ATOM      7  C   UNL     1       1.976   6.954  20.240  0.00  0.00    +0.000 A 
BRANCH   2   9
ATOM      8  C   UNL     1       1.554   9.162  17.858  0.00  0.00    +0.000 C 
ATOM      9  O   UNL     1       2.625   8.319  18.258  0.00  0.00    +0.000 OA
ENDBRANCH   2   9
BRANCH   7  10
ATOM     10  O   UNL     1       1.899   7.998  21.120  0.00  0.00    +0.000 OA
ATOM     11  H   UNL     1       1.353   8.701  20.733  0.00  0.00    +0.000 HD
ENDBRANCH   7  10
ENDBRANCH   1   4
BRANCH   1  12
ATOM     12  C   UNL     1       3.618   2.873  17.653  0.00  0.00    +0.000 C 
BRANCH  12  13
ATOM     13  C   UNL     1       4.747   3.871  17.541  0.00  0.00    +0.000 A 
ATOM     14  C   UNL     1       5.119   4.397  16.304  0.00  0.00    +0.000 A 
ATOM     15  C   UNL     1       6.163   5.324  16.210  0.00  0.00    +0.000 A 
ATOM     16  C   UNL     1       6.870   5.746  17.348  0.00  0.00    +0.000 A 
ATOM     17  C   UNL     1       6.506   5.217  18.599  0.00  0.00    +0.000 A 
ATOM     18  C   UNL     1       5.454   4.284  18.676  0.00  0.00    +0.000 A 
BRANCH  16  19
ATOM     19  O   UNL     1       7.897   6.650  17.293  0.00  0.00    +0.000 OA
ATOM     20  C   UNL     1       7.606   8.023  17.512  0.00  0.00    +0.000 C 
ENDBRANCH  16  19
BRANCH  17  21
ATOM     21  O   UNL     1       7.044   5.482  19.832  0.00  0.00    +0.000 OA
ATOM     22  C   UNL     1       8.439   5.306  20.031  0.00  0.00    +0.000 C 
ENDBRANCH  17  21
ENDBRANCH  12  13
ENDBRANCH   1  12
TORSDOF 7
ENDMDL
MODEL 7
REMARK VINA RESULT:      -6.8      1.723      3.492
REMARK  Name = 
REMARK  10 active torsions:
REMARK  status: ('A' for Active; 'I' for Inactive)
REMARK    1  A    between atoms: C_1  and  O_2
REMARK    2  A    between atoms: O_2  and  C_3
REMARK    3  A    between atoms: C_5  and  C_6
REMARK    4  A    between atoms: C_6  and  C_7
REMARK    5  A    between atoms: C_7  and  C_8
REMARK    6  A    between atoms: C_11  and  O_12
REMARK    7  A    between atoms: O_12  and  C_13
REMARK    8  A    between atoms: C_14  and  O_15
REMARK    9  A    between atoms: O_15  and  C_16
REMARK   10  A    between atoms: C_20  and  O_21
REMARK                            x       y       z     vdW  Elec       q    Type
REMARK                         _______ _______ _______ _____ _____    ______ ____
ROOT
ATOM      1  C   UNL     1       2.939   6.268  19.503  0.00  0.00    +0.000 C 
ENDROOT
BRANCH   1   4
ATOM      2  C   UNL     1       0.813   9.354  20.312  0.00  0.00    +0.000 A 
ATOM      3  C   UNL     1       1.551   8.167  20.441  0.00  0.00    +0.000 A 
ATOM      4  C   UNL     1       2.168   7.557  19.338  0.00  0.00    +0.000 A 
ATOM      5  C   UNL     1       2.057   8.170  18.087  0.00  0.00    +0.000 A 
ATOM      6  C   UNL     1       1.325   9.352  17.942  0.00  0.00    +0.000 A 
ATOM      7  C   UNL     1       0.701   9.940  19.047  0.00  0.00    +0.000 A 
BRANCH   2   9
ATOM      8  C   UNL     1       0.823   9.268  22.707  0.00  0.00    +0.000 C 
ATOM      9  O   UNL     1       0.280   9.783  21.500  0.00  0.00    +0.000 OA
ENDBRANCH   2   9
BRANCH   7  10
ATOM     10  O   UNL     1      -0.012  11.090  18.849  0.00  0.00    +0.000 OA
ATOM     11  H   UNL     1      -0.895  10.864  18.515  0.00  0.00    +0.000 HD
ENDBRANCH   7  10
ENDBRANCH   1   4
BRANCH   1  12
ATOM     12  C   UNL     1       2.789   5.335  18.297  0.00  0.00    +0.000 C 
BRANCH  12  13
ATOM     13  C   UNL     1       4.028   5.306  17.433  0.00  0.00    +0.000 A 
ATOM     14  C   UNL     1       4.288   4.227  16.588  0.00  0.00    +0.000 A 
ATOM     15  C   UNL     1       5.437   4.211  15.788  0.00  0.00    +0.000 A 
ATOM     16  C   UNL     1       6.361   5.268  15.816  0.00  0.00    +0.000 A 
ATOM     17  C   UNL     1       6.111   6.358  16.669  0.00  0.00    +0.000 A 
ATOM     18  C   UNL     1       4.951   6.358  17.468  0.00  0.00    +0.000 A 
BRANCH  16  19
ATOM     19  O   UNL     1       7.495   5.285  15.049  0.00  0.00    +0.000 OA
ATOM     20  C   UNL     1       7.412   4.834  13.704  0.00  0.00    +0.000 C 
ENDBRANCH  16  19
BRANCH  17  21
ATOM     21  O   UNL     1       6.860   7.491  16.857  0.00  0.00    +0.000 OA
ATOM     22  C   UNL     1       7.872   7.494  17.854  0.00  0.00    +0.000 C 
ENDBRANCH  17  21
ENDBRANCH  12  13
ENDBRANCH   1  12
TORSDOF 7
ENDMDL
MODEL 8
REMARK VINA RESULT:      -6.8      1.184      6.192
REMARK  Name = 
REMARK  10 active torsions:
REMARK  status: ('A' for Active; 'I' for Inactive)
REMARK    1  A    between atoms: C_1  and  O_2
REMARK    2  A    between atoms: O_2  and  C_3
REMARK    3  A    between atoms: C_5  and  C_6
REMARK    4  A    between atoms: C_6  and  C_7
REMARK    5  A    between atoms: C_7  and  C_8
REMARK    6  A    between atoms: C_11  and  O_12
REMARK    7  A    between atoms: O_12  and  C_13
REMARK    8  A    between atoms: C_14  and  O_15
REMARK    9  A    between atoms: O_15  and  C_16
REMARK   10  A    between atoms: C_20  and  O_21
REMARK                            x       y       z     vdW  Elec       q    Type
REMARK                         _______ _______ _______ _____ _____    ______ ____
ROOT
ATOM      1  C   UNL     1       4.075   3.365  17.556  0.00  0.00    +0.000 C 
ENDROOT
BRANCH   1   4
ATOM      2  C   UNL     1       6.295   4.085  14.515  0.00  0.00    +0.000 A 
ATOM      3  C   UNL     1       5.308   3.540  15.351  0.00  0.00    +0.000 A 
ATOM      4  C   UNL     1       5.133   3.983  16.671  0.00  0.00    +0.000 A 
ATOM      5  C   UNL     1       5.953   5.010  17.147  0.00  0.00    +0.000 A 
ATOM      6  C   UNL     1       6.941   5.562  16.326  0.00  0.00    +0.000 A 
ATOM      7  C   UNL     1       7.116   5.100  15.017  0.00  0.00    +0.000 A 
BRANCH   2   9
ATOM      8  C   UNL     1       5.105   3.477  12.526  0.00  0.00    +0.000 C 
ATOM      9  O   UNL     1       6.315   3.512  13.269  0.00  0.00    +0.000 OA
ENDBRANCH   2   9
BRANCH   7  10
ATOM     10  O   UNL     1       8.103   5.666  14.260  0.00  0.00    +0.000 OA
ATOM     11  H   UNL     1       8.860   5.878  14.829  0.00  0.00    +0.000 HD
ENDBRANCH   7  10
ENDBRANCH   1   4
BRANCH   1  12
ATOM     12  C   UNL     1       2.699   4.010  17.365  0.00  0.00    +0.000 C 
BRANCH  12  13
ATOM     13  C   UNL     1       2.417   5.080  18.395  0.00  0.00    +0.000 A 
ATOM     14  C   UNL     1       1.994   4.743  19.681  0.00  0.00    +0.000 A 
ATOM     15  C   UNL     1       1.739   5.740  20.630  0.00  0.00    +0.000 A 
ATOM     16  C   UNL     1       1.891   7.101  20.318  0.00  0.00    +0.000 A 
ATOM     17  C   UNL     1       2.311   7.451  19.022  0.00  0.00    +0.000 A 
ATOM     18  C   UNL     1       2.563   6.435  18.080  0.00  0.00    +0.000 A 
BRANCH  16  19
ATOM     19  O   UNL     1       1.650   8.102  21.220  0.00  0.00    +0.000 OA
ATOM     20  C   UNL     1       0.347   8.668  21.274  0.00  0.00    +0.000 C 
ENDBRANCH  16  19
BRANCH  17  21
ATOM     21  O   UNL     1       2.530   8.699  18.498  0.00  0.00    +0.000 OA
ATOM     22  C   UNL     1       1.506   9.320  17.736  0.00  0.00    +0.000 C 
ENDBRANCH  17  21
ENDBRANCH  12  13
ENDBRANCH   1  12
TORSDOF 7
ENDMDL
MODEL 9
REMARK VINA RESULT:      -6.8      2.346      7.247
REMARK  Name = 
REMARK  10 active torsions:
REMARK  status: ('A' for Active; 'I' for Inactive)
REMARK    1  A    between atoms: C_1  and  O_2
REMARK    2  A    between atoms: O_2  and  C_3
REMARK    3  A    between atoms: C_5  and  C_6
REMARK    4  A    between atoms: C_6  and  C_7
REMARK    5  A    between atoms: C_7  and  C_8
REMARK    6  A    between atoms: C_11  and  O_12
REMARK    7  A    between atoms: O_12  and  C_13
REMARK    8  A    between atoms: C_14  and  O_15
REMARK    9  A    between atoms: O_15  and  C_16
REMARK   10  A    between atoms: C_20  and  O_21
REMARK                            x       y       z     vdW  Elec       q    Type
REMARK                         _______ _______ _______ _____ _____    ______ ____
ROOT
ATOM      1  C   UNL     1       3.570   7.204  17.529  0.00  0.00    +0.000 C 
ENDROOT
BRANCH   1   4
ATOM      2  C   UNL     1       6.821   5.494  16.431  0.00  0.00    +0.000 A 
ATOM      3  C   UNL     1       5.655   6.275  16.431  0.00  0.00    +0.000 A 
ATOM      4  C   UNL     1       4.831   6.372  17.563  0.00  0.00    +0.000 A 
ATOM      5  C   UNL     1       5.205   5.686  18.722  0.00  0.00    +0.000 A 
ATOM      6  C   UNL     1       6.363   4.904  18.738  0.00  0.00    +0.000 A 
ATOM      7  C   UNL     1       7.166   4.803  17.597  0.00  0.00    +0.000 A 
BRANCH   2   9
ATOM      8  C   UNL     1       6.950   4.762  14.153  0.00  0.00    +0.000 C 
ATOM      9  O   UNL     1       7.481   5.521  15.230  0.00  0.00    +0.000 OA
ENDBRANCH   2   9
BRANCH   7  10
ATOM     10  O   UNL     1       8.282   4.016  17.662  0.00  0.00    +0.000 OA
ATOM     11  H   UNL     1       8.107   3.176  17.209  0.00  0.00    +0.000 HD
ENDBRANCH   7  10
ENDBRANCH   1   4
BRANCH   1  12
ATOM     12  C   UNL     1       2.740   7.067  18.810  0.00  0.00    +0.000 C 
BRANCH  12  13
ATOM     13  C   UNL     1       1.900   8.292  19.085  0.00  0.00    +0.000 A 
ATOM     14  C   UNL     1       1.864   9.355  18.181  0.00  0.00    +0.000 A 
ATOM     15  C   UNL     1       1.081  10.485  18.442  0.00  0.00    +0.000 A 
ATOM     16  C   UNL     1       0.317  10.588  19.616  0.00  0.00    +0.000 A 
ATOM     17  C   UNL     1       0.351   9.525  20.536  0.00  0.00    +0.000 A 
ATOM     18  C   UNL     1       1.145   8.396  20.259  0.00  0.00    +0.000 A 
BRANCH  16  19
ATOM     19  O   UNL     1      -0.460  11.678  19.904  0.00  0.00    +0.000 OA
ATOM     20  C   UNL     1       0.121  12.753  20.630  0.00  0.00    +0.000 C 
ENDBRANCH  16  19
BRANCH  17  21
ATOM     21  O   UNL     1      -0.309   9.403  21.733  0.00  0.00    +0.000 OA
ATOM     22  C   UNL     1       0.438   9.431  22.940  0.00  0.00    +0.000 C 
ENDBRANCH  17  21
ENDBRANCH  12  13
ENDBRANCH   1  12
TORSDOF 7
ENDMDL
