MODEL 1
REMARK VINA RESULT:      -8.8      0.000      0.000
REMARK  Name = 
REMARK  4 active torsions:
REMARK  status: ('A' for Active; 'I' for Inactive)
REMARK    1  A    between atoms: C_2  and  C_11
REMARK    2  A    between atoms: N_3  and  C_4
REMARK    3  A    between atoms: C_13  and  C_14
REMARK    4  A    between atoms: C_19  and  C_21
REMARK                            x       y       z     vdW  Elec       q    Type
REMARK                         _______ _______ _______ _____ _____    ______ ____
ROOT
ATOM      1  C   UNL     1       6.797   4.674  17.104  0.00  0.00    +0.000 C 
ATOM      2  C   UNL     1       6.356   4.929  15.651  0.00  0.00    +0.000 C 
ATOM      3  C   UNL     1       5.063   5.748  15.550  0.00  0.00    +0.000 C 
ATOM      4  C   UNL     1       3.969   5.202  16.476  0.00  0.00    +0.000 C 
ATOM      5  N   UNL     1       4.477   5.033  17.841  0.00  0.00    +0.000 N 
ATOM      6  C   UNL     1       4.058   5.672  19.013  0.00  0.00    +0.000 C 
ATOM      7  O   UNL     1       4.448   5.312  20.125  0.00  0.00    +0.000 OA
ATOM      8  C   UNL     1       5.625   4.136  17.937  0.00  0.00    +0.000 C 
ENDROOT
BRANCH   6   9
ATOM      9  C   UNL     1       3.122   6.827  18.975  0.00  0.00    +0.000 A 
ATOM     10  C   UNL     1       3.087   7.619  17.805  0.00  0.00    +0.000 A 
ATOM     11  C   UNL     1       2.237   8.727  17.714  0.00  0.00    +0.000 A 
ATOM     12  C   UNL     1       1.447   9.021  18.804  0.00  0.00    +0.000 A 
ATOM     13  C   UNL     1       1.451   8.232  19.941  0.00  0.00    +0.000 A 
ATOM     14  C   UNL     1       2.240   7.103  20.024  0.00  0.00    +0.000 A 
ATOM     15  C   UNL     1       0.595   8.850  20.975  0.00  0.00    +0.000 C 
ATOM     16  C   UNL     1      -0.180   9.816  20.082  0.00  0.00    +0.000 C 
ATOM     17  O   UNL     1       0.603  10.096  18.894  0.00  0.00    +0.000 OA
ENDBRANCH   6   9
BRANCH   1  20
ATOM     18  C   UNL     1       8.224   7.833  18.372  0.00  0.00    +0.000 A 
ATOM     19  C   UNL     1       7.574   7.170  17.303  0.00  0.00    +0.000 A 
ATOM     20  C   UNL     1       7.435   5.876  17.725  0.00  0.00    +0.000 A 
ATOM     21  O   UNL     1       8.001   5.757  18.960  0.00  0.00    +0.000 OA
ATOM     22  N   UNL     1       8.511   6.982  19.367  0.00  0.00    +0.000 NA
BRANCH  18  24
ATOM     23  O   UNL     1       7.975  10.026  17.615  0.00  0.00    +0.000 OA
ATOM     24  C   UNL     1       8.501   9.270  18.424  0.00  0.00    +0.000 C 
ATOM     25  N   UNL     1       9.431   9.666  19.374  0.00  0.00    +0.000 N 
ATOM     26  H   UNL     1      10.063   8.937  19.695  0.00  0.00    +0.000 HD
BRANCH  25  27
ATOM     27  C   UNL     1       9.866  11.009  19.448  0.00  0.00    +0.000 A 
ATOM     28  C   UNL     1      10.642  11.556  18.416  0.00  0.00    +0.000 A 
ATOM     29  C   UNL     1      11.123  12.863  18.506  0.00  0.00    +0.000 A 
ATOM     30  C   UNL     1      10.842  13.630  19.634  0.00  0.00    +0.000 A 
ATOM     31  C   UNL     1      10.055  13.101  20.659  0.00  0.00    +0.000 A 
ATOM     32  C   UNL     1       9.549  11.803  20.557  0.00  0.00    +0.000 A 
ATOM     33 CL   UNL     1       8.625  11.169  21.873  0.00  0.00    +0.000 Cl
ENDBRANCH  25  27
ENDBRANCH  18  24
ENDBRANCH   1  20
TORSDOF 4
ENDMDL
MODEL 2
REMARK VINA RESULT:      -8.5      0.587      1.188
REMARK  Name = 
REMARK  4 active torsions:
REMARK  status: ('A' for Active; 'I' for Inactive)
REMARK    1  A    between atoms: C_2  and  C_11
REMARK    2  A    between atoms: N_3  and  C_4
REMARK    3  A    between atoms: C_13  and  C_14
REMARK    4  A    between atoms: C_19  and  C_21
REMARK                            x       y       z     vdW  Elec       q    Type
REMARK                         _______ _______ _______ _____ _____    ______ ____
ROOT
ATOM      1  C   UNL     1       6.895   4.883  16.841  0.00  0.00    +0.000 C 
ATOM      2  C   UNL     1       6.306   5.270  15.472  0.00  0.00    +0.000 C 
ATOM      3  C   UNL     1       4.954   5.987  15.580  0.00  0.00    +0.000 C 
ATOM      4  C   UNL     1       3.991   5.248  16.517  0.00  0.00    +0.000 C 
ATOM      5  N   UNL     1       4.631   4.962  17.804  0.00  0.00    +0.000 N 
ATOM      6  C   UNL     1       4.276   5.422  19.077  0.00  0.00    +0.000 C 
ATOM      7  O   UNL     1       4.789   4.967  20.100  0.00  0.00    +0.000 OA
ATOM      8  C   UNL     1       5.844   4.157  17.694  0.00  0.00    +0.000 C 
ENDROOT
BRANCH   6   9
ATOM      9  C   UNL     1       3.260   6.493  19.258  0.00  0.00    +0.000 A 
ATOM     10  C   UNL     1       2.426   6.437  20.398  0.00  0.00    +0.000 A 
ATOM     11  C   UNL     1       1.442   7.407  20.616  0.00  0.00    +0.000 A 
ATOM     12  C   UNL     1       1.311   8.410  19.679  0.00  0.00    +0.000 A 
ATOM     13  C   UNL     1       2.145   8.492  18.577  0.00  0.00    +0.000 A 
ATOM     14  C   UNL     1       3.158   7.576  18.379  0.00  0.00    +0.000 A 
ATOM     15  C   UNL     1       1.699   9.595  17.701  0.00  0.00    +0.000 C 
ATOM     16  C   UNL     1       0.808  10.332  18.697  0.00  0.00    +0.000 C 
ATOM     17  O   UNL     1       0.368   9.403  19.719  0.00  0.00    +0.000 OA
ENDBRANCH   6   9
BRANCH   1  20
ATOM     18  C   UNL     1       8.256   7.973  18.333  0.00  0.00    +0.000 A 
ATOM     19  C   UNL     1       7.672   7.362  17.196  0.00  0.00    +0.000 A 
ATOM     20  C   UNL     1       7.498   6.053  17.553  0.00  0.00    +0.000 A 
ATOM     21  O   UNL     1       7.983   5.876  18.816  0.00  0.00    +0.000 OA
ATOM     22  N   UNL     1       8.473   7.078  19.306  0.00  0.00    +0.000 NA
BRANCH  18  24
ATOM     23  O   UNL     1       7.969  10.211  17.737  0.00  0.00    +0.000 OA
ATOM     24  C   UNL     1       8.538   9.404  18.464  0.00  0.00    +0.000 C 
ATOM     25  N   UNL     1       9.521   9.738  19.385  0.00  0.00    +0.000 N 
ATOM     26  H   UNL     1      10.168   8.990  19.621  0.00  0.00    +0.000 HD
BRANCH  25  27
ATOM     27  C   UNL     1       9.962  11.074  19.523  0.00  0.00    +0.000 A 
ATOM     28  C   UNL     1      10.815  11.637  18.563  0.00  0.00    +0.000 A 
ATOM     29  C   UNL     1      11.301  12.936  18.719  0.00  0.00    +0.000 A 
ATOM     30  C   UNL     1      10.947  13.679  19.842  0.00  0.00    +0.000 A 
ATOM     31  C   UNL     1      10.083  13.134  20.796  0.00  0.00    +0.000 A 
ATOM     32  C   UNL     1       9.573  11.844  20.625  0.00  0.00    +0.000 A 
ATOM     33 CL   UNL     1       8.551  11.190  21.855  0.00  0.00    +0.000 Cl
ENDBRANCH  25  27
ENDBRANCH  18  24
ENDBRANCH   1  20
TORSDOF 4
ENDMDL
MODEL 3
REMARK VINA RESULT:      -8.4      5.280      9.101
REMARK  Name = 
REMARK  4 active torsions:
REMARK  status: ('A' for Active; 'I' for Inactive)
REMARK    1  A    between atoms: C_2  and  C_11
REMARK    2  A    between atoms: N_3  and  C_4
REMARK    3  A    between atoms: C_13  and  C_14
REMARK    4  A    between atoms: C_19  and  C_21
REMARK                            x       y       z     vdW  Elec       q    Type
REMARK                         _______ _______ _______ _____ _____    ______ ____
ROOT
ATOM      1  C   UNL     1       1.732  12.533  18.527  0.00  0.00    +0.000 C 
ATOM      2  C   UNL     1       2.472  13.381  19.576  0.00  0.00    +0.000 C 
ATOM      3  C   UNL     1       1.606  13.721  20.795  0.00  0.00    +0.000 C 
ATOM      4  C   UNL     1       0.228  14.253  20.383  0.00  0.00    +0.000 C 
ATOM      5  N   UNL     1      -0.410  13.356  19.415  0.00  0.00    +0.000 N 
ATOM      6  C   UNL     1      -1.598  12.629  19.550  0.00  0.00    +0.000 C 
ATOM      7  O   UNL     1      -2.117  12.049  18.596  0.00  0.00    +0.000 OA
ATOM      8  C   UNL     1       0.367  13.154  18.196  0.00  0.00    +0.000 C 
ENDROOT
BRANCH   6   9
ATOM      9  C   UNL     1      -2.292  12.516  20.860  0.00  0.00    +0.000 A 
ATOM     10  C   UNL     1      -1.585  11.950  21.945  0.00  0.00    +0.000 A 
ATOM     11  C   UNL     1      -2.189  11.804  23.198  0.00  0.00    +0.000 A 
ATOM     12  C   UNL     1      -3.496  12.221  23.333  0.00  0.00    +0.000 A 
ATOM     13  C   UNL     1      -4.186  12.806  22.286  0.00  0.00    +0.000 A 
ATOM     14  C   UNL     1      -3.585  13.011  21.060  0.00  0.00    +0.000 A 
ATOM     15  C   UNL     1      -5.587  13.046  22.689  0.00  0.00    +0.000 C 
ATOM     16  C   UNL     1      -5.416  12.910  24.200  0.00  0.00    +0.000 C 
ATOM     17  O   UNL     1      -4.245  12.101  24.474  0.00  0.00    +0.000 OA
ENDBRANCH   6   9
BRANCH   1  20
ATOM     18  C   UNL     1       1.650   8.910  19.229  0.00  0.00    +0.000 A 
ATOM     19  C   UNL     1       1.942   9.929  18.291  0.00  0.00    +0.000 A 
ATOM     20  C   UNL     1       1.622  11.096  18.930  0.00  0.00    +0.000 A 
ATOM     21  O   UNL     1       1.130  10.795  20.167  0.00  0.00    +0.000 OA
ATOM     22  N   UNL     1       1.133   9.421  20.355  0.00  0.00    +0.000 NA
BRANCH  18  24
ATOM     23  O   UNL     1       1.927   7.011  17.902  0.00  0.00    +0.000 OA
ATOM     24  C   UNL     1       1.924   7.485  19.032  0.00  0.00    +0.000 C 
ATOM     25  N   UNL     1       2.092   6.742  20.192  0.00  0.00    +0.000 N 
ATOM     26  H   UNL     1       1.688   7.149  21.032  0.00  0.00    +0.000 HD
BRANCH  25  27
ATOM     27  C   UNL     1       2.251   5.339  20.138  0.00  0.00    +0.000 A 
ATOM     28  C   UNL     1       1.184   4.495  20.480  0.00  0.00    +0.000 A 
ATOM     29  C   UNL     1       1.348   3.109  20.484  0.00  0.00    +0.000 A 
ATOM     30  C   UNL     1       2.583   2.555  20.157  0.00  0.00    +0.000 A 
ATOM     31  C   UNL     1       3.647   3.385  19.797  0.00  0.00    +0.000 A 
ATOM     32  C   UNL     1       3.475   4.772  19.765  0.00  0.00    +0.000 A 
ATOM     33 CL   UNL     1       4.833   5.764  19.367  0.00  0.00    +0.000 Cl
ENDBRANCH  25  27
ENDBRANCH  18  24
ENDBRANCH   1  20
TORSDOF 4
ENDMDL
MODEL 4
REMARK VINA RESULT:      -8.4      5.010      9.012
REMARK  Name = 
REMARK  4 active torsions:
REMARK  status: ('A' for Active; 'I' for Inactive)
REMARK    1  A    between atoms: C_2  and  C_11
REMARK    2  A    between atoms: N_3  and  C_4
REMARK    3  A    between atoms: C_13  and  C_14
REMARK    4  A    between atoms: C_19  and  C_21
REMARK                            x       y       z     vdW  Elec       q    Type
REMARK                         _______ _______ _______ _____ _____    ______ ____
ROOT
ATOM      1  C   UNL     1       1.511  12.580  18.533  0.00  0.00    +0.000 C 
ATOM      2  C   UNL     1       2.216  13.520  19.527  0.00  0.00    +0.000 C 
ATOM      3  C   UNL     1       1.343  13.886  20.734  0.00  0.00    +0.000 C 
ATOM      4  C   UNL     1      -0.063  14.327  20.305  0.00  0.00    +0.000 C 
ATOM      5  N   UNL     1      -0.663  13.346  19.395  0.00  0.00    +0.000 N 
ATOM      6  C   UNL     1      -1.813  12.572  19.582  0.00  0.00    +0.000 C 
ATOM      7  O   UNL     1      -2.310  11.914  18.666  0.00  0.00    +0.000 OA
ATOM      8  C   UNL     1       0.115  13.115  18.182  0.00  0.00    +0.000 C 
ENDROOT
BRANCH   6   9
ATOM      9  C   UNL     1      -2.492  12.498  20.902  0.00  0.00    +0.000 A 
ATOM     10  C   UNL     1      -1.756  12.008  22.005  0.00  0.00    +0.000 A 
ATOM     11  C   UNL     1      -2.345  11.902  23.270  0.00  0.00    +0.000 A 
ATOM     12  C   UNL     1      -3.663  12.282  23.398  0.00  0.00    +0.000 A 
ATOM     13  C   UNL     1      -4.382  12.794  22.332  0.00  0.00    +0.000 A 
ATOM     14  C   UNL     1      -3.798  12.960  21.092  0.00  0.00    +0.000 A 
ATOM     15  C   UNL     1      -5.786  13.007  22.738  0.00  0.00    +0.000 C 
ATOM     16  C   UNL     1      -5.597  12.949  24.252  0.00  0.00    +0.000 C 
ATOM     17  O   UNL     1      -4.398  12.192  24.552  0.00  0.00    +0.000 OA
ENDBRANCH   6   9
BRANCH   1  20
ATOM     18  C   UNL     1       1.601   9.001  19.431  0.00  0.00    +0.000 A 
ATOM     19  C   UNL     1       1.817   9.977  18.429  0.00  0.00    +0.000 A 
ATOM     20  C   UNL     1       1.474  11.164  19.017  0.00  0.00    +0.000 A 
ATOM     21  O   UNL     1       1.041  10.913  20.286  0.00  0.00    +0.000 OA
ATOM     22  N   UNL     1       1.107   9.552  20.547  0.00  0.00    +0.000 NA
BRANCH  18  24
ATOM     23  O   UNL     1       1.924   6.854  20.288  0.00  0.00    +0.000 OA
ATOM     24  C   UNL     1       1.926   7.579  19.299  0.00  0.00    +0.000 C 
ATOM     25  N   UNL     1       2.296   7.165  18.028  0.00  0.00    +0.000 N 
ATOM     26  H   UNL     1       2.631   7.901  17.411  0.00  0.00    +0.000 HD
BRANCH  25  27
ATOM     27  C   UNL     1       2.739   5.843  17.795  0.00  0.00    +0.000 A 
ATOM     28  C   UNL     1       1.839   4.772  17.883  0.00  0.00    +0.000 A 
ATOM     29  C   UNL     1       2.278   3.459  17.710  0.00  0.00    +0.000 A 
ATOM     30  C   UNL     1       3.623   3.204  17.459  0.00  0.00    +0.000 A 
ATOM     31  C   UNL     1       4.526   4.265  17.351  0.00  0.00    +0.000 A 
ATOM     32  C   UNL     1       4.082   5.582  17.495  0.00  0.00    +0.000 A 
ATOM     33 CL   UNL     1       5.241   6.860  17.408  0.00  0.00    +0.000 Cl
ENDBRANCH  25  27
ENDBRANCH  18  24
ENDBRANCH   1  20
TORSDOF 4
ENDMDL
MODEL 5
REMARK VINA RESULT:      -8.1      4.922      8.020
REMARK  Name = 
REMARK  4 active torsions:
REMARK  status: ('A' for Active; 'I' for Inactive)
REMARK    1  A    between atoms: C_2  and  C_11
REMARK    2  A    between atoms: N_3  and  C_4
REMARK    3  A    between atoms: C_13  and  C_14
REMARK    4  A    between atoms: C_19  and  C_21
REMARK                            x       y       z     vdW  Elec       q    Type
REMARK                         _______ _______ _______ _____ _____    ______ ____
ROOT
ATOM      1  C   UNL     1       1.693   3.428  20.552  0.00  0.00    +0.000 C 
ATOM      2  C   UNL     1       2.884   2.819  21.314  0.00  0.00    +0.000 C 
ATOM      3  C   UNL     1       4.183   2.820  20.499  0.00  0.00    +0.000 C 
ATOM      4  C   UNL     1       3.967   2.271  19.084  0.00  0.00    +0.000 C 
ATOM      5  N   UNL     1       2.840   2.943  18.430  0.00  0.00    +0.000 N 
ATOM      6  C   UNL     1       2.846   3.736  17.278  0.00  0.00    +0.000 C 
ATOM      7  O   UNL     1       1.803   4.097  16.731  0.00  0.00    +0.000 OA
ATOM      8  C   UNL     1       1.577   2.812  19.150  0.00  0.00    +0.000 C 
ENDROOT
BRANCH   6   9
ATOM      9  C   UNL     1       4.118   4.191  16.656  0.00  0.00    +0.000 A 
ATOM     10  C   UNL     1       4.947   5.066  17.394  0.00  0.00    +0.000 A 
ATOM     11  C   UNL     1       6.149   5.540  16.857  0.00  0.00    +0.000 A 
ATOM     12  C   UNL     1       6.489   5.130  15.585  0.00  0.00    +0.000 A 
ATOM     13  C   UNL     1       5.701   4.247  14.868  0.00  0.00    +0.000 A 
ATOM     14  C   UNL     1       4.542   3.726  15.407  0.00  0.00    +0.000 A 
ATOM     15  C   UNL     1       6.255   4.079  13.509  0.00  0.00    +0.000 C 
ATOM     16  C   UNL     1       7.651   4.644  13.761  0.00  0.00    +0.000 C 
ATOM     17  O   UNL     1       7.602   5.541  14.900  0.00  0.00    +0.000 OA
ENDBRANCH   6   9
BRANCH   1  20
ATOM     18  C   UNL     1       1.603   7.113  20.745  0.00  0.00    +0.000 A 
ATOM     19  C   UNL     1       1.044   5.889  21.185  0.00  0.00    +0.000 A 
ATOM     20  C   UNL     1       1.744   4.923  20.515  0.00  0.00    +0.000 A 
ATOM     21  O   UNL     1       2.647   5.530  19.692  0.00  0.00    +0.000 OA
ATOM     22  N   UNL     1       2.553   6.909  19.822  0.00  0.00    +0.000 NA
BRANCH  18  24
ATOM     23  O   UNL     1       1.907   8.948  22.155  0.00  0.00    +0.000 OA
ATOM     24  C   UNL     1       1.241   8.434  21.262  0.00  0.00    +0.000 C 
ATOM     25  N   UNL     1       0.084   8.987  20.733  0.00  0.00    +0.000 N 
ATOM     26  H   UNL     1      -0.565   8.324  20.317  0.00  0.00    +0.000 HD
BRANCH  25  27
ATOM     27  C   UNL     1      -0.431  10.206  21.231  0.00  0.00    +0.000 A 
ATOM     28  C   UNL     1      -0.794  10.319  22.581  0.00  0.00    +0.000 A 
ATOM     29  C   UNL     1      -1.355  11.500  23.069  0.00  0.00    +0.000 A 
ATOM     30  C   UNL     1      -1.570  12.574  22.209  0.00  0.00    +0.000 A 
ATOM     31  C   UNL     1      -1.196  12.479  20.866  0.00  0.00    +0.000 A 
ATOM     32  C   UNL     1      -0.607  11.307  20.383  0.00  0.00    +0.000 A 
ATOM     33 CL   UNL     1      -0.209  11.213  18.704  0.00  0.00    +0.000 Cl
ENDBRANCH  25  27
ENDBRANCH  18  24
ENDBRANCH   1  20
TORSDOF 4
ENDMDL
MODEL 6
REMARK VINA RESULT:      -8.1      0.958      1.281
REMARK  Name = 
REMARK  4 active torsions:
REMARK  status: ('A' for Active; 'I' for Inactive)
REMARK    1  A    between atoms: C_2  and  C_11
REMARK    2  A    between atoms: N_3  and  C_4
REMARK    3  A    between atoms: C_13  and  C_14
REMARK    4  A    between atoms: C_19  and  C_21
REMARK                            x       y       z     vdW  Elec       q    Type
REMARK                         _______ _______ _______ _____ _____    ______ ____
ROOT
ATOM      1  C   UNL     1       6.964   4.959  16.907  0.00  0.00    +0.000 C 
ATOM      2  C   UNL     1       6.509   5.305  15.478  0.00  0.00    +0.000 C 
ATOM      3  C   UNL     1       5.188   6.084  15.438  0.00  0.00    +0.000 C 
ATOM      4  C   UNL     1       4.117   5.431  16.321  0.00  0.00    +0.000 C 
ATOM      5  N   UNL     1       4.635   5.180  17.670  0.00  0.00    +0.000 N 
ATOM      6  C   UNL     1       4.197   5.715  18.886  0.00  0.00    +0.000 C 
ATOM      7  O   UNL     1       4.602   5.287  19.968  0.00  0.00    +0.000 OA
ATOM      8  C   UNL     1       5.814   4.320  17.699  0.00  0.00    +0.000 C 
ENDROOT
BRANCH   6   9
ATOM      9  C   UNL     1       3.220   6.835  18.934  0.00  0.00    +0.000 A 
ATOM     10  C   UNL     1       3.132   7.692  17.813  0.00  0.00    +0.000 A 
ATOM     11  C   UNL     1       2.242   8.772  17.804  0.00  0.00    +0.000 A 
ATOM     12  C   UNL     1       1.466   8.973  18.925  0.00  0.00    +0.000 A 
ATOM     13  C   UNL     1       1.521   8.120  20.014  0.00  0.00    +0.000 A 
ATOM     14  C   UNL     1       2.351   7.018  20.014  0.00  0.00    +0.000 A 
ATOM     15  C   UNL     1       0.668   8.646  21.099  0.00  0.00    +0.000 C 
ATOM     16  C   UNL     1      -0.160   9.633  20.279  0.00  0.00    +0.000 C 
ATOM     17  O   UNL     1       0.587  10.010  19.095  0.00  0.00    +0.000 OA
ENDBRANCH   6   9
BRANCH   1  20
ATOM     18  C   UNL     1       8.272   8.065  18.413  0.00  0.00    +0.000 A 
ATOM     19  C   UNL     1       7.625   7.465  17.305  0.00  0.00    +0.000 A 
ATOM     20  C   UNL     1       7.560   6.134  17.616  0.00  0.00    +0.000 A 
ATOM     21  O   UNL     1       8.166   5.938  18.822  0.00  0.00    +0.000 OA
ATOM     22  N   UNL     1       8.628   7.147  19.322  0.00  0.00    +0.000 NA
BRANCH  18  24
ATOM     23  O   UNL     1       8.009  10.293  17.773  0.00  0.00    +0.000 OA
ATOM     24  C   UNL     1       8.481   9.504  18.583  0.00  0.00    +0.000 C 
ATOM     25  N   UNL     1       9.291   9.869  19.649  0.00  0.00    +0.000 N 
ATOM     26  H   UNL     1       9.918   9.143  19.988  0.00  0.00    +0.000 HD
BRANCH  25  27
ATOM     27  C   UNL     1       9.659  11.218  19.852  0.00  0.00    +0.000 A 
ATOM     28  C   UNL     1       9.100  11.950  20.910  0.00  0.00    +0.000 A 
ATOM     29  C   UNL     1       9.414  13.298  21.086  0.00  0.00    +0.000 A 
ATOM     30  C   UNL     1      10.281  13.930  20.198  0.00  0.00    +0.000 A 
ATOM     31  C   UNL     1      10.858  13.207  19.151  0.00  0.00    +0.000 A 
ATOM     32  C   UNL     1      10.566  11.849  18.992  0.00  0.00    +0.000 A 
ATOM     33 CL   UNL     1      11.259  11.006  17.652  0.00  0.00    +0.000 Cl
ENDBRANCH  25  27
ENDBRANCH  18  24
ENDBRANCH   1  20
TORSDOF 4
ENDMDL
MODEL 7
REMARK VINA RESULT:      -8.1      5.003      7.803
REMARK  Name = 
REMARK  4 active torsions:
REMARK  status: ('A' for Active; 'I' for Inactive)
REMARK    1  A    between atoms: C_2  and  C_11
REMARK    2  A    between atoms: N_3  and  C_4
REMARK    3  A    between atoms: C_13  and  C_14
REMARK    4  A    between atoms: C_19  and  C_21
REMARK                            x       y       z     vdW  Elec       q    Type
REMARK                         _______ _______ _______ _____ _____    ______ ____
ROOT
ATOM      1  C   UNL     1       1.447   3.462  20.656  0.00  0.00    +0.000 C 
ATOM      2  C   UNL     1       2.615   2.862  21.459  0.00  0.00    +0.000 C 
ATOM      3  C   UNL     1       3.935   2.842  20.678  0.00  0.00    +0.000 C 
ATOM      4  C   UNL     1       3.752   2.268  19.267  0.00  0.00    +0.000 C 
ATOM      5  N   UNL     1       2.644   2.932  18.573  0.00  0.00    +0.000 N 
ATOM      6  C   UNL     1       2.683   3.704  17.407  0.00  0.00    +0.000 C 
ATOM      7  O   UNL     1       1.655   4.059  16.828  0.00  0.00    +0.000 OA
ATOM      8  C   UNL     1       1.363   2.820  19.264  0.00  0.00    +0.000 C 
ENDROOT
BRANCH   6   9
ATOM      9  C   UNL     1       3.972   4.141  16.809  0.00  0.00    +0.000 A 
ATOM     10  C   UNL     1       4.819   4.970  17.579  0.00  0.00    +0.000 A 
ATOM     11  C   UNL     1       6.039   5.425  17.066  0.00  0.00    +0.000 A 
ATOM     12  C   UNL     1       6.378   5.044  15.786  0.00  0.00    +0.000 A 
ATOM     13  C   UNL     1       5.571   4.206  15.036  0.00  0.00    +0.000 A 
ATOM     14  C   UNL     1       4.393   3.702  15.549  0.00  0.00    +0.000 A 
ATOM     15  C   UNL     1       6.132   4.065  13.676  0.00  0.00    +0.000 C 
ATOM     16  C   UNL     1       7.541   4.582  13.956  0.00  0.00    +0.000 C 
ATOM     17  O   UNL     1       7.507   5.444  15.121  0.00  0.00    +0.000 OA
ENDBRANCH   6   9
BRANCH   1  20
ATOM     18  C   UNL     1       1.263   7.148  20.634  0.00  0.00    +0.000 A 
ATOM     19  C   UNL     1       0.561   5.927  20.776  0.00  0.00    +0.000 A 
ATOM     20  C   UNL     1       1.507   4.956  20.593  0.00  0.00    +0.000 A 
ATOM     21  O   UNL     1       2.701   5.555  20.319  0.00  0.00    +0.000 OA
ATOM     22  N   UNL     1       2.551   6.935  20.331  0.00  0.00    +0.000 NA
BRANCH  18  24
ATOM     23  O   UNL     1      -0.144   8.653  21.730  0.00  0.00    +0.000 OA
ATOM     24  C   UNL     1       0.686   8.477  20.845  0.00  0.00    +0.000 C 
ATOM     25  N   UNL     1       1.084   9.452  19.941  0.00  0.00    +0.000 N 
ATOM     26  H   UNL     1       1.444   9.105  19.056  0.00  0.00    +0.000 HD
BRANCH  25  27
ATOM     27  C   UNL     1       0.512  10.745  19.970  0.00  0.00    +0.000 A 
ATOM     28  C   UNL     1       0.927  11.678  20.932  0.00  0.00    +0.000 A 
ATOM     29  C   UNL     1       0.330  12.937  21.004  0.00  0.00    +0.000 A 
ATOM     30  C   UNL     1      -0.695  13.270  20.123  0.00  0.00    +0.000 A 
ATOM     31  C   UNL     1      -1.104  12.356  19.149  0.00  0.00    +0.000 A 
ATOM     32  C   UNL     1      -0.486  11.105  19.057  0.00  0.00    +0.000 A 
ATOM     33 CL   UNL     1      -1.059   9.985  17.873  0.00  0.00    +0.000 Cl
ENDBRANCH  25  27
ENDBRANCH  18  24
ENDBRANCH   1  20
TORSDOF 4
ENDMDL
MODEL 8
REMARK VINA RESULT:      -8.0      4.599      8.725
REMARK  Name = 
REMARK  4 active torsions:
REMARK  status: ('A' for Active; 'I' for Inactive)
REMARK    1  A    between atoms: C_2  and  C_11
REMARK    2  A    between atoms: N_3  and  C_4
REMARK    3  A    between atoms: C_13  and  C_14
REMARK    4  A    between atoms: C_19  and  C_21
REMARK                            x       y       z     vdW  Elec       q    Type
REMARK                         _______ _______ _______ _____ _____    ______ ____
ROOT
ATOM      1  C   UNL     1      -1.410  11.285  19.604  0.00  0.00    +0.000 C 
ATOM      2  C   UNL     1      -1.833  11.835  18.230  0.00  0.00    +0.000 C 
ATOM      3  C   UNL     1      -0.867  12.892  17.681  0.00  0.00    +0.000 C 
ATOM      4  C   UNL     1      -0.533  13.957  18.733  0.00  0.00    +0.000 C 
ATOM      5  N   UNL     1      -0.102  13.334  19.988  0.00  0.00    +0.000 N 
ATOM      6  C   UNL     1       1.137  13.431  20.631  0.00  0.00    +0.000 C 
ATOM      7  O   UNL     1       1.313  13.001  21.772  0.00  0.00    +0.000 OA
ATOM      8  C   UNL     1      -1.094  12.435  20.571  0.00  0.00    +0.000 C 
ENDROOT
BRANCH   6   9
ATOM      9  C   UNL     1       2.309  14.056  19.963  0.00  0.00    +0.000 A 
ATOM     10  C   UNL     1       2.788  13.473  18.768  0.00  0.00    +0.000 A 
ATOM     11  C   UNL     1       3.896  14.007  18.102  0.00  0.00    +0.000 A 
ATOM     12  C   UNL     1       4.506  15.112  18.655  0.00  0.00    +0.000 A 
ATOM     13  C   UNL     1       4.025  15.710  19.807  0.00  0.00    +0.000 A 
ATOM     14  C   UNL     1       2.899  15.230  20.444  0.00  0.00    +0.000 A 
ATOM     15  C   UNL     1       4.940  16.795  20.220  0.00  0.00    +0.000 C 
ATOM     16  C   UNL     1       5.706  16.958  18.910  0.00  0.00    +0.000 C 
ATOM     17  O   UNL     1       5.627  15.721  18.157  0.00  0.00    +0.000 OA
ENDBRANCH   6   9
BRANCH   1  20
ATOM     18  C   UNL     1       1.352   8.912  19.000  0.00  0.00    +0.000 A 
ATOM     19  C   UNL     1       0.316   9.694  18.435  0.00  0.00    +0.000 A 
ATOM     20  C   UNL     1      -0.288  10.301  19.503  0.00  0.00    +0.000 A 
ATOM     21  O   UNL     1       0.324   9.879  20.647  0.00  0.00    +0.000 OA
ATOM     22  N   UNL     1       1.348   8.995  20.338  0.00  0.00    +0.000 NA
BRANCH  18  24
ATOM     23  O   UNL     1       2.701   8.548  17.132  0.00  0.00    +0.000 OA
ATOM     24  C   UNL     1       2.341   8.152  18.234  0.00  0.00    +0.000 C 
ATOM     25  N   UNL     1       2.753   6.957  18.809  0.00  0.00    +0.000 N 
ATOM     26  H   UNL     1       2.116   6.562  19.495  0.00  0.00    +0.000 HD
BRANCH  25  27
ATOM     27  C   UNL     1       3.620   6.080  18.117  0.00  0.00    +0.000 A 
ATOM     28  C   UNL     1       4.958   6.439  17.897  0.00  0.00    +0.000 A 
ATOM     29  C   UNL     1       5.806   5.605  17.167  0.00  0.00    +0.000 A 
ATOM     30  C   UNL     1       5.321   4.411  16.640  0.00  0.00    +0.000 A 
ATOM     31  C   UNL     1       3.995   4.035  16.868  0.00  0.00    +0.000 A 
ATOM     32  C   UNL     1       3.153   4.856  17.624  0.00  0.00    +0.000 A 
ATOM     33 CL   UNL     1       1.505   4.379  17.835  0.00  0.00    +0.000 Cl
ENDBRANCH  25  27
ENDBRANCH  18  24
ENDBRANCH   1  20
TORSDOF 4
ENDMDL
MODEL 9
REMARK VINA RESULT:      -8.0      1.130      1.747
REMARK  Name = 
REMARK  4 active torsions:
REMARK  status: ('A' for Active; 'I' for Inactive)
REMARK    1  A    between atoms: C_2  and  C_11
REMARK    2  A    between atoms: N_3  and  C_4
REMARK    3  A    between atoms: C_13  and  C_14
REMARK    4  A    between atoms: C_19  and  C_21
REMARK                            x       y       z     vdW  Elec       q    Type
REMARK                         _______ _______ _______ _____ _____    ______ ____
ROOT
ATOM      1  C   UNL     1       7.052   5.096  16.713  0.00  0.00    +0.000 C 
ATOM      2  C   UNL     1       6.454   5.535  15.364  0.00  0.00    +0.000 C 
ATOM      3  C   UNL     1       5.079   6.199  15.502  0.00  0.00    +0.000 C 
ATOM      4  C   UNL     1       4.139   5.379  16.394  0.00  0.00    +0.000 C 
ATOM      5  N   UNL     1       4.785   5.049  17.668  0.00  0.00    +0.000 N 
ATOM      6  C   UNL     1       4.410   5.429  18.961  0.00  0.00    +0.000 C 
ATOM      7  O   UNL     1       4.936   4.938  19.962  0.00  0.00    +0.000 OA
ATOM      8  C   UNL     1       6.024   4.292  17.522  0.00  0.00    +0.000 C 
ENDROOT
BRANCH   6   9
ATOM      9  C   UNL     1       3.358   6.454  19.194  0.00  0.00    +0.000 A 
ATOM     10  C   UNL     1       2.553   6.336  20.350  0.00  0.00    +0.000 A 
ATOM     11  C   UNL     1       1.538   7.261  20.615  0.00  0.00    +0.000 A 
ATOM     12  C   UNL     1       1.347   8.282  19.709  0.00  0.00    +0.000 A 
ATOM     13  C   UNL     1       2.151   8.425  18.592  0.00  0.00    +0.000 A 
ATOM     14  C   UNL     1       3.194   7.554  18.346  0.00  0.00    +0.000 A 
ATOM     15  C   UNL     1       1.643   9.532  17.755  0.00  0.00    +0.000 C 
ATOM     16  C   UNL     1       0.748  10.208  18.791  0.00  0.00    +0.000 C 
ATOM     17  O   UNL     1       0.367   9.235  19.796  0.00  0.00    +0.000 OA
ENDBRANCH   6   9
BRANCH   1  20
ATOM     18  C   UNL     1       8.298   8.148  18.374  0.00  0.00    +0.000 A 
ATOM     19  C   UNL     1       7.727   7.581  17.209  0.00  0.00    +0.000 A 
ATOM     20  C   UNL     1       7.613   6.246  17.488  0.00  0.00    +0.000 A 
ATOM     21  O   UNL     1       8.121   6.016  18.733  0.00  0.00    +0.000 OA
ATOM     22  N   UNL     1       8.565   7.207  19.290  0.00  0.00    +0.000 NA
BRANCH  18  24
ATOM     23  O   UNL     1       8.051  10.397  17.805  0.00  0.00    +0.000 OA
ATOM     24  C   UNL     1       8.520   9.579  18.588  0.00  0.00    +0.000 C 
ATOM     25  N   UNL     1       9.339   9.904  19.660  0.00  0.00    +0.000 N 
ATOM     26  H   UNL     1       9.960   9.163  19.974  0.00  0.00    +0.000 HD
BRANCH  25  27
ATOM     27  C   UNL     1       9.719  11.244  19.904  0.00  0.00    +0.000 A 
ATOM     28  C   UNL     1       9.119  11.969  20.943  0.00  0.00    +0.000 A 
ATOM     29  C   UNL     1       9.447  13.309  21.155  0.00  0.00    +0.000 A 
ATOM     30  C   UNL     1      10.369  13.938  20.324  0.00  0.00    +0.000 A 
ATOM     31  C   UNL     1      10.987  13.220  19.297  0.00  0.00    +0.000 A 
ATOM     32  C   UNL     1      10.681  11.870  19.102  0.00  0.00    +0.000 A 
ATOM     33 CL   UNL     1      11.427  11.034  17.786  0.00  0.00    +0.000 Cl
ENDBRANCH  25  27
ENDBRANCH  18  24
ENDBRANCH   1  20
TORSDOF 4
ENDMDL
