MODEL 1
REMARK VINA RESULT:      -6.6      0.000      0.000
REMARK  Name = 
REMARK  8 active torsions:
REMARK  status: ('A' for Active; 'I' for Inactive)
REMARK    1  A    between atoms: C_1  and  O_2
REMARK    2  A    between atoms: O_2  and  C_3
REMARK    3  A    between atoms: C_6  and  N_7
REMARK    4  A    between atoms: C_8  and  C_10
REMARK    5  A    between atoms: C_10  and  C_11
REMARK    6  A    between atoms: C_13  and  C_14
REMARK    7  A    between atoms: C_19  and  O_20
REMARK    8  A    between atoms: O_20  and  C_21
REMARK                            x       y       z     vdW  Elec       q    Type
REMARK                         _______ _______ _______ _____ _____    ______ ____
ROOT
ATOM      1  N   UNL     1       2.002   7.820  19.413  0.00  0.00    +0.000 N 
ATOM      2  C   UNL     1       2.176   6.459  19.560  0.00  0.00    +0.000 C 
ATOM      3  O   UNL     1       1.807   5.814  20.539  0.00  0.00    +0.000 OA
ATOM      4  H   UNL     1       2.597   8.331  18.768  0.00  0.00    +0.000 HD
ENDROOT
BRANCH   1   8
ATOM      5  C   UNL     1       0.032  10.328  22.194  0.00  0.00    +0.000 A 
ATOM      6  C   UNL     1       0.844   9.288  22.650  0.00  0.00    +0.000 A 
ATOM      7  C   UNL     1       1.517   8.457  21.750  0.00  0.00    +0.000 A 
ATOM      8  C   UNL     1       1.365   8.648  20.375  0.00  0.00    +0.000 A 
ATOM      9  C   UNL     1       0.533   9.684  19.907  0.00  0.00    +0.000 A 
ATOM     10  C   UNL     1      -0.117  10.529  20.820  0.00  0.00    +0.000 A 
BRANCH   5  12
ATOM     11  C   UNL     1      -1.301  12.215  22.794  0.00  0.00    +0.000 C 
ATOM     12  O   UNL     1      -0.545  11.076  23.187  0.00  0.00    +0.000 OA
ENDBRANCH   5  12
BRANCH   9  13
ATOM     13  O   UNL     1       0.487   9.817  18.538  0.00  0.00    +0.000 OA
ATOM     14  C   UNL     1      -0.773  10.137  17.962  0.00  0.00    +0.000 C 
ENDBRANCH   9  13
ENDBRANCH   1   8
BRANCH   2  15
ATOM     15  C   UNL     1       2.980   5.785  18.495  0.00  0.00    +0.000 C 
ATOM     16  C   UNL     1       4.175   6.325  18.158  0.00  0.00    +0.000 C 
BRANCH  16  17
ATOM     17  C   UNL     1       5.004   5.817  17.116  0.00  0.00    +0.000 A 
ATOM     18  C   UNL     1       5.175   6.073  15.766  0.00  0.00    +0.000 A 
ATOM     19  C   UNL     1       6.146   5.181  15.253  0.00  0.00    +0.000 A 
ATOM     20  C   UNL     1       6.594   4.427  16.308  0.00  0.00    +0.000 A 
ATOM     21  N   UNL     1       5.922   4.831  17.431  0.00  0.00    +0.000 N 
ATOM     22  H   UNL     1       6.048   4.431  18.352  0.00  0.00    +0.000 HD
ENDBRANCH  16  17
BRANCH  15  23
ATOM     23  C   UNL     1       2.512   4.543  17.755  0.00  0.00    +0.000 C 
ATOM     24  N   UNL     1       2.122   3.512  17.141  0.00  0.00    +0.000 NA
ENDBRANCH  15  23
ENDBRANCH   2  15
TORSDOF 6
ENDMDL
MODEL 2
REMARK VINA RESULT:      -6.5      2.331      7.953
REMARK  Name = 
REMARK  8 active torsions:
REMARK  status: ('A' for Active; 'I' for Inactive)
REMARK    1  A    between atoms: C_1  and  O_2
REMARK    2  A    between atoms: O_2  and  C_3
REMARK    3  A    between atoms: C_6  and  N_7
REMARK    4  A    between atoms: C_8  and  C_10
REMARK    5  A    between atoms: C_10  and  C_11
REMARK    6  A    between atoms: C_13  and  C_14
REMARK    7  A    between atoms: C_19  and  O_20
REMARK    8  A    between atoms: O_20  and  C_21
REMARK                            x       y       z     vdW  Elec       q    Type
REMARK                         _______ _______ _______ _____ _____    ______ ____
ROOT
ATOM      1  N   UNL     1       2.413   7.189  18.680  0.00  0.00    +0.000 N 
ATOM      2  C   UNL     1       1.971   8.410  18.213  0.00  0.00    +0.000 C 
ATOM      3  O   UNL     1       2.325   8.916  17.150  0.00  0.00    +0.000 OA
ATOM      4  H   UNL     1       2.353   6.984  19.672  0.00  0.00    +0.000 HD
ENDROOT
BRANCH   1   8
ATOM      5  C   UNL     1       5.059   4.631  16.591  0.00  0.00    +0.000 A 
ATOM      6  C   UNL     1       5.403   5.968  16.795  0.00  0.00    +0.000 A 
ATOM      7  C   UNL     1       4.552   6.827  17.496  0.00  0.00    +0.000 A 
ATOM      8  C   UNL     1       3.330   6.357  17.984  0.00  0.00    +0.000 A 
ATOM      9  C   UNL     1       2.968   5.014  17.765  0.00  0.00    +0.000 A 
ATOM     10  C   UNL     1       3.842   4.153  17.082  0.00  0.00    +0.000 A 
BRANCH   5  12
ATOM     11  C   UNL     1       6.105   4.115  14.508  0.00  0.00    +0.000 C 
ATOM     12  O   UNL     1       5.998   3.900  15.910  0.00  0.00    +0.000 OA
ENDBRANCH   5  12
BRANCH   9  13
ATOM     13  O   UNL     1       1.768   4.639  18.324  0.00  0.00    +0.000 OA
ATOM     14  C   UNL     1       1.591   3.257  18.608  0.00  0.00    +0.000 C 
ENDBRANCH   9  13
ENDBRANCH   1   8
BRANCH   2  15
ATOM     15  C   UNL     1       1.105   9.191  19.148  0.00  0.00    +0.000 C 
ATOM     16  C   UNL     1       1.243   8.975  20.478  0.00  0.00    +0.000 C 
BRANCH  16  17
ATOM     17  C   UNL     1       0.433   9.606  21.467  0.00  0.00    +0.000 A 
ATOM     18  C   UNL     1      -0.332   9.187  22.542  0.00  0.00    +0.000 A 
ATOM     19  C   UNL     1      -0.952  10.316  23.127  0.00  0.00    +0.000 A 
ATOM     20  C   UNL     1      -0.515  11.417  22.434  0.00  0.00    +0.000 A 
ATOM     21  N   UNL     1       0.338  10.986  21.452  0.00  0.00    +0.000 N 
ATOM     22  H   UNL     1       0.796  11.591  20.782  0.00  0.00    +0.000 HD
ENDBRANCH  16  17
BRANCH  15  23
ATOM     23  C   UNL     1       0.063  10.193  18.680  0.00  0.00    +0.000 C 
ATOM     24  N   UNL     1      -0.803  11.024  18.293  0.00  0.00    +0.000 NA
ENDBRANCH  15  23
ENDBRANCH   2  15
TORSDOF 6
ENDMDL
MODEL 3
REMARK VINA RESULT:      -6.5      2.502      8.008
REMARK  Name = 
REMARK  8 active torsions:
REMARK  status: ('A' for Active; 'I' for Inactive)
REMARK    1  A    between atoms: C_1  and  O_2
REMARK    2  A    between atoms: O_2  and  C_3
REMARK    3  A    between atoms: C_6  and  N_7
REMARK    4  A    between atoms: C_8  and  C_10
REMARK    5  A    between atoms: C_10  and  C_11
REMARK    6  A    between atoms: C_13  and  C_14
REMARK    7  A    between atoms: C_19  and  O_20
REMARK    8  A    between atoms: O_20  and  C_21
REMARK                            x       y       z     vdW  Elec       q    Type
REMARK                         _______ _______ _______ _____ _____    ______ ____
ROOT
ATOM      1  N   UNL     1       3.146   6.754  18.428  0.00  0.00    +0.000 N 
ATOM      2  C   UNL     1       2.523   7.931  18.064  0.00  0.00    +0.000 C 
ATOM      3  O   UNL     1       2.652   8.473  16.968  0.00  0.00    +0.000 OA
ATOM      4  H   UNL     1       3.265   6.539  19.412  0.00  0.00    +0.000 HD
ENDROOT
BRANCH   1   8
ATOM      5  C   UNL     1       5.638   4.473  15.880  0.00  0.00    +0.000 A 
ATOM      6  C   UNL     1       5.949   5.809  16.143  0.00  0.00    +0.000 A 
ATOM      7  C   UNL     1       5.149   6.576  16.994  0.00  0.00    +0.000 A 
ATOM      8  C   UNL     1       4.010   6.016  17.577  0.00  0.00    +0.000 A 
ATOM      9  C   UNL     1       3.679   4.675  17.301  0.00  0.00    +0.000 A 
ATOM     10  C   UNL     1       4.504   3.906  16.466  0.00  0.00    +0.000 A 
BRANCH   5  12
ATOM     11  C   UNL     1       6.901   4.511  13.855  0.00  0.00    +0.000 C 
ATOM     12  O   UNL     1       6.522   3.836  15.048  0.00  0.00    +0.000 OA
ENDBRANCH   5  12
BRANCH   9  13
ATOM     13  O   UNL     1       2.565   4.206  17.959  0.00  0.00    +0.000 OA
ATOM     14  C   UNL     1       2.335   2.804  17.922  0.00  0.00    +0.000 C 
ENDBRANCH   9  13
ENDBRANCH   1   8
BRANCH   2  15
ATOM     15  C   UNL     1       1.752   8.621  19.142  0.00  0.00    +0.000 C 
ATOM     16  C   UNL     1       1.605   7.988  20.329  0.00  0.00    +0.000 C 
BRANCH  16  17
ATOM     17  C   UNL     1       0.838   8.509  21.412  0.00  0.00    +0.000 A 
ATOM     18  C   UNL     1      -0.507   8.624  21.715  0.00  0.00    +0.000 A 
ATOM     19  C   UNL     1      -0.641   9.296  22.952  0.00  0.00    +0.000 A 
ATOM     20  C   UNL     1       0.629   9.536  23.416  0.00  0.00    +0.000 A 
ATOM     21  N   UNL     1       1.515   9.039  22.497  0.00  0.00    +0.000 N 
ATOM     22  H   UNL     1       2.522   9.093  22.581  0.00  0.00    +0.000 HD
ENDBRANCH  16  17
BRANCH  15  23
ATOM     23  C   UNL     1       1.105   9.985  18.963  0.00  0.00    +0.000 C 
ATOM     24  N   UNL     1       0.568  11.116  18.815  0.00  0.00    +0.000 NA
ENDBRANCH  15  23
ENDBRANCH   2  15
TORSDOF 6
ENDMDL
MODEL 4
REMARK VINA RESULT:      -6.3      2.436      7.971
REMARK  Name = 
REMARK  8 active torsions:
REMARK  status: ('A' for Active; 'I' for Inactive)
REMARK    1  A    between atoms: C_1  and  O_2
REMARK    2  A    between atoms: O_2  and  C_3
REMARK    3  A    between atoms: C_6  and  N_7
REMARK    4  A    between atoms: C_8  and  C_10
REMARK    5  A    between atoms: C_10  and  C_11
REMARK    6  A    between atoms: C_13  and  C_14
REMARK    7  A    between atoms: C_19  and  O_20
REMARK    8  A    between atoms: O_20  and  C_21
REMARK                            x       y       z     vdW  Elec       q    Type
REMARK                         _______ _______ _______ _____ _____    ______ ____
ROOT
ATOM      1  N   UNL     1       2.577   7.106  18.736  0.00  0.00    +0.000 N 
ATOM      2  C   UNL     1       2.129   8.325  18.266  0.00  0.00    +0.000 C 
ATOM      3  O   UNL     1       2.399   8.782  17.158  0.00  0.00    +0.000 OA
ATOM      4  H   UNL     1       2.601   6.937  19.736  0.00  0.00    +0.000 HD
ENDROOT
BRANCH   1   8
ATOM      5  C   UNL     1       4.948   4.395  16.514  0.00  0.00    +0.000 A 
ATOM      6  C   UNL     1       5.336   5.732  16.620  0.00  0.00    +0.000 A 
ATOM      7  C   UNL     1       4.577   6.641  17.362  0.00  0.00    +0.000 A 
ATOM      8  C   UNL     1       3.403   6.223  17.991  0.00  0.00    +0.000 A 
ATOM      9  C   UNL     1       2.994   4.880  17.873  0.00  0.00    +0.000 A 
ATOM     10  C   UNL     1       3.778   3.969  17.147  0.00  0.00    +0.000 A 
BRANCH   5  12
ATOM     11  C   UNL     1       6.255   4.132  14.534  0.00  0.00    +0.000 C 
ATOM     12  O   UNL     1       5.798   3.612  15.777  0.00  0.00    +0.000 OA
ENDBRANCH   5  12
BRANCH   9  13
ATOM     13  O   UNL     1       1.850   4.559  18.566  0.00  0.00    +0.000 OA
ATOM     14  C   UNL     1       1.327   3.249  18.380  0.00  0.00    +0.000 C 
ENDBRANCH   9  13
ENDBRANCH   1   8
BRANCH   2  15
ATOM     15  C   UNL     1       1.375   9.163  19.247  0.00  0.00    +0.000 C 
ATOM     16  C   UNL     1       0.816  10.315  18.806  0.00  0.00    +0.000 C 
BRANCH  16  17
ATOM     17  C   UNL     1       0.130  11.233  19.654  0.00  0.00    +0.000 A 
ATOM     18  C   UNL     1      -1.185  11.451  20.028  0.00  0.00    +0.000 A 
ATOM     19  C   UNL     1      -1.235  12.576  20.884  0.00  0.00    +0.000 A 
ATOM     20  C   UNL     1       0.058  13.001  21.063  0.00  0.00    +0.000 A 
ATOM     21  N   UNL     1       0.877  12.174  20.340  0.00  0.00    +0.000 N 
ATOM     22  H   UNL     1       1.883  12.268  20.283  0.00  0.00    +0.000 HD
ENDBRANCH  16  17
BRANCH  15  23
ATOM     23  C   UNL     1       1.227   8.801  20.715  0.00  0.00    +0.000 C 
ATOM     24  N   UNL     1       1.104   8.500  21.934  0.00  0.00    +0.000 NA
ENDBRANCH  15  23
ENDBRANCH   2  15
TORSDOF 6
ENDMDL
MODEL 5
REMARK VINA RESULT:      -6.3      2.256      4.059
REMARK  Name = 
REMARK  8 active torsions:
REMARK  status: ('A' for Active; 'I' for Inactive)
REMARK    1  A    between atoms: C_1  and  O_2
REMARK    2  A    between atoms: O_2  and  C_3
REMARK    3  A    between atoms: C_6  and  N_7
REMARK    4  A    between atoms: C_8  and  C_10
REMARK    5  A    between atoms: C_10  and  C_11
REMARK    6  A    between atoms: C_13  and  C_14
REMARK    7  A    between atoms: C_19  and  O_20
REMARK    8  A    between atoms: O_20  and  C_21
REMARK                            x       y       z     vdW  Elec       q    Type
REMARK                         _______ _______ _______ _____ _____    ______ ____
ROOT
ATOM      1  N   UNL     1       3.739   6.426  17.494  0.00  0.00    +0.000 N 
ATOM      2  C   UNL     1       5.090   6.665  17.338  0.00  0.00    +0.000 C 
ATOM      3  O   UNL     1       5.696   7.592  17.872  0.00  0.00    +0.000 OA
ATOM      4  H   UNL     1       3.248   5.876  16.798  0.00  0.00    +0.000 HD
ENDROOT
BRANCH   1   8
ATOM      5  C   UNL     1       1.211   8.727  19.989  0.00  0.00    +0.000 A 
ATOM      6  C   UNL     1       1.548   9.197  18.718  0.00  0.00    +0.000 A 
ATOM      7  C   UNL     1       2.369   8.447  17.871  0.00  0.00    +0.000 A 
ATOM      8  C   UNL     1       2.880   7.220  18.300  0.00  0.00    +0.000 A 
ATOM      9  C   UNL     1       2.560   6.748  19.588  0.00  0.00    +0.000 A 
ATOM     10  C   UNL     1       1.713   7.497  20.420  0.00  0.00    +0.000 A 
BRANCH   5  12
ATOM     11  C   UNL     1      -0.203   9.033  21.887  0.00  0.00    +0.000 C 
ATOM     12  O   UNL     1       0.380   9.554  20.699  0.00  0.00    +0.000 OA
ENDBRANCH   5  12
BRANCH   9  13
ATOM     13  O   UNL     1       3.076   5.510  19.896  0.00  0.00    +0.000 OA
ATOM     14  C   UNL     1       2.332   4.707  20.804  0.00  0.00    +0.000 C 
ENDBRANCH   9  13
ENDBRANCH   1   8
BRANCH   2  15
ATOM     15  C   UNL     1       5.796   5.793  16.351  0.00  0.00    +0.000 C 
ATOM     16  C   UNL     1       5.326   5.751  15.083  0.00  0.00    +0.000 C 
BRANCH  16  17
ATOM     17  C   UNL     1       5.868   4.911  14.067  0.00  0.00    +0.000 A 
ATOM     18  C   UNL     1       5.478   3.752  13.420  0.00  0.00    +0.000 A 
ATOM     19  C   UNL     1       6.497   3.368  12.517  0.00  0.00    +0.000 A 
ATOM     20  C   UNL     1       7.475   4.328  12.587  0.00  0.00    +0.000 A 
ATOM     21  N   UNL     1       7.080   5.267  13.503  0.00  0.00    +0.000 N 
ATOM     22  H   UNL     1       7.623   6.082  13.761  0.00  0.00    +0.000 HD
ENDBRANCH  16  17
BRANCH  15  23
ATOM     23  C   UNL     1       6.998   4.934  16.707  0.00  0.00    +0.000 C 
ATOM     24  N   UNL     1       7.995   4.220  17.003  0.00  0.00    +0.000 NA
ENDBRANCH  15  23
ENDBRANCH   2  15
TORSDOF 6
ENDMDL
MODEL 6
REMARK VINA RESULT:      -6.3      2.708      8.186
REMARK  Name = 
REMARK  8 active torsions:
REMARK  status: ('A' for Active; 'I' for Inactive)
REMARK    1  A    between atoms: C_1  and  O_2
REMARK    2  A    between atoms: O_2  and  C_3
REMARK    3  A    between atoms: C_6  and  N_7
REMARK    4  A    between atoms: C_8  and  C_10
REMARK    5  A    between atoms: C_10  and  C_11
REMARK    6  A    between atoms: C_13  and  C_14
REMARK    7  A    between atoms: C_19  and  O_20
REMARK    8  A    between atoms: O_20  and  C_21
REMARK                            x       y       z     vdW  Elec       q    Type
REMARK                         _______ _______ _______ _____ _____    ______ ____
ROOT
ATOM      1  N   UNL     1       4.022   6.952  17.903  0.00  0.00    +0.000 N 
ATOM      2  C   UNL     1       2.738   6.641  18.300  0.00  0.00    +0.000 C 
ATOM      3  O   UNL     1       2.105   5.666  17.900  0.00  0.00    +0.000 OA
ATOM      4  H   UNL     1       4.356   7.905  18.001  0.00  0.00    +0.000 HD
ENDROOT
BRANCH   1   8
ATOM      5  C   UNL     1       6.281   4.557  15.243  0.00  0.00    +0.000 A 
ATOM      6  C   UNL     1       5.600   5.677  14.762  0.00  0.00    +0.000 A 
ATOM      7  C   UNL     1       4.861   6.492  15.625  0.00  0.00    +0.000 A 
ATOM      8  C   UNL     1       4.779   6.178  16.983  0.00  0.00    +0.000 A 
ATOM      9  C   UNL     1       5.447   5.039  17.473  0.00  0.00    +0.000 A 
ATOM     10  C   UNL     1       6.208   4.243  16.602  0.00  0.00    +0.000 A 
BRANCH   5  12
ATOM     11  C   UNL     1       6.353   3.659  13.033  0.00  0.00    +0.000 C 
ATOM     12  O   UNL     1       6.984   3.866  14.291  0.00  0.00    +0.000 OA
ENDBRANCH   5  12
BRANCH   9  13
ATOM     13  O   UNL     1       5.341   4.843  18.831  0.00  0.00    +0.000 OA
ATOM     14  C   UNL     1       4.735   3.632  19.264  0.00  0.00    +0.000 C 
ENDBRANCH   9  13
ENDBRANCH   1   8
BRANCH   2  15
ATOM     15  C   UNL     1       2.065   7.647  19.177  0.00  0.00    +0.000 C 
ATOM     16  C   UNL     1       1.673   7.257  20.413  0.00  0.00    +0.000 C 
BRANCH  16  17
ATOM     17  C   UNL     1       0.964   8.100  21.318  0.00  0.00    +0.000 A 
ATOM     18  C   UNL     1      -0.360   8.443  21.530  0.00  0.00    +0.000 A 
ATOM     19  C   UNL     1      -0.423   9.390  22.579  0.00  0.00    +0.000 A 
ATOM     20  C   UNL     1       0.860   9.575  23.029  0.00  0.00    +0.000 A 
ATOM     21  N   UNL     1       1.688   8.778  22.284  0.00  0.00    +0.000 N 
ATOM     22  H   UNL     1       2.692   8.728  22.396  0.00  0.00    +0.000 HD
ENDBRANCH  16  17
BRANCH  15  23
ATOM     23  C   UNL     1       1.778   9.074  18.742  0.00  0.00    +0.000 C 
ATOM     24  N   UNL     1       1.541  10.259  18.380  0.00  0.00    +0.000 NA
ENDBRANCH  15  23
ENDBRANCH   2  15
TORSDOF 6
ENDMDL
MODEL 7
REMARK VINA RESULT:      -6.2      0.818      1.037
REMARK  Name = 
REMARK  8 active torsions:
REMARK  status: ('A' for Active; 'I' for Inactive)
REMARK    1  A    between atoms: C_1  and  O_2
REMARK    2  A    between atoms: O_2  and  C_3
REMARK    3  A    between atoms: C_6  and  N_7
REMARK    4  A    between atoms: C_8  and  C_10
REMARK    5  A    between atoms: C_10  and  C_11
REMARK    6  A    between atoms: C_13  and  C_14
REMARK    7  A    between atoms: C_19  and  O_20
REMARK    8  A    between atoms: O_20  and  C_21
REMARK                            x       y       z     vdW  Elec       q    Type
REMARK                         _______ _______ _______ _____ _____    ______ ____
ROOT
ATOM      1  N   UNL     1       2.028   7.768  19.474  0.00  0.00    +0.000 N 
ATOM      2  C   UNL     1       2.111   6.403  19.657  0.00  0.00    +0.000 C 
ATOM      3  O   UNL     1       1.663   5.806  20.634  0.00  0.00    +0.000 OA
ATOM      4  H   UNL     1       2.679   8.226  18.844  0.00  0.00    +0.000 HD
ENDROOT
BRANCH   1   8
ATOM      5  C   UNL     1       0.123  10.472  22.113  0.00  0.00    +0.000 A 
ATOM      6  C   UNL     1       0.658   9.281  22.607  0.00  0.00    +0.000 A 
ATOM      7  C   UNL     1       1.306   8.380  21.755  0.00  0.00    +0.000 A 
ATOM      8  C   UNL     1       1.405   8.657  20.390  0.00  0.00    +0.000 A 
ATOM      9  C   UNL     1       0.851   9.848  19.882  0.00  0.00    +0.000 A 
ATOM     10  C   UNL     1       0.226  10.757  20.750  0.00  0.00    +0.000 A 
BRANCH   5  12
ATOM     11  C   UNL     1      -1.810  11.664  22.849  0.00  0.00    +0.000 C 
ATOM     12  O   UNL     1      -0.460  11.270  23.064  0.00  0.00    +0.000 OA
ENDBRANCH   5  12
BRANCH   9  13
ATOM     13  O   UNL     1       1.042  10.047  18.534  0.00  0.00    +0.000 OA
ATOM     14  C   UNL     1       1.939  11.083  18.155  0.00  0.00    +0.000 C 
ENDBRANCH   9  13
ENDBRANCH   1   8
BRANCH   2  15
ATOM     15  C   UNL     1       2.914   5.656  18.641  0.00  0.00    +0.000 C 
ATOM     16  C   UNL     1       4.166   6.093  18.369  0.00  0.00    +0.000 C 
BRANCH  16  17
ATOM     17  C   UNL     1       5.006   5.510  17.376  0.00  0.00    +0.000 A 
ATOM     18  C   UNL     1       5.906   4.459  17.325  0.00  0.00    +0.000 A 
ATOM     19  C   UNL     1       6.474   4.407  16.031  0.00  0.00    +0.000 A 
ATOM     20  C   UNL     1       5.874   5.396  15.291  0.00  0.00    +0.000 A 
ATOM     21  N   UNL     1       4.974   6.040  16.099  0.00  0.00    +0.000 N 
ATOM     22  H   UNL     1       4.401   6.823  15.811  0.00  0.00    +0.000 HD
ENDBRANCH  16  17
BRANCH  15  23
ATOM     23  C   UNL     1       2.386   4.450  17.883  0.00  0.00    +0.000 C 
ATOM     24  N   UNL     1       1.948   3.449  17.252  0.00  0.00    +0.000 NA
ENDBRANCH  15  23
ENDBRANCH   2  15
TORSDOF 6
ENDMDL
MODEL 8
REMARK VINA RESULT:      -6.2      1.048      1.075
REMARK  Name = 
REMARK  8 active torsions:
REMARK  status: ('A' for Active; 'I' for Inactive)
REMARK    1  A    between atoms: C_1  and  O_2
REMARK    2  A    between atoms: O_2  and  C_3
REMARK    3  A    between atoms: C_6  and  N_7
REMARK    4  A    between atoms: C_8  and  C_10
REMARK    5  A    between atoms: C_10  and  C_11
REMARK    6  A    between atoms: C_13  and  C_14
REMARK    7  A    between atoms: C_19  and  O_20
REMARK    8  A    between atoms: O_20  and  C_21
REMARK                            x       y       z     vdW  Elec       q    Type
REMARK                         _______ _______ _______ _____ _____    ______ ____
ROOT
ATOM      1  N   UNL     1       2.158   7.945  20.009  0.00  0.00    +0.000 N 
ATOM      2  C   UNL     1       2.160   6.565  20.018  0.00  0.00    +0.000 C 
ATOM      3  O   UNL     1       1.414   5.875  20.709  0.00  0.00    +0.000 OA
ATOM      4  H   UNL     1       2.983   8.442  19.689  0.00  0.00    +0.000 HD
ENDROOT
BRANCH   1   8
ATOM      5  C   UNL     1      -0.508  10.349  22.252  0.00  0.00    +0.000 A 
ATOM      6  C   UNL     1       0.343   9.456  22.908  0.00  0.00    +0.000 A 
ATOM      7  C   UNL     1       1.242   8.664  22.188  0.00  0.00    +0.000 A 
ATOM      8  C   UNL     1       1.284   8.743  20.795  0.00  0.00    +0.000 A 
ATOM      9  C   UNL     1       0.416   9.628  20.125  0.00  0.00    +0.000 A 
ATOM     10  C   UNL     1      -0.465  10.438  20.859  0.00  0.00    +0.000 A 
BRANCH   5  12
ATOM     11  C   UNL     1      -1.289  12.493  22.950  0.00  0.00    +0.000 C 
ATOM     12  O   UNL     1      -1.318  11.077  23.084  0.00  0.00    +0.000 OA
ENDBRANCH   5  12
BRANCH   9  13
ATOM     13  O   UNL     1       0.568   9.664  18.758  0.00  0.00    +0.000 OA
ATOM     14  C   UNL     1      -0.555  10.085  17.994  0.00  0.00    +0.000 C 
ENDBRANCH   9  13
ENDBRANCH   1   8
BRANCH   2  15
ATOM     15  C   UNL     1       3.238   5.910  19.217  0.00  0.00    +0.000 C 
ATOM     16  C   UNL     1       3.782   6.603  18.189  0.00  0.00    +0.000 C 
BRANCH  16  17
ATOM     17  C   UNL     1       4.768   6.067  17.310  0.00  0.00    +0.000 A 
ATOM     18  C   UNL     1       4.774   5.201  16.231  0.00  0.00    +0.000 A 
ATOM     19  C   UNL     1       6.109   5.020  15.800  0.00  0.00    +0.000 A 
ATOM     20  C   UNL     1       6.897   5.819  16.589  0.00  0.00    +0.000 A 
ATOM     21  N   UNL     1       6.082   6.466  17.480  0.00  0.00    +0.000 N 
ATOM     22  H   UNL     1       6.404   7.110  18.192  0.00  0.00    +0.000 HD
ENDBRANCH  16  17
BRANCH  15  23
ATOM     23  C   UNL     1       3.735   4.498  19.483  0.00  0.00    +0.000 C 
ATOM     24  N   UNL     1       4.146   3.326  19.703  0.00  0.00    +0.000 NA
ENDBRANCH  15  23
ENDBRANCH   2  15
TORSDOF 6
ENDMDL
MODEL 9
REMARK VINA RESULT:      -6.1      2.652      7.547
REMARK  Name = 
REMARK  8 active torsions:
REMARK  status: ('A' for Active; 'I' for Inactive)
REMARK    1  A    between atoms: C_1  and  O_2
REMARK    2  A    between atoms: O_2  and  C_3
REMARK    3  A    between atoms: C_6  and  N_7
REMARK    4  A    between atoms: C_8  and  C_10
REMARK    5  A    between atoms: C_10  and  C_11
REMARK    6  A    between atoms: C_13  and  C_14
REMARK    7  A    between atoms: C_19  and  O_20
REMARK    8  A    between atoms: O_20  and  C_21
REMARK                            x       y       z     vdW  Elec       q    Type
REMARK                         _______ _______ _______ _____ _____    ______ ____
ROOT
ATOM      1  N   UNL     1       2.234   7.488  18.493  0.00  0.00    +0.000 N 
ATOM      2  C   UNL     1       1.843   7.933  19.739  0.00  0.00    +0.000 C 
ATOM      3  O   UNL     1       1.796   7.226  20.744  0.00  0.00    +0.000 OA
ATOM      4  H   UNL     1       1.946   8.004  17.668  0.00  0.00    +0.000 HD
ENDROOT
BRANCH   1   8
ATOM      5  C   UNL     1       3.552   3.554  17.660  0.00  0.00    +0.000 A 
ATOM      6  C   UNL     1       2.272   3.763  18.176  0.00  0.00    +0.000 A 
ATOM      7  C   UNL     1       1.810   5.055  18.444  0.00  0.00    +0.000 A 
ATOM      8  C   UNL     1       2.639   6.155  18.215  0.00  0.00    +0.000 A 
ATOM      9  C   UNL     1       3.939   5.951  17.713  0.00  0.00    +0.000 A 
ATOM     10  C   UNL     1       4.383   4.651  17.423  0.00  0.00    +0.000 A 
BRANCH   5  12
ATOM     11  C   UNL     1       3.607   1.308  18.468  0.00  0.00    +0.000 C 
ATOM     12  O   UNL     1       3.862   2.240  17.424  0.00  0.00    +0.000 OA
ENDBRANCH   5  12
BRANCH   9  13
ATOM     13  O   UNL     1       4.657   7.101  17.480  0.00  0.00    +0.000 OA
ATOM     14  C   UNL     1       6.034   6.948  17.157  0.00  0.00    +0.000 C 
ENDBRANCH   9  13
ENDBRANCH   1   8
BRANCH   2  15
ATOM     15  C   UNL     1       1.335   9.337  19.800  0.00  0.00    +0.000 C 
ATOM     16  C   UNL     1       1.326  10.064  18.659  0.00  0.00    +0.000 C 
BRANCH  16  17
ATOM     17  C   UNL     1       0.928  11.432  18.598  0.00  0.00    +0.000 A 
ATOM     18  C   UNL     1       1.542  12.656  18.795  0.00  0.00    +0.000 A 
ATOM     19  C   UNL     1       0.580  13.680  18.629  0.00  0.00    +0.000 A 
ATOM     20  C   UNL     1      -0.599  13.069  18.280  0.00  0.00    +0.000 A 
ATOM     21  N   UNL     1      -0.377  11.718  18.239  0.00  0.00    +0.000 N 
ATOM     22  H   UNL     1      -1.083  11.026  18.020  0.00  0.00    +0.000 HD
ENDBRANCH  16  17
BRANCH  15  23
ATOM     23  C   UNL     1       0.852   9.994  21.083  0.00  0.00    +0.000 C 
ATOM     24  N   UNL     1       0.452  10.541  22.147  0.00  0.00    +0.000 NA
ENDBRANCH  15  23
ENDBRANCH   2  15
TORSDOF 6
ENDMDL
