MODEL 1
REMARK VINA RESULT:      -5.9      0.000      0.000
REMARK  Name = 
REMARK  14 active torsions:
REMARK  status: ('A' for Active; 'I' for Inactive)
REMARK    1  A    between atoms: C_2  and  S_3
REMARK    2  A    between atoms: S_3  and  C_4
REMARK    3  A    between atoms: C_4  and  C_5
REMARK    4  A    between atoms: C_5  and  C_6
REMARK    5  A    between atoms: C_6  and  C_7
REMARK    6  A    between atoms: C_7  and  C_8
REMARK    7  A    between atoms: C_8  and  C_9
REMARK    8  A    between atoms: C_9  and  C_10
REMARK    9  A    between atoms: C_10  and  C_11
REMARK   10  A    between atoms: C_11  and  O_12
REMARK   11  A    between atoms: O_12  and  C_13
REMARK   12  A    between atoms: C_13  and  C_14
REMARK   13  A    between atoms: C_14  and  C_15
REMARK   14  A    between atoms: C_15  and  C_16
REMARK                            x       y       z     vdW  Elec       q    Type
REMARK                         _______ _______ _______ _____ _____    ______ ____
ROOT
ATOM      1  C   UNL     1       5.951   5.325  18.973  0.00  0.00    +0.000 C 
ENDROOT
BRANCH   1   2
ATOM      2  C   UNL     1       7.369   5.827  18.759  0.00  0.00    +0.000 C 
BRANCH   2   3
ATOM      3  C   UNL     1       7.499   6.425  17.364  0.00  0.00    +0.000 C 
BRANCH   3   4
ATOM      4  C   UNL     1       7.503   7.948  17.407  0.00  0.00    +0.000 C 
BRANCH   4   5
ATOM      5  C   UNL     1       8.426   8.457  18.512  0.00  0.00    +0.000 C 
BRANCH   5   6
ATOM      6  C   UNL     1       8.796   9.922  18.286  0.00  0.00    +0.000 C 
BRANCH   6   7
ATOM      7  C   UNL     1       9.451  10.527  19.530  0.00  0.00    +0.000 C 
BRANCH   7   8
ATOM      8  C   UNL     1      10.651  11.401  19.159  0.00  0.00    +0.000 C 
BRANCH   8   9
ATOM      9  S   UNL     1      10.133  13.142  19.087  0.00  0.00    +0.000 S 
BRANCH   9  11
ATOM     10  N   UNL     1      11.477  13.918  16.698  0.00  0.00    +0.000 NA
ATOM     11  C   UNL     1      10.937  13.600  17.670  0.00  0.00    +0.000 C 
ENDBRANCH   9  11
ENDBRANCH   8   9
ENDBRANCH   7   8
ENDBRANCH   6   7
ENDBRANCH   5   6
ENDBRANCH   4   5
ENDBRANCH   3   4
ENDBRANCH   2   3
ENDBRANCH   1   2
BRANCH   1  12
ATOM     12  O   UNL     1       5.565   4.531  17.858  0.00  0.00    +0.000 OA
BRANCH  12  13
ATOM     13  C   UNL     1       4.434   5.102  17.205  0.00  0.00    +0.000 C 
BRANCH  13  14
ATOM     14  C   UNL     1       3.801   6.111  18.145  0.00  0.00    +0.000 C 
BRANCH  14  15
ATOM     15  C   UNL     1       2.298   5.874  18.257  0.00  0.00    +0.000 C 
BRANCH  15  16
ATOM     16  C   UNL     1       2.001   4.772  19.232  0.00  0.00    +0.000 A 
ATOM     17  C   UNL     1       1.277   3.641  18.850  0.00  0.00    +0.000 A 
ATOM     18  C   UNL     1       0.958   2.679  19.804  0.00  0.00    +0.000 A 
ATOM     19  C   UNL     1       1.375   2.885  21.109  0.00  0.00    +0.000 A 
ATOM     20  N   UNL     1       2.088   3.958  21.511  0.00  0.00    +0.000 NA
ATOM     21  C   UNL     1       2.384   4.876  20.566  0.00  0.00    +0.000 A 
ENDBRANCH  15  16
ENDBRANCH  14  15
ENDBRANCH  13  14
ENDBRANCH  12  13
ENDBRANCH   1  12
TORSDOF 14
ENDMDL
MODEL 2
REMARK VINA RESULT:      -5.7      5.233      8.644
REMARK  Name = 
REMARK  14 active torsions:
REMARK  status: ('A' for Active; 'I' for Inactive)
REMARK    1  A    between atoms: C_2  and  S_3
REMARK    2  A    between atoms: S_3  and  C_4
REMARK    3  A    between atoms: C_4  and  C_5
REMARK    4  A    between atoms: C_5  and  C_6
REMARK    5  A    between atoms: C_6  and  C_7
REMARK    6  A    between atoms: C_7  and  C_8
REMARK    7  A    between atoms: C_8  and  C_9
REMARK    8  A    between atoms: C_9  and  C_10
REMARK    9  A    between atoms: C_10  and  C_11
REMARK   10  A    between atoms: C_11  and  O_12
REMARK   11  A    between atoms: O_12  and  C_13
REMARK   12  A    between atoms: C_13  and  C_14
REMARK   13  A    between atoms: C_14  and  C_15
REMARK   14  A    between atoms: C_15  and  C_16
REMARK                            x       y       z     vdW  Elec       q    Type
REMARK                         _______ _______ _______ _____ _____    ______ ____
ROOT
ATOM      1  C   UNL     1       3.676   7.392  17.694  0.00  0.00    +0.000 C 
ENDROOT
BRANCH   1   2
ATOM      2  C   UNL     1       2.709   6.313  18.151  0.00  0.00    +0.000 C 
BRANCH   2   3
ATOM      3  C   UNL     1       2.311   6.558  19.602  0.00  0.00    +0.000 C 
BRANCH   3   4
ATOM      4  C   UNL     1       2.437   5.290  20.437  0.00  0.00    +0.000 C 
BRANCH   4   5
ATOM      5  C   UNL     1       1.102   4.550  20.503  0.00  0.00    +0.000 C 
BRANCH   5   6
ATOM      6  C   UNL     1       1.238   3.126  19.967  0.00  0.00    +0.000 C 
BRANCH   6   7
ATOM      7  C   UNL     1       1.055   3.086  18.448  0.00  0.00    +0.000 C 
BRANCH   7   8
ATOM      8  C   UNL     1       2.396   2.918  17.729  0.00  0.00    +0.000 C 
BRANCH   8   9
ATOM      9  S   UNL     1       3.277   1.485  18.419  0.00  0.00    +0.000 S 
BRANCH   9  11
ATOM     10  N   UNL     1       5.092   2.854  20.137  0.00  0.00    +0.000 NA
ATOM     11  C   UNL     1       4.357   2.302  19.434  0.00  0.00    +0.000 C 
ENDBRANCH   9  11
ENDBRANCH   8   9
ENDBRANCH   7   8
ENDBRANCH   6   7
ENDBRANCH   5   6
ENDBRANCH   4   5
ENDBRANCH   3   4
ENDBRANCH   2   3
ENDBRANCH   1   2
BRANCH   1  12
ATOM     12  O   UNL     1       4.838   6.777  17.150  0.00  0.00    +0.000 OA
BRANCH  12  13
ATOM     13  C   UNL     1       5.244   5.675  17.958  0.00  0.00    +0.000 C 
BRANCH  13  14
ATOM     14  C   UNL     1       6.028   4.710  17.088  0.00  0.00    +0.000 C 
BRANCH  14  15
ATOM     15  C   UNL     1       5.200   4.275  15.883  0.00  0.00    +0.000 C 
BRANCH  15  16
ATOM     16  C   UNL     1       5.984   4.425  14.612  0.00  0.00    +0.000 A 
ATOM     17  C   UNL     1       5.664   3.688  13.470  0.00  0.00    +0.000 A 
ATOM     18  C   UNL     1       6.463   3.801  12.337  0.00  0.00    +0.000 A 
ATOM     19  C   UNL     1       7.558   4.648  12.388  0.00  0.00    +0.000 A 
ATOM     20  N   UNL     1       7.890   5.386  13.468  0.00  0.00    +0.000 NA
ATOM     21  C   UNL     1       7.097   5.258  14.554  0.00  0.00    +0.000 A 
ENDBRANCH  15  16
ENDBRANCH  14  15
ENDBRANCH  13  14
ENDBRANCH  12  13
ENDBRANCH   1  12
TORSDOF 14
ENDMDL
MODEL 3
REMARK VINA RESULT:      -5.7      3.434      9.474
REMARK  Name = 
REMARK  14 active torsions:
REMARK  status: ('A' for Active; 'I' for Inactive)
REMARK    1  A    between atoms: C_2  and  S_3
REMARK    2  A    between atoms: S_3  and  C_4
REMARK    3  A    between atoms: C_4  and  C_5
REMARK    4  A    between atoms: C_5  and  C_6
REMARK    5  A    between atoms: C_6  and  C_7
REMARK    6  A    between atoms: C_7  and  C_8
REMARK    7  A    between atoms: C_8  and  C_9
REMARK    8  A    between atoms: C_9  and  C_10
REMARK    9  A    between atoms: C_10  and  C_11
REMARK   10  A    between atoms: C_11  and  O_12
REMARK   11  A    between atoms: O_12  and  C_13
REMARK   12  A    between atoms: C_13  and  C_14
REMARK   13  A    between atoms: C_14  and  C_15
REMARK   14  A    between atoms: C_15  and  C_16
REMARK                            x       y       z     vdW  Elec       q    Type
REMARK                         _______ _______ _______ _____ _____    ______ ____
ROOT
ATOM      1  C   UNL     1       7.220   5.164  16.590  0.00  0.00    +0.000 C 
ENDROOT
BRANCH   1   2
ATOM      2  C   UNL     1       6.174   4.754  15.566  0.00  0.00    +0.000 C 
BRANCH   2   3
ATOM      3  C   UNL     1       4.823   4.582  16.249  0.00  0.00    +0.000 C 
BRANCH   3   4
ATOM      4  C   UNL     1       4.982   4.153  17.702  0.00  0.00    +0.000 C 
BRANCH   4   5
ATOM      5  C   UNL     1       3.972   3.064  18.059  0.00  0.00    +0.000 C 
BRANCH   5   6
ATOM      6  C   UNL     1       2.718   3.175  17.193  0.00  0.00    +0.000 C 
BRANCH   6   7
ATOM      7  C   UNL     1       1.534   3.718  17.999  0.00  0.00    +0.000 C 
BRANCH   7   8
ATOM      8  C   UNL     1       0.912   2.630  18.876  0.00  0.00    +0.000 C 
BRANCH   8   9
ATOM      9  S   UNL     1       1.464   2.848  20.594  0.00  0.00    +0.000 S 
BRANCH   9  11
ATOM     10  N   UNL     1       1.598   5.694  20.649  0.00  0.00    +0.000 NA
ATOM     11  C   UNL     1       1.547   4.538  20.633  0.00  0.00    +0.000 C 
ENDBRANCH   9  11
ENDBRANCH   8   9
ENDBRANCH   7   8
ENDBRANCH   6   7
ENDBRANCH   5   6
ENDBRANCH   4   5
ENDBRANCH   3   4
ENDBRANCH   2   3
ENDBRANCH   1   2
BRANCH   1  12
ATOM     12  O   UNL     1       7.468   6.560  16.468  0.00  0.00    +0.000 OA
BRANCH  12  13
ATOM     13  C   UNL     1       7.325   7.205  17.730  0.00  0.00    +0.000 C 
BRANCH  13  14
ATOM     14  C   UNL     1       7.831   8.629  17.597  0.00  0.00    +0.000 C 
BRANCH  14  15
ATOM     15  C   UNL     1       8.825   8.954  18.708  0.00  0.00    +0.000 C 
BRANCH  15  16
ATOM     16  C   UNL     1       9.097  10.429  18.769  0.00  0.00    +0.000 A 
ATOM     17  C   UNL     1       8.583  11.302  17.808  0.00  0.00    +0.000 A 
ATOM     18  C   UNL     1       8.921  12.650  17.859  0.00  0.00    +0.000 A 
ATOM     19  C   UNL     1       9.765  13.078  18.871  0.00  0.00    +0.000 A 
ATOM     20  N   UNL     1      10.268  12.266  19.826  0.00  0.00    +0.000 NA
ATOM     21  C   UNL     1       9.924  10.962  19.752  0.00  0.00    +0.000 A 
ENDBRANCH  15  16
ENDBRANCH  14  15
ENDBRANCH  13  14
ENDBRANCH  12  13
ENDBRANCH   1  12
TORSDOF 14
ENDMDL
MODEL 4
REMARK VINA RESULT:      -5.6      2.969      9.832
REMARK  Name = 
REMARK  14 active torsions:
REMARK  status: ('A' for Active; 'I' for Inactive)
REMARK    1  A    between atoms: C_2  and  S_3
REMARK    2  A    between atoms: S_3  and  C_4
REMARK    3  A    between atoms: C_4  and  C_5
REMARK    4  A    between atoms: C_5  and  C_6
REMARK    5  A    between atoms: C_6  and  C_7
REMARK    6  A    between atoms: C_7  and  C_8
REMARK    7  A    between atoms: C_8  and  C_9
REMARK    8  A    between atoms: C_9  and  C_10
REMARK    9  A    between atoms: C_10  and  C_11
REMARK   10  A    between atoms: C_11  and  O_12
REMARK   11  A    between atoms: O_12  and  C_13
REMARK   12  A    between atoms: C_13  and  C_14
REMARK   13  A    between atoms: C_14  and  C_15
REMARK   14  A    between atoms: C_15  and  C_16
REMARK                            x       y       z     vdW  Elec       q    Type
REMARK                         _______ _______ _______ _____ _____    ______ ____
ROOT
ATOM      1  C   UNL     1       7.733   6.319  18.461  0.00  0.00    +0.000 C 
ENDROOT
BRANCH   1   2
ATOM      2  C   UNL     1       7.119   6.217  17.076  0.00  0.00    +0.000 C 
BRANCH   2   3
ATOM      3  C   UNL     1       5.607   6.068  17.191  0.00  0.00    +0.000 C 
BRANCH   3   4
ATOM      4  C   UNL     1       5.053   5.136  16.122  0.00  0.00    +0.000 C 
BRANCH   4   5
ATOM      5  C   UNL     1       4.617   3.806  16.735  0.00  0.00    +0.000 C 
BRANCH   5   6
ATOM      6  C   UNL     1       4.257   3.975  18.210  0.00  0.00    +0.000 C 
BRANCH   6   7
ATOM      7  C   UNL     1       2.928   3.290  18.539  0.00  0.00    +0.000 C 
BRANCH   7   8
ATOM      8  C   UNL     1       1.828   4.315  18.822  0.00  0.00    +0.000 C 
BRANCH   8   9
ATOM      9  S   UNL     1       2.088   5.043  20.468  0.00  0.00    +0.000 S 
BRANCH   9  11
ATOM     10  N   UNL     1       1.882   2.671  22.033  0.00  0.00    +0.000 NA
ATOM     11  C   UNL     1       1.961   3.637  21.402  0.00  0.00    +0.000 C 
ENDBRANCH   9  11
ENDBRANCH   8   9
ENDBRANCH   7   8
ENDBRANCH   6   7
ENDBRANCH   5   6
ENDBRANCH   4   5
ENDBRANCH   3   4
ENDBRANCH   2   3
ENDBRANCH   1   2
BRANCH   1  12
ATOM     12  O   UNL     1       8.365   7.587  18.598  0.00  0.00    +0.000 OA
BRANCH  12  13
ATOM     13  C   UNL     1       7.902   8.486  17.594  0.00  0.00    +0.000 C 
BRANCH  13  14
ATOM     14  C   UNL     1       8.475   9.861  17.885  0.00  0.00    +0.000 C 
BRANCH  14  15
ATOM     15  C   UNL     1       9.161   9.882  19.248  0.00  0.00    +0.000 C 
BRANCH  15  16
ATOM     16  C   UNL     1      10.051  11.083  19.381  0.00  0.00    +0.000 A 
ATOM     17  C   UNL     1      10.128  11.800  20.576  0.00  0.00    +0.000 A 
ATOM     18  C   UNL     1      10.906  12.952  20.634  0.00  0.00    +0.000 A 
ATOM     19  C   UNL     1      11.581  13.346  19.490  0.00  0.00    +0.000 A 
ATOM     20  N   UNL     1      11.543  12.669  18.322  0.00  0.00    +0.000 NA
ATOM     21  C   UNL     1      10.779  11.556  18.294  0.00  0.00    +0.000 A 
ENDBRANCH  15  16
ENDBRANCH  14  15
ENDBRANCH  13  14
ENDBRANCH  12  13
ENDBRANCH   1  12
TORSDOF 14
ENDMDL
MODEL 5
REMARK VINA RESULT:      -5.6      1.408      1.685
REMARK  Name = 
REMARK  14 active torsions:
REMARK  status: ('A' for Active; 'I' for Inactive)
REMARK    1  A    between atoms: C_2  and  S_3
REMARK    2  A    between atoms: S_3  and  C_4
REMARK    3  A    between atoms: C_4  and  C_5
REMARK    4  A    between atoms: C_5  and  C_6
REMARK    5  A    between atoms: C_6  and  C_7
REMARK    6  A    between atoms: C_7  and  C_8
REMARK    7  A    between atoms: C_8  and  C_9
REMARK    8  A    between atoms: C_9  and  C_10
REMARK    9  A    between atoms: C_10  and  C_11
REMARK   10  A    between atoms: C_11  and  O_12
REMARK   11  A    between atoms: O_12  and  C_13
REMARK   12  A    between atoms: C_13  and  C_14
REMARK   13  A    between atoms: C_14  and  C_15
REMARK   14  A    between atoms: C_15  and  C_16
REMARK                            x       y       z     vdW  Elec       q    Type
REMARK                         _______ _______ _______ _____ _____    ______ ____
ROOT
ATOM      1  C   UNL     1       4.983   6.504  17.878  0.00  0.00    +0.000 C 
ENDROOT
BRANCH   1   2
ATOM      2  C   UNL     1       6.334   5.809  17.916  0.00  0.00    +0.000 C 
BRANCH   2   3
ATOM      3  C   UNL     1       7.381   6.681  17.233  0.00  0.00    +0.000 C 
BRANCH   3   4
ATOM      4  C   UNL     1       8.026   7.651  18.214  0.00  0.00    +0.000 C 
BRANCH   4   5
ATOM      5  C   UNL     1       7.976   9.080  17.675  0.00  0.00    +0.000 C 
BRANCH   5   6
ATOM      6  C   UNL     1       9.003   9.966  18.377  0.00  0.00    +0.000 C 
BRANCH   6   7
ATOM      7  C   UNL     1       8.744  11.448  18.092  0.00  0.00    +0.000 C 
BRANCH   7   8
ATOM      8  C   UNL     1       9.450  12.343  19.113  0.00  0.00    +0.000 C 
BRANCH   8   9
ATOM      9  S   UNL     1       9.761  13.975  18.374  0.00  0.00    +0.000 S 
BRANCH   9  11
ATOM     10  N   UNL     1      11.867  13.269  16.589  0.00  0.00    +0.000 NA
ATOM     11  C   UNL     1      11.008  13.550  17.312  0.00  0.00    +0.000 C 
ENDBRANCH   9  11
ENDBRANCH   8   9
ENDBRANCH   7   8
ENDBRANCH   6   7
ENDBRANCH   5   6
ENDBRANCH   4   5
ENDBRANCH   3   4
ENDBRANCH   2   3
ENDBRANCH   1   2
BRANCH   1  12
ATOM     12  O   UNL     1       4.115   5.786  17.009  0.00  0.00    +0.000 OA
BRANCH  12  13
ATOM     13  C   UNL     1       4.546   4.434  16.877  0.00  0.00    +0.000 C 
BRANCH  13  14
ATOM     14  C   UNL     1       3.340   3.530  17.050  0.00  0.00    +0.000 C 
BRANCH  14  15
ATOM     15  C   UNL     1       3.642   2.411  18.041  0.00  0.00    +0.000 C 
BRANCH  15  16
ATOM     16  C   UNL     1       2.866   2.596  19.312  0.00  0.00    +0.000 A 
ATOM     17  C   UNL     1       1.544   3.043  19.296  0.00  0.00    +0.000 A 
ATOM     18  C   UNL     1       0.885   3.275  20.500  0.00  0.00    +0.000 A 
ATOM     19  C   UNL     1       1.577   3.052  21.680  0.00  0.00    +0.000 A 
ATOM     20  N   UNL     1       2.850   2.606  21.734  0.00  0.00    +0.000 NA
ATOM     21  C   UNL     1       3.465   2.390  20.551  0.00  0.00    +0.000 A 
ENDBRANCH  15  16
ENDBRANCH  14  15
ENDBRANCH  13  14
ENDBRANCH  12  13
ENDBRANCH   1  12
TORSDOF 14
ENDMDL
MODEL 6
REMARK VINA RESULT:      -5.5      1.535      2.363
REMARK  Name = 
REMARK  14 active torsions:
REMARK  status: ('A' for Active; 'I' for Inactive)
REMARK    1  A    between atoms: C_2  and  S_3
REMARK    2  A    between atoms: S_3  and  C_4
REMARK    3  A    between atoms: C_4  and  C_5
REMARK    4  A    between atoms: C_5  and  C_6
REMARK    5  A    between atoms: C_6  and  C_7
REMARK    6  A    between atoms: C_7  and  C_8
REMARK    7  A    between atoms: C_8  and  C_9
REMARK    8  A    between atoms: C_9  and  C_10
REMARK    9  A    between atoms: C_10  and  C_11
REMARK   10  A    between atoms: C_11  and  O_12
REMARK   11  A    between atoms: O_12  and  C_13
REMARK   12  A    between atoms: C_13  and  C_14
REMARK   13  A    between atoms: C_14  and  C_15
REMARK   14  A    between atoms: C_15  and  C_16
REMARK                            x       y       z     vdW  Elec       q    Type
REMARK                         _______ _______ _______ _____ _____    ______ ____
ROOT
ATOM      1  C   UNL     1       6.601   7.330  17.464  0.00  0.00    +0.000 C 
ENDROOT
BRANCH   1   2
ATOM      2  C   UNL     1       7.848   8.151  17.182  0.00  0.00    +0.000 C 
BRANCH   2   3
ATOM      3  C   UNL     1       8.414   8.695  18.488  0.00  0.00    +0.000 C 
BRANCH   3   4
ATOM      4  C   UNL     1       8.953  10.109  18.318  0.00  0.00    +0.000 C 
BRANCH   4   5
ATOM      5  C   UNL     1       9.688  10.564  19.577  0.00  0.00    +0.000 C 
BRANCH   5   6
ATOM      6  C   UNL     1      10.825  11.525  19.230  0.00  0.00    +0.000 C 
BRANCH   6   7
ATOM      7  C   UNL     1      10.924  11.745  17.718  0.00  0.00    +0.000 C 
BRANCH   7   8
ATOM      8  C   UNL     1      10.539  13.176  17.337  0.00  0.00    +0.000 C 
BRANCH   8   9
ATOM      9  S   UNL     1      11.189  14.330  18.582  0.00  0.00    +0.000 S 
BRANCH   9  11
ATOM     10  N   UNL     1      11.566  16.613  16.920  0.00  0.00    +0.000 NA
ATOM     11  C   UNL     1      11.420  15.684  17.593  0.00  0.00    +0.000 C 
ENDBRANCH   9  11
ENDBRANCH   8   9
ENDBRANCH   7   8
ENDBRANCH   6   7
ENDBRANCH   5   6
ENDBRANCH   4   5
ENDBRANCH   3   4
ENDBRANCH   2   3
ENDBRANCH   1   2
BRANCH   1  12
ATOM     12  O   UNL     1       6.295   6.540  16.320  0.00  0.00    +0.000 OA
BRANCH  12  13
ATOM     13  C   UNL     1       4.884   6.425  16.156  0.00  0.00    +0.000 C 
BRANCH  13  14
ATOM     14  C   UNL     1       4.364   5.437  17.183  0.00  0.00    +0.000 C 
BRANCH  14  15
ATOM     15  C   UNL     1       3.146   6.002  17.906  0.00  0.00    +0.000 C 
BRANCH  15  16
ATOM     16  C   UNL     1       2.284   4.899  18.447  0.00  0.00    +0.000 A 
ATOM     17  C   UNL     1       1.895   4.872  19.787  0.00  0.00    +0.000 A 
ATOM     18  C   UNL     1       1.160   3.792  20.265  0.00  0.00    +0.000 A 
ATOM     19  C   UNL     1       0.841   2.773  19.381  0.00  0.00    +0.000 A 
ATOM     20  N   UNL     1       1.186   2.773  18.076  0.00  0.00    +0.000 NA
ATOM     21  C   UNL     1       1.899   3.833  17.640  0.00  0.00    +0.000 A 
ENDBRANCH  15  16
ENDBRANCH  14  15
ENDBRANCH  13  14
ENDBRANCH  12  13
ENDBRANCH   1  12
TORSDOF 14
ENDMDL
MODEL 7
REMARK VINA RESULT:      -5.5      1.789      2.052
REMARK  Name = 
REMARK  14 active torsions:
REMARK  status: ('A' for Active; 'I' for Inactive)
REMARK    1  A    between atoms: C_2  and  S_3
REMARK    2  A    between atoms: S_3  and  C_4
REMARK    3  A    between atoms: C_4  and  C_5
REMARK    4  A    between atoms: C_5  and  C_6
REMARK    5  A    between atoms: C_6  and  C_7
REMARK    6  A    between atoms: C_7  and  C_8
REMARK    7  A    between atoms: C_8  and  C_9
REMARK    8  A    between atoms: C_9  and  C_10
REMARK    9  A    between atoms: C_10  and  C_11
REMARK   10  A    between atoms: C_11  and  O_12
REMARK   11  A    between atoms: O_12  and  C_13
REMARK   12  A    between atoms: C_13  and  C_14
REMARK   13  A    between atoms: C_14  and  C_15
REMARK   14  A    between atoms: C_15  and  C_16
REMARK                            x       y       z     vdW  Elec       q    Type
REMARK                         _______ _______ _______ _____ _____    ______ ____
ROOT
ATOM      1  C   UNL     1       6.735   5.401  17.886  0.00  0.00    +0.000 C 
ENDROOT
BRANCH   1   2
ATOM      2  C   UNL     1       7.851   5.666  18.883  0.00  0.00    +0.000 C 
BRANCH   2   3
ATOM      3  C   UNL     1       8.317   7.112  18.763  0.00  0.00    +0.000 C 
BRANCH   3   4
ATOM      4  C   UNL     1       7.508   7.875  17.723  0.00  0.00    +0.000 C 
BRANCH   4   5
ATOM      5  C   UNL     1       8.113   9.255  17.472  0.00  0.00    +0.000 C 
BRANCH   5   6
ATOM      6  C   UNL     1       8.791   9.793  18.732  0.00  0.00    +0.000 C 
BRANCH   6   7
ATOM      7  C   UNL     1       9.751  10.938  18.398  0.00  0.00    +0.000 C 
BRANCH   7   8
ATOM      8  C   UNL     1       9.005  12.265  18.248  0.00  0.00    +0.000 C 
BRANCH   8   9
ATOM      9  S   UNL     1       9.976  13.597  19.015  0.00  0.00    +0.000 S 
BRANCH   9  11
ATOM     10  N   UNL     1       9.731  12.817  21.745  0.00  0.00    +0.000 NA
ATOM     11  C   UNL     1       9.834  13.128  20.635  0.00  0.00    +0.000 C 
ENDBRANCH   9  11
ENDBRANCH   8   9
ENDBRANCH   7   8
ENDBRANCH   6   7
ENDBRANCH   5   6
ENDBRANCH   4   5
ENDBRANCH   3   4
ENDBRANCH   2   3
ENDBRANCH   1   2
BRANCH   1  12
ATOM     12  O   UNL     1       5.753   4.571  18.496  0.00  0.00    +0.000 OA
BRANCH  12  13
ATOM     13  C   UNL     1       4.765   5.364  19.149  0.00  0.00    +0.000 C 
BRANCH  13  14
ATOM     14  C   UNL     1       4.071   6.216  18.103  0.00  0.00    +0.000 C 
BRANCH  14  15
ATOM     15  C   UNL     1       2.613   6.454  18.482  0.00  0.00    +0.000 C 
BRANCH  15  16
ATOM     16  C   UNL     1       1.928   5.161  18.814  0.00  0.00    +0.000 A 
ATOM     17  C   UNL     1       1.542   4.859  20.122  0.00  0.00    +0.000 A 
ATOM     18  C   UNL     1       0.979   3.617  20.399  0.00  0.00    +0.000 A 
ATOM     19  C   UNL     1       0.823   2.719  19.355  0.00  0.00    +0.000 A 
ATOM     20  N   UNL     1       1.170   2.983  18.077  0.00  0.00    +0.000 NA
ATOM     21  C   UNL     1       1.714   4.195  17.837  0.00  0.00    +0.000 A 
ENDBRANCH  15  16
ENDBRANCH  14  15
ENDBRANCH  13  14
ENDBRANCH  12  13
ENDBRANCH   1  12
TORSDOF 14
ENDMDL
MODEL 8
REMARK VINA RESULT:      -5.5      3.514     10.523
REMARK  Name = 
REMARK  14 active torsions:
REMARK  status: ('A' for Active; 'I' for Inactive)
REMARK    1  A    between atoms: C_2  and  S_3
REMARK    2  A    between atoms: S_3  and  C_4
REMARK    3  A    between atoms: C_4  and  C_5
REMARK    4  A    between atoms: C_5  and  C_6
REMARK    5  A    between atoms: C_6  and  C_7
REMARK    6  A    between atoms: C_7  and  C_8
REMARK    7  A    between atoms: C_8  and  C_9
REMARK    8  A    between atoms: C_9  and  C_10
REMARK    9  A    between atoms: C_10  and  C_11
REMARK   10  A    between atoms: C_11  and  O_12
REMARK   11  A    between atoms: O_12  and  C_13
REMARK   12  A    between atoms: C_13  and  C_14
REMARK   13  A    between atoms: C_14  and  C_15
REMARK   14  A    between atoms: C_15  and  C_16
REMARK                            x       y       z     vdW  Elec       q    Type
REMARK                         _______ _______ _______ _____ _____    ______ ____
ROOT
ATOM      1  C   UNL     1       7.954   8.972  17.857  0.00  0.00    +0.000 C 
ENDROOT
BRANCH   1   2
ATOM      2  C   UNL     1       7.503   7.552  17.557  0.00  0.00    +0.000 C 
BRANCH   2   3
ATOM      3  C   UNL     1       8.053   6.602  18.613  0.00  0.00    +0.000 C 
BRANCH   3   4
ATOM      4  C   UNL     1       6.960   5.709  19.185  0.00  0.00    +0.000 C 
BRANCH   4   5
ATOM      5  C   UNL     1       6.031   5.213  18.078  0.00  0.00    +0.000 C 
BRANCH   5   6
ATOM      6  C   UNL     1       4.586   5.631  18.347  0.00  0.00    +0.000 C 
BRANCH   6   7
ATOM      7  C   UNL     1       3.609   4.838  17.476  0.00  0.00    +0.000 C 
BRANCH   7   8
ATOM      8  C   UNL     1       2.723   3.922  18.324  0.00  0.00    +0.000 C 
BRANCH   8   9
ATOM      9  S   UNL     1       3.270   2.199  18.127  0.00  0.00    +0.000 S 
BRANCH   9  11
ATOM     10  N   UNL     1       4.883   1.982  20.465  0.00  0.00    +0.000 NA
ATOM     11  C   UNL     1       4.232   2.067  19.512  0.00  0.00    +0.000 C 
ENDBRANCH   9  11
ENDBRANCH   8   9
ENDBRANCH   7   8
ENDBRANCH   6   7
ENDBRANCH   5   6
ENDBRANCH   4   5
ENDBRANCH   3   4
ENDBRANCH   2   3
ENDBRANCH   1   2
BRANCH   1  12
ATOM     12  O   UNL     1       8.876   8.947  18.941  0.00  0.00    +0.000 OA
BRANCH  12  13
ATOM     13  C   UNL     1       9.256  10.272  19.303  0.00  0.00    +0.000 C 
BRANCH  13  14
ATOM     14  C   UNL     1       9.299  11.116  18.043  0.00  0.00    +0.000 C 
BRANCH  14  15
ATOM     15  C   UNL     1      10.716  11.614  17.775  0.00  0.00    +0.000 C 
BRANCH  15  16
ATOM     16  C   UNL     1      10.735  13.104  17.593  0.00  0.00    +0.000 A 
ATOM     17  C   UNL     1      11.900  13.773  17.212  0.00  0.00    +0.000 A 
ATOM     18  C   UNL     1      11.894  15.162  17.129  0.00  0.00    +0.000 A 
ATOM     19  C   UNL     1      10.720  15.833  17.431  0.00  0.00    +0.000 A 
ATOM     20  N   UNL     1       9.572  15.218  17.788  0.00  0.00    +0.000 NA
ATOM     21  C   UNL     1       9.606  13.871  17.861  0.00  0.00    +0.000 A 
ENDBRANCH  15  16
ENDBRANCH  14  15
ENDBRANCH  13  14
ENDBRANCH  12  13
ENDBRANCH   1  12
TORSDOF 14
ENDMDL
MODEL 9
REMARK VINA RESULT:      -5.5      3.433      9.969
REMARK  Name = 
REMARK  14 active torsions:
REMARK  status: ('A' for Active; 'I' for Inactive)
REMARK    1  A    between atoms: C_2  and  S_3
REMARK    2  A    between atoms: S_3  and  C_4
REMARK    3  A    between atoms: C_4  and  C_5
REMARK    4  A    between atoms: C_5  and  C_6
REMARK    5  A    between atoms: C_6  and  C_7
REMARK    6  A    between atoms: C_7  and  C_8
REMARK    7  A    between atoms: C_8  and  C_9
REMARK    8  A    between atoms: C_9  and  C_10
REMARK    9  A    between atoms: C_10  and  C_11
REMARK   10  A    between atoms: C_11  and  O_12
REMARK   11  A    between atoms: O_12  and  C_13
REMARK   12  A    between atoms: C_13  and  C_14
REMARK   13  A    between atoms: C_14  and  C_15
REMARK   14  A    between atoms: C_15  and  C_16
REMARK                            x       y       z     vdW  Elec       q    Type
REMARK                         _______ _______ _______ _____ _____    ______ ____
ROOT
ATOM      1  C   UNL     1       6.762   6.474  18.361  0.00  0.00    +0.000 C 
ENDROOT
BRANCH   1   2
ATOM      2  C   UNL     1       5.853   6.806  17.190  0.00  0.00    +0.000 C 
BRANCH   2   3
ATOM      3  C   UNL     1       4.604   5.935  17.243  0.00  0.00    +0.000 C 
BRANCH   3   4
ATOM      4  C   UNL     1       3.523   6.562  18.114  0.00  0.00    +0.000 C 
BRANCH   4   5
ATOM      5  C   UNL     1       3.436   5.853  19.464  0.00  0.00    +0.000 C 
BRANCH   5   6
ATOM      6  C   UNL     1       2.059   6.049  20.098  0.00  0.00    +0.000 C 
BRANCH   6   7
ATOM      7  C   UNL     1       1.374   4.705  20.362  0.00  0.00    +0.000 C 
BRANCH   7   8
ATOM      8  C   UNL     1       2.399   3.595  20.601  0.00  0.00    +0.000 C 
BRANCH   8   9
ATOM      9  S   UNL     1       1.964   2.143  19.597  0.00  0.00    +0.000 S 
BRANCH   9  11
ATOM     10  N   UNL     1       2.123   3.338  17.015  0.00  0.00    +0.000 NA
ATOM     11  C   UNL     1       2.057   2.847  18.061  0.00  0.00    +0.000 C 
ENDBRANCH   9  11
ENDBRANCH   8   9
ENDBRANCH   7   8
ENDBRANCH   6   7
ENDBRANCH   5   6
ENDBRANCH   4   5
ENDBRANCH   3   4
ENDBRANCH   2   3
ENDBRANCH   1   2
BRANCH   1  12
ATOM     12  O   UNL     1       8.016   7.121  18.176  0.00  0.00    +0.000 OA
BRANCH  12  13
ATOM     13  C   UNL     1       7.826   8.461  17.732  0.00  0.00    +0.000 C 
BRANCH  13  14
ATOM     14  C   UNL     1       8.672   9.375  18.599  0.00  0.00    +0.000 C 
BRANCH  14  15
ATOM     15  C   UNL     1       8.744  10.775  17.997  0.00  0.00    +0.000 C 
BRANCH  15  16
ATOM     16  C   UNL     1      10.044  11.440  18.341  0.00  0.00    +0.000 A 
ATOM     17  C   UNL     1      10.671  11.217  19.569  0.00  0.00    +0.000 A 
ATOM     18  C   UNL     1      11.836  11.912  19.878  0.00  0.00    +0.000 A 
ATOM     19  C   UNL     1      12.333  12.808  18.945  0.00  0.00    +0.000 A 
ATOM     20  N   UNL     1      11.763  13.037  17.743  0.00  0.00    +0.000 NA
ATOM     21  C   UNL     1      10.634  12.350  17.470  0.00  0.00    +0.000 A 
ENDBRANCH  15  16
ENDBRANCH  14  15
ENDBRANCH  13  14
ENDBRANCH  12  13
ENDBRANCH   1  12
TORSDOF 14
ENDMDL
