MODEL 1
REMARK VINA RESULT:      -6.3      0.000      0.000
REMARK  Name = 
REMARK  7 active torsions:
REMARK  status: ('A' for Active; 'I' for Inactive)
REMARK    1  A    between atoms: C_1  and  C_2
REMARK    2  A    between atoms: C_2  and  C_3
REMARK    3  A    between atoms: C_2  and  C_4
REMARK    4  A    between atoms: C_2  and  C_13
REMARK    5  A    between atoms: N_6  and  C_7
REMARK    6  A    between atoms: C_9  and  C_10
REMARK    7  A    between atoms: C_9  and  O_11
REMARK                            x       y       z     vdW  Elec       q    Type
REMARK                         _______ _______ _______ _____ _____    ______ ____
ROOT
ATOM      1  C   UNL     1       5.751   4.772  17.771  0.00  0.00    +0.000 C 
ATOM      2  O   UNL     1       6.387   4.449  18.775  0.00  0.00    +0.000 OA
ATOM      3  N   UNL     1       4.540   4.179  17.470  0.00  0.00    +0.000 N 
ATOM      4  H   UNL     1       3.961   4.599  16.741  0.00  0.00    +0.000 HD
ENDROOT
BRANCH   3   5
ATOM      5  C   UNL     1       3.940   3.156  18.362  0.00  0.00    +0.000 C 
ATOM      6  C   UNL     1       2.830   3.713  19.276  0.00  0.00    +0.000 C 
ATOM      7  C   UNL     1       1.771   3.126  18.308  0.00  0.00    +0.000 C 
ATOM      8  C   UNL     1       0.651   2.372  19.011  0.00  0.00    +0.000 C 
ATOM      9  C   UNL     1       2.890   2.241  17.701  0.00  0.00    +0.000 C 
BRANCH   7  10
ATOM     10  O   UNL     1       1.201   4.071  17.372  0.00  0.00    +0.000 OA
ATOM     11  H   UNL     1       0.875   3.533  16.630  0.00  0.00    +0.000 HD
ENDBRANCH   7  10
ENDBRANCH   3   5
BRANCH   1  13
ATOM     12  C   UNL     1       5.064   6.712  16.333  0.00  0.00    +0.000 C 
ATOM     13  C   UNL     1       6.250   5.852  16.810  0.00  0.00    +0.000 C 
ATOM     14  C   UNL     1       7.271   6.767  17.500  0.00  0.00    +0.000 C 
BRANCH  13  15
ATOM     15  C   UNL     1       6.867   5.154  15.606  0.00  0.00    +0.000 C 
ATOM     16  F   UNL     1       7.383   3.952  15.974  0.00  0.00    +0.000 F 
ATOM     17  F   UNL     1       5.909   4.879  14.681  0.00  0.00    +0.000 F 
ENDBRANCH  13  15
ENDBRANCH   1  13
TORSDOF 4
ENDMDL
MODEL 2
REMARK VINA RESULT:      -6.3      1.316      1.847
REMARK  Name = 
REMARK  7 active torsions:
REMARK  status: ('A' for Active; 'I' for Inactive)
REMARK    1  A    between atoms: C_1  and  C_2
REMARK    2  A    between atoms: C_2  and  C_3
REMARK    3  A    between atoms: C_2  and  C_4
REMARK    4  A    between atoms: C_2  and  C_13
REMARK    5  A    between atoms: N_6  and  C_7
REMARK    6  A    between atoms: C_9  and  C_10
REMARK    7  A    between atoms: C_9  and  O_11
REMARK                            x       y       z     vdW  Elec       q    Type
REMARK                         _______ _______ _______ _____ _____    ______ ____
ROOT
ATOM      1  C   UNL     1       5.838   4.775  18.545  0.00  0.00    +0.000 C 
ATOM      2  O   UNL     1       5.961   4.949  19.758  0.00  0.00    +0.000 OA
ATOM      3  N   UNL     1       4.985   3.811  18.043  0.00  0.00    +0.000 N 
ATOM      4  H   UNL     1       4.773   3.823  17.044  0.00  0.00    +0.000 HD
ENDROOT
BRANCH   3   5
ATOM      5  C   UNL     1       4.157   2.971  18.942  0.00  0.00    +0.000 C 
ATOM      6  C   UNL     1       2.864   3.666  19.415  0.00  0.00    +0.000 C 
ATOM      7  C   UNL     1       2.072   2.865  18.351  0.00  0.00    +0.000 C 
ATOM      8  C   UNL     1       0.795   2.234  18.887  0.00  0.00    +0.000 C 
ATOM      9  C   UNL     1       3.289   1.910  18.237  0.00  0.00    +0.000 C 
BRANCH   7  10
ATOM     10  O   UNL     1       1.778   3.584  17.131  0.00  0.00    +0.000 OA
ATOM     11  H   UNL     1       2.010   4.511  17.315  0.00  0.00    +0.000 HD
ENDBRANCH   7  10
ENDBRANCH   3   5
BRANCH   1  13
ATOM     12  C   UNL     1       7.710   6.420  18.239  0.00  0.00    +0.000 C 
ATOM     13  C   UNL     1       6.604   5.620  17.525  0.00  0.00    +0.000 C 
ATOM     14  C   UNL     1       7.255   4.730  16.458  0.00  0.00    +0.000 C 
BRANCH  13  15
ATOM     15  C   UNL     1       5.619   6.596  16.898  0.00  0.00    +0.000 C 
ATOM     16  F   UNL     1       5.072   6.056  15.777  0.00  0.00    +0.000 F 
ATOM     17  F   UNL     1       4.580   6.824  17.745  0.00  0.00    +0.000 F 
ENDBRANCH  13  15
ENDBRANCH   1  13
TORSDOF 4
ENDMDL
MODEL 3
REMARK VINA RESULT:      -6.2      2.704      5.644
REMARK  Name = 
REMARK  7 active torsions:
REMARK  status: ('A' for Active; 'I' for Inactive)
REMARK    1  A    between atoms: C_1  and  C_2
REMARK    2  A    between atoms: C_2  and  C_3
REMARK    3  A    between atoms: C_2  and  C_4
REMARK    4  A    between atoms: C_2  and  C_13
REMARK    5  A    between atoms: N_6  and  C_7
REMARK    6  A    between atoms: C_9  and  C_10
REMARK    7  A    between atoms: C_9  and  O_11
REMARK                            x       y       z     vdW  Elec       q    Type
REMARK                         _______ _______ _______ _____ _____    ______ ____
ROOT
ATOM      1  C   UNL     1       2.763   4.101  18.565  0.00  0.00    +0.000 C 
ATOM      2  O   UNL     1       2.131   4.863  17.833  0.00  0.00    +0.000 OA
ATOM      3  N   UNL     1       4.139   4.010  18.487  0.00  0.00    +0.000 N 
ATOM      4  H   UNL     1       4.636   3.513  19.227  0.00  0.00    +0.000 HD
ENDROOT
BRANCH   3   5
ATOM      5  C   UNL     1       4.914   4.851  17.542  0.00  0.00    +0.000 C 
ATOM      6  C   UNL     1       5.227   6.259  18.088  0.00  0.00    +0.000 C 
ATOM      7  C   UNL     1       6.658   5.779  18.440  0.00  0.00    +0.000 C 
ATOM      8  C   UNL     1       7.751   6.746  18.006  0.00  0.00    +0.000 C 
ATOM      9  C   UNL     1       6.429   4.568  17.499  0.00  0.00    +0.000 C 
BRANCH   7  10
ATOM     10  O   UNL     1       6.861   5.413  19.824  0.00  0.00    +0.000 OA
ATOM     11  H   UNL     1       7.502   6.058  20.171  0.00  0.00    +0.000 HD
ENDBRANCH   7  10
ENDBRANCH   3   5
BRANCH   1  13
ATOM     12  C   UNL     1       3.102   2.737  20.646  0.00  0.00    +0.000 C 
ATOM     13  C   UNL     1       2.070   3.225  19.612  0.00  0.00    +0.000 C 
ATOM     14  C   UNL     1       0.978   4.015  20.347  0.00  0.00    +0.000 C 
BRANCH  13  15
ATOM     15  C   UNL     1       1.484   2.019  18.893  0.00  0.00    +0.000 C 
ATOM     16  F   UNL     1       0.178   2.240  18.593  0.00  0.00    +0.000 F 
ATOM     17  F   UNL     1       2.112   1.831  17.702  0.00  0.00    +0.000 F 
ENDBRANCH  13  15
ENDBRANCH   1  13
TORSDOF 4
ENDMDL
MODEL 4
REMARK VINA RESULT:      -6.2      1.055      1.294
REMARK  Name = 
REMARK  7 active torsions:
REMARK  status: ('A' for Active; 'I' for Inactive)
REMARK    1  A    between atoms: C_1  and  C_2
REMARK    2  A    between atoms: C_2  and  C_3
REMARK    3  A    between atoms: C_2  and  C_4
REMARK    4  A    between atoms: C_2  and  C_13
REMARK    5  A    between atoms: N_6  and  C_7
REMARK    6  A    between atoms: C_9  and  C_10
REMARK    7  A    between atoms: C_9  and  O_11
REMARK                            x       y       z     vdW  Elec       q    Type
REMARK                         _______ _______ _______ _____ _____    ______ ____
ROOT
ATOM      1  C   UNL     1       5.728   5.261  18.498  0.00  0.00    +0.000 C 
ATOM      2  O   UNL     1       6.164   5.503  19.624  0.00  0.00    +0.000 OA
ATOM      3  N   UNL     1       4.615   4.463  18.318  0.00  0.00    +0.000 N 
ATOM      4  H   UNL     1       4.179   4.439  17.395  0.00  0.00    +0.000 HD
ENDROOT
BRANCH   3   5
ATOM      5  C   UNL     1       3.880   3.892  19.473  0.00  0.00    +0.000 C 
ATOM      6  C   UNL     1       2.547   4.610  19.769  0.00  0.00    +0.000 C 
ATOM      7  C   UNL     1       1.796   3.462  19.047  0.00  0.00    +0.000 C 
ATOM      8  C   UNL     1       0.588   2.945  19.815  0.00  0.00    +0.000 C 
ATOM      9  C   UNL     1       3.083   2.606  19.177  0.00  0.00    +0.000 C 
BRANCH   7  10
ATOM     10  O   UNL     1       1.415   3.739  17.680  0.00  0.00    +0.000 OA
ATOM     11  H   UNL     1       2.215   3.575  17.150  0.00  0.00    +0.000 HD
ENDBRANCH   7  10
ENDBRANCH   3   5
BRANCH   1  13
ATOM     12  C   UNL     1       5.298   6.494  16.353  0.00  0.00    +0.000 C 
ATOM     13  C   UNL     1       6.376   5.840  17.239  0.00  0.00    +0.000 C 
ATOM     14  C   UNL     1       7.421   6.903  17.602  0.00  0.00    +0.000 C 
BRANCH  13  15
ATOM     15  C   UNL     1       7.010   4.688  16.472  0.00  0.00    +0.000 C 
ATOM     16  F   UNL     1       7.499   5.127  15.283  0.00  0.00    +0.000 F 
ATOM     17  F   UNL     1       8.079   4.201  17.156  0.00  0.00    +0.000 F 
ENDBRANCH  13  15
ENDBRANCH   1  13
TORSDOF 4
ENDMDL
MODEL 5
REMARK VINA RESULT:      -6.1      3.018      5.582
REMARK  Name = 
REMARK  7 active torsions:
REMARK  status: ('A' for Active; 'I' for Inactive)
REMARK    1  A    between atoms: C_1  and  C_2
REMARK    2  A    between atoms: C_2  and  C_3
REMARK    3  A    between atoms: C_2  and  C_4
REMARK    4  A    between atoms: C_2  and  C_13
REMARK    5  A    between atoms: N_6  and  C_7
REMARK    6  A    between atoms: C_9  and  C_10
REMARK    7  A    between atoms: C_9  and  O_11
REMARK                            x       y       z     vdW  Elec       q    Type
REMARK                         _______ _______ _______ _____ _____    ______ ____
ROOT
ATOM      1  C   UNL     1       3.238   3.261  20.069  0.00  0.00    +0.000 C 
ATOM      2  O   UNL     1       3.889   2.296  20.471  0.00  0.00    +0.000 OA
ATOM      3  N   UNL     1       3.818   4.237  19.282  0.00  0.00    +0.000 N 
ATOM      4  H   UNL     1       3.208   4.914  18.820  0.00  0.00    +0.000 HD
ENDROOT
BRANCH   3   5
ATOM      5  C   UNL     1       5.237   4.144  18.859  0.00  0.00    +0.000 C 
ATOM      6  C   UNL     1       5.447   4.402  17.353  0.00  0.00    +0.000 C 
ATOM      7  C   UNL     1       5.904   5.844  17.688  0.00  0.00    +0.000 C 
ATOM      8  C   UNL     1       7.175   6.267  16.964  0.00  0.00    +0.000 C 
ATOM      9  C   UNL     1       6.096   5.389  19.158  0.00  0.00    +0.000 C 
BRANCH   7  10
ATOM     10  O   UNL     1       4.893   6.866  17.520  0.00  0.00    +0.000 OA
ATOM     11  H   UNL     1       4.936   7.407  18.328  0.00  0.00    +0.000 HD
ENDBRANCH   7  10
ENDBRANCH   3   5
BRANCH   1  13
ATOM     12  C   UNL     1       1.419   2.660  21.692  0.00  0.00    +0.000 C 
ATOM     13  C   UNL     1       1.754   3.431  20.401  0.00  0.00    +0.000 C 
ATOM     14  C   UNL     1       1.408   4.911  20.611  0.00  0.00    +0.000 C 
BRANCH  13  15
ATOM     15  C   UNL     1       0.951   2.838  19.252  0.00  0.00    +0.000 C 
ATOM     16  F   UNL     1       1.040   3.636  18.156  0.00  0.00    +0.000 F 
ATOM     17  F   UNL     1       1.476   1.639  18.882  0.00  0.00    +0.000 F 
ENDBRANCH  13  15
ENDBRANCH   1  13
TORSDOF 4
ENDMDL
MODEL 6
REMARK VINA RESULT:      -6.1      1.055      1.245
REMARK  Name = 
REMARK  7 active torsions:
REMARK  status: ('A' for Active; 'I' for Inactive)
REMARK    1  A    between atoms: C_1  and  C_2
REMARK    2  A    between atoms: C_2  and  C_3
REMARK    3  A    between atoms: C_2  and  C_4
REMARK    4  A    between atoms: C_2  and  C_13
REMARK    5  A    between atoms: N_6  and  C_7
REMARK    6  A    between atoms: C_9  and  C_10
REMARK    7  A    between atoms: C_9  and  O_11
REMARK                            x       y       z     vdW  Elec       q    Type
REMARK                         _______ _______ _______ _____ _____    ______ ____
ROOT
ATOM      1  C   UNL     1       5.680   5.433  18.290  0.00  0.00    +0.000 C 
ATOM      2  O   UNL     1       6.178   5.308  19.409  0.00  0.00    +0.000 OA
ATOM      3  N   UNL     1       4.350   5.139  18.062  0.00  0.00    +0.000 N 
ATOM      4  H   UNL     1       3.933   5.429  17.175  0.00  0.00    +0.000 HD
ENDROOT
BRANCH   3   5
ATOM      5  C   UNL     1       3.458   4.696  19.161  0.00  0.00    +0.000 C 
ATOM      6  C   UNL     1       1.959   4.795  18.815  0.00  0.00    +0.000 C 
ATOM      7  C   UNL     1       1.947   3.272  18.530  0.00  0.00    +0.000 C 
ATOM      8  C   UNL     1       0.774   2.540  19.166  0.00  0.00    +0.000 C 
ATOM      9  C   UNL     1       3.291   3.169  19.298  0.00  0.00    +0.000 C 
BRANCH   7  10
ATOM     10  O   UNL     1       2.043   2.906  17.134  0.00  0.00    +0.000 OA
ATOM     11  H   UNL     1       2.668   2.161  17.105  0.00  0.00    +0.000 HD
ENDBRANCH   7  10
ENDBRANCH   3   5
BRANCH   1  13
ATOM     12  C   UNL     1       5.542   6.437  15.993  0.00  0.00    +0.000 C 
ATOM     13  C   UNL     1       6.494   5.933  17.094  0.00  0.00    +0.000 C 
ATOM     14  C   UNL     1       7.418   7.086  17.508  0.00  0.00    +0.000 C 
BRANCH  13  15
ATOM     15  C   UNL     1       7.294   4.757  16.553  0.00  0.00    +0.000 C 
ATOM     16  F   UNL     1       8.098   4.250  17.523  0.00  0.00    +0.000 F 
ATOM     17  F   UNL     1       6.459   3.745  16.196  0.00  0.00    +0.000 F 
ENDBRANCH  13  15
ENDBRANCH   1  13
TORSDOF 4
ENDMDL
MODEL 7
REMARK VINA RESULT:      -6.1      0.941      1.538
REMARK  Name = 
REMARK  7 active torsions:
REMARK  status: ('A' for Active; 'I' for Inactive)
REMARK    1  A    between atoms: C_1  and  C_2
REMARK    2  A    between atoms: C_2  and  C_3
REMARK    3  A    between atoms: C_2  and  C_4
REMARK    4  A    between atoms: C_2  and  C_13
REMARK    5  A    between atoms: N_6  and  C_7
REMARK    6  A    between atoms: C_9  and  C_10
REMARK    7  A    between atoms: C_9  and  O_11
REMARK                            x       y       z     vdW  Elec       q    Type
REMARK                         _______ _______ _______ _____ _____    ______ ____
ROOT
ATOM      1  C   UNL     1       5.737   4.490  18.016  0.00  0.00    +0.000 C 
ATOM      2  O   UNL     1       6.128   4.554  19.182  0.00  0.00    +0.000 OA
ATOM      3  N   UNL     1       4.683   3.672  17.658  0.00  0.00    +0.000 N 
ATOM      4  H   UNL     1       4.273   3.786  16.730  0.00  0.00    +0.000 HD
ENDROOT
BRANCH   3   5
ATOM      5  C   UNL     1       3.957   2.864  18.668  0.00  0.00    +0.000 C 
ATOM      6  C   UNL     1       2.846   3.646  19.398  0.00  0.00    +0.000 C 
ATOM      7  C   UNL     1       1.799   2.973  18.475  0.00  0.00    +0.000 C 
ATOM      8  C   UNL     1       0.587   2.430  19.220  0.00  0.00    +0.000 C 
ATOM      9  C   UNL     1       2.876   1.921  18.103  0.00  0.00    +0.000 C 
BRANCH   7  10
ATOM     10  O   UNL     1       1.357   3.776  17.357  0.00  0.00    +0.000 OA
ATOM     11  H   UNL     1       0.715   4.406  17.729  0.00  0.00    +0.000 HD
ENDBRANCH   7  10
ENDBRANCH   3   5
BRANCH   1  13
ATOM     12  C   UNL     1       7.191   6.475  17.517  0.00  0.00    +0.000 C 
ATOM     13  C   UNL     1       6.379   5.320  16.902  0.00  0.00    +0.000 C 
ATOM     14  C   UNL     1       7.321   4.457  16.053  0.00  0.00    +0.000 C 
BRANCH  13  15
ATOM     15  C   UNL     1       5.258   5.904  16.054  0.00  0.00    +0.000 C 
ATOM     16  F   UNL     1       5.108   7.228  16.320  0.00  0.00    +0.000 F 
ATOM     17  F   UNL     1       5.576   5.823  14.735  0.00  0.00    +0.000 F 
ENDBRANCH  13  15
ENDBRANCH   1  13
TORSDOF 4
ENDMDL
MODEL 8
REMARK VINA RESULT:      -6.1      1.719      2.199
REMARK  Name = 
REMARK  7 active torsions:
REMARK  status: ('A' for Active; 'I' for Inactive)
REMARK    1  A    between atoms: C_1  and  C_2
REMARK    2  A    between atoms: C_2  and  C_3
REMARK    3  A    between atoms: C_2  and  C_4
REMARK    4  A    between atoms: C_2  and  C_13
REMARK    5  A    between atoms: N_6  and  C_7
REMARK    6  A    between atoms: C_9  and  C_10
REMARK    7  A    between atoms: C_9  and  O_11
REMARK                            x       y       z     vdW  Elec       q    Type
REMARK                         _______ _______ _______ _____ _____    ______ ____
ROOT
ATOM      1  C   UNL     1       5.216   5.925  17.789  0.00  0.00    +0.000 C 
ATOM      2  O   UNL     1       4.669   6.971  17.436  0.00  0.00    +0.000 OA
ATOM      3  N   UNL     1       4.479   4.787  18.056  0.00  0.00    +0.000 N 
ATOM      4  H   UNL     1       4.975   3.901  18.163  0.00  0.00    +0.000 HD
ENDROOT
BRANCH   3   5
ATOM      5  C   UNL     1       3.004   4.769  17.897  0.00  0.00    +0.000 C 
ATOM      6  C   UNL     1       2.463   3.441  17.330  0.00  0.00    +0.000 C 
ATOM      7  C   UNL     1       2.061   3.019  18.765  0.00  0.00    +0.000 C 
ATOM      8  C   UNL     1       0.654   2.446  18.862  0.00  0.00    +0.000 C 
ATOM      9  C   UNL     1       2.205   4.503  19.189  0.00  0.00    +0.000 C 
BRANCH   7  10
ATOM     10  O   UNL     1       2.989   2.129  19.429  0.00  0.00    +0.000 OA
ATOM     11  H   UNL     1       3.158   2.534  20.298  0.00  0.00    +0.000 HD
ENDBRANCH   7  10
ENDBRANCH   3   5
BRANCH   1  13
ATOM     12  C   UNL     1       7.402   7.095  17.396  0.00  0.00    +0.000 C 
ATOM     13  C   UNL     1       6.735   5.815  17.935  0.00  0.00    +0.000 C 
ATOM     14  C   UNL     1       7.130   5.640  19.407  0.00  0.00    +0.000 C 
BRANCH  13  15
ATOM     15  C   UNL     1       7.197   4.630  17.099  0.00  0.00    +0.000 C 
ATOM     16  F   UNL     1       7.494   5.033  15.836  0.00  0.00    +0.000 F 
ATOM     17  F   UNL     1       8.350   4.119  17.606  0.00  0.00    +0.000 F 
ENDBRANCH  13  15
ENDBRANCH   1  13
TORSDOF 4
ENDMDL
MODEL 9
REMARK VINA RESULT:      -6.1      1.647      2.079
REMARK  Name = 
REMARK  7 active torsions:
REMARK  status: ('A' for Active; 'I' for Inactive)
REMARK    1  A    between atoms: C_1  and  C_2
REMARK    2  A    between atoms: C_2  and  C_3
REMARK    3  A    between atoms: C_2  and  C_4
REMARK    4  A    between atoms: C_2  and  C_13
REMARK    5  A    between atoms: N_6  and  C_7
REMARK    6  A    between atoms: C_9  and  C_10
REMARK    7  A    between atoms: C_9  and  O_11
REMARK                            x       y       z     vdW  Elec       q    Type
REMARK                         _______ _______ _______ _____ _____    ______ ____
ROOT
ATOM      1  C   UNL     1       5.683   5.000  18.383  0.00  0.00    +0.000 C 
ATOM      2  O   UNL     1       6.283   4.281  19.184  0.00  0.00    +0.000 OA
ATOM      3  N   UNL     1       4.313   5.162  18.454  0.00  0.00    +0.000 N 
ATOM      4  H   UNL     1       3.882   5.902  17.897  0.00  0.00    +0.000 HD
ENDROOT
BRANCH   3   5
ATOM      5  C   UNL     1       3.513   4.507  19.518  0.00  0.00    +0.000 C 
ATOM      6  C   UNL     1       2.017   4.878  19.478  0.00  0.00    +0.000 C 
ATOM      7  C   UNL     1       1.724   3.528  18.776  0.00  0.00    +0.000 C 
ATOM      8  C   UNL     1       0.542   2.774  19.368  0.00  0.00    +0.000 C 
ATOM      9  C   UNL     1       3.122   3.042  19.239  0.00  0.00    +0.000 C 
BRANCH   7  10
ATOM     10  O   UNL     1       1.578   3.600  17.339  0.00  0.00    +0.000 OA
ATOM     11  H   UNL     1       1.658   2.683  17.024  0.00  0.00    +0.000 HD
ENDBRANCH   7  10
ENDBRANCH   3   5
BRANCH   1  13
ATOM     12  C   UNL     1       7.337   4.805  16.505  0.00  0.00    +0.000 C 
ATOM     13  C   UNL     1       6.414   5.765  17.278  0.00  0.00    +0.000 C 
ATOM     14  C   UNL     1       5.416   6.386  16.292  0.00  0.00    +0.000 C 
BRANCH  13  15
ATOM     15  C   UNL     1       7.266   6.838  17.943  0.00  0.00    +0.000 C 
ATOM     16  F   UNL     1       8.244   6.265  18.691  0.00  0.00    +0.000 F 
ATOM     17  F   UNL     1       7.905   7.580  17.001  0.00  0.00    +0.000 F 
ENDBRANCH  13  15
ENDBRANCH   1  13
TORSDOF 4
ENDMDL
