MODEL 1
REMARK VINA RESULT:      -6.5      0.000      0.000
REMARK  Name = 
REMARK  8 active torsions:
REMARK  status: ('A' for Active; 'I' for Inactive)
REMARK    1  A    between atoms: C_1  and  C_2
REMARK    2  A    between atoms: C_6  and  C_7
REMARK    3  A    between atoms: N_9  and  N_10
REMARK    4  A    between atoms: C_11  and  S_12
REMARK    5  A    between atoms: N_13  and  C_14
REMARK    6  A    between atoms: C_14  and  C_15
REMARK    7  A    between atoms: C_15  and  C_16
REMARK    8  A    between atoms: C_15  and  C_17
REMARK                            x       y       z     vdW  Elec       q    Type
REMARK                         _______ _______ _______ _____ _____    ______ ____
ROOT
ATOM      1  C   UNL     1       2.975   3.229  17.965  0.00  0.00    +0.000 C 
ATOM      2  O   UNL     1       2.301   3.183  16.934  0.00  0.00    +0.000 OA
ATOM      3  N   UNL     1       4.360   3.206  17.927  0.00  0.00    +0.000 N 
ATOM      4  H   UNL     1       4.972   3.306  18.732  0.00  0.00    +0.000 HD
ENDROOT
BRANCH   1  10
ATOM      5  C   UNL     1       2.638   5.869  19.885  0.00  0.00    +0.000 C 
ATOM      6  C   UNL     1       2.275   4.445  20.075  0.00  0.00    +0.000 A 
ATOM      7  O   UNL     1       1.674   4.158  21.264  0.00  0.00    +0.000 OA
ATOM      8  C   UNL     1       1.412   2.830  21.274  0.00  0.00    +0.000 A 
ATOM      9  C   UNL     1       1.839   2.252  20.105  0.00  0.00    +0.000 A 
ATOM     10  C   UNL     1       2.402   3.293  19.302  0.00  0.00    +0.000 A 
ENDBRANCH   1  10
BRANCH   3  11
ATOM     11  N   UNL     1       5.004   3.078  16.686  0.00  0.00    +0.000 N 
ATOM     12  C   UNL     1       5.747   4.162  16.267  0.00  0.00    +0.000 C 
ATOM     13  N   UNL     1       6.043   5.157  17.038  0.00  0.00    +0.000 NA
ATOM     14  H   UNL     1       4.432   2.614  15.979  0.00  0.00    +0.000 HD
BRANCH  12  15
ATOM     15  S   UNL     1       6.262   4.027  14.589  0.00  0.00    +0.000 S 
ATOM     16  H   UNL     1       7.235   3.131  14.785  0.00  0.00    +0.000 HD
ENDBRANCH  12  15
BRANCH  13  17
ATOM     17  C   UNL     1       6.848   6.269  16.517  0.00  0.00    +0.000 C 
BRANCH  17  18
ATOM     18  C   UNL     1       7.810   6.798  17.597  0.00  0.00    +0.000 C 
ATOM     19  C   UNL     1       7.696   8.313  17.769  0.00  0.00    +0.000 C 
ATOM     20  C   UNL     1       7.620   6.081  18.933  0.00  0.00    +0.000 C 
ENDBRANCH  17  18
ENDBRANCH  13  17
ENDBRANCH   3  11
TORSDOF 5
ENDMDL
MODEL 2
REMARK VINA RESULT:      -6.5      1.071      1.431
REMARK  Name = 
REMARK  8 active torsions:
REMARK  status: ('A' for Active; 'I' for Inactive)
REMARK    1  A    between atoms: C_1  and  C_2
REMARK    2  A    between atoms: C_6  and  C_7
REMARK    3  A    between atoms: N_9  and  N_10
REMARK    4  A    between atoms: C_11  and  S_12
REMARK    5  A    between atoms: N_13  and  C_14
REMARK    6  A    between atoms: C_14  and  C_15
REMARK    7  A    between atoms: C_15  and  C_16
REMARK    8  A    between atoms: C_15  and  C_17
REMARK                            x       y       z     vdW  Elec       q    Type
REMARK                         _______ _______ _______ _____ _____    ______ ____
ROOT
ATOM      1  C   UNL     1       2.991   3.044  18.235  0.00  0.00    +0.000 C 
ATOM      2  O   UNL     1       2.270   2.941  17.241  0.00  0.00    +0.000 OA
ATOM      3  N   UNL     1       4.351   3.282  18.123  0.00  0.00    +0.000 N 
ATOM      4  H   UNL     1       4.986   3.442  18.899  0.00  0.00    +0.000 HD
ENDROOT
BRANCH   1  10
ATOM      5  C   UNL     1       4.597   1.852  20.837  0.00  0.00    +0.000 C 
ATOM      6  C   UNL     1       3.232   2.404  20.675  0.00  0.00    +0.000 A 
ATOM      7  O   UNL     1       2.487   2.444  21.817  0.00  0.00    +0.000 OA
ATOM      8  C   UNL     1       1.283   2.969  21.495  0.00  0.00    +0.000 A 
ATOM      9  C   UNL     1       1.236   3.268  20.156  0.00  0.00    +0.000 A 
ATOM     10  C   UNL     1       2.504   2.912  19.601  0.00  0.00    +0.000 A 
ENDBRANCH   1  10
BRANCH   3  11
ATOM     11  N   UNL     1       4.924   3.358  16.843  0.00  0.00    +0.000 N 
ATOM     12  C   UNL     1       5.449   4.581  16.479  0.00  0.00    +0.000 C 
ATOM     13  N   UNL     1       5.628   5.551  17.315  0.00  0.00    +0.000 NA
ATOM     14  H   UNL     1       4.391   2.859  16.130  0.00  0.00    +0.000 HD
BRANCH  12  15
ATOM     15  S   UNL     1       5.868   4.661  14.771  0.00  0.00    +0.000 S 
ATOM     16  H   UNL     1       4.906   5.514  14.403  0.00  0.00    +0.000 HD
ENDBRANCH  12  15
BRANCH  13  17
ATOM     17  C   UNL     1       6.203   6.819  16.849  0.00  0.00    +0.000 C 
BRANCH  17  18
ATOM     18  C   UNL     1       7.591   7.050  17.473  0.00  0.00    +0.000 C 
ATOM     19  C   UNL     1       7.863   8.533  17.726  0.00  0.00    +0.000 C 
ATOM     20  C   UNL     1       7.787   6.234  18.751  0.00  0.00    +0.000 C 
ENDBRANCH  17  18
ENDBRANCH  13  17
ENDBRANCH   3  11
TORSDOF 5
ENDMDL
MODEL 3
REMARK VINA RESULT:      -6.3      1.284      1.433
REMARK  Name = 
REMARK  8 active torsions:
REMARK  status: ('A' for Active; 'I' for Inactive)
REMARK    1  A    between atoms: C_1  and  C_2
REMARK    2  A    between atoms: C_6  and  C_7
REMARK    3  A    between atoms: N_9  and  N_10
REMARK    4  A    between atoms: C_11  and  S_12
REMARK    5  A    between atoms: N_13  and  C_14
REMARK    6  A    between atoms: C_14  and  C_15
REMARK    7  A    between atoms: C_15  and  C_16
REMARK    8  A    between atoms: C_15  and  C_17
REMARK                            x       y       z     vdW  Elec       q    Type
REMARK                         _______ _______ _______ _____ _____    ______ ____
ROOT
ATOM      1  C   UNL     1       3.595   2.368  18.445  0.00  0.00    +0.000 C 
ATOM      2  O   UNL     1       3.687   1.282  17.870  0.00  0.00    +0.000 OA
ATOM      3  N   UNL     1       4.264   3.491  17.985  0.00  0.00    +0.000 N 
ATOM      4  H   UNL     1       4.180   4.426  18.372  0.00  0.00    +0.000 HD
ENDROOT
BRANCH   1  10
ATOM      5  C   UNL     1       0.363   2.886  18.669  0.00  0.00    +0.000 C 
ATOM      6  C   UNL     1       1.430   2.789  19.692  0.00  0.00    +0.000 A 
ATOM      7  O   UNL     1       1.007   2.926  20.981  0.00  0.00    +0.000 OA
ATOM      8  C   UNL     1       2.095   2.812  21.777  0.00  0.00    +0.000 A 
ATOM      9  C   UNL     1       3.220   2.604  21.019  0.00  0.00    +0.000 A 
ATOM     10  C   UNL     1       2.806   2.579  19.651  0.00  0.00    +0.000 A 
ENDBRANCH   1  10
BRANCH   3  11
ATOM     11  N   UNL     1       5.104   3.370  16.865  0.00  0.00    +0.000 N 
ATOM     12  C   UNL     1       5.748   4.520  16.458  0.00  0.00    +0.000 C 
ATOM     13  N   UNL     1       5.784   5.601  17.167  0.00  0.00    +0.000 NA
ATOM     14  H   UNL     1       4.717   2.777  16.131  0.00  0.00    +0.000 HD
BRANCH  12  15
ATOM     15  S   UNL     1       6.531   4.342  14.890  0.00  0.00    +0.000 S 
ATOM     16  H   UNL     1       7.327   5.413  14.979  0.00  0.00    +0.000 HD
ENDBRANCH  12  15
BRANCH  13  17
ATOM     17  C   UNL     1       6.502   6.779  16.665  0.00  0.00    +0.000 C 
BRANCH  17  18
ATOM     18  C   UNL     1       7.734   7.079  17.537  0.00  0.00    +0.000 C 
ATOM     19  C   UNL     1       7.882   8.573  17.822  0.00  0.00    +0.000 C 
ATOM     20  C   UNL     1       7.726   6.274  18.836  0.00  0.00    +0.000 C 
ENDBRANCH  17  18
ENDBRANCH  13  17
ENDBRANCH   3  11
TORSDOF 5
ENDMDL
MODEL 4
REMARK VINA RESULT:      -6.3      2.990      5.776
REMARK  Name = 
REMARK  8 active torsions:
REMARK  status: ('A' for Active; 'I' for Inactive)
REMARK    1  A    between atoms: C_1  and  C_2
REMARK    2  A    between atoms: C_6  and  C_7
REMARK    3  A    between atoms: N_9  and  N_10
REMARK    4  A    between atoms: C_11  and  S_12
REMARK    5  A    between atoms: N_13  and  C_14
REMARK    6  A    between atoms: C_14  and  C_15
REMARK    7  A    between atoms: C_15  and  C_16
REMARK    8  A    between atoms: C_15  and  C_17
REMARK                            x       y       z     vdW  Elec       q    Type
REMARK                         _______ _______ _______ _____ _____    ______ ____
ROOT
ATOM      1  C   UNL     1       5.657   4.065  18.049  0.00  0.00    +0.000 C 
ATOM      2  O   UNL     1       6.176   4.193  19.160  0.00  0.00    +0.000 OA
ATOM      3  N   UNL     1       4.444   3.416  17.886  0.00  0.00    +0.000 N 
ATOM      4  H   UNL     1       3.934   3.334  17.012  0.00  0.00    +0.000 HD
ENDROOT
BRANCH   1  10
ATOM      5  C   UNL     1       7.369   6.829  17.609  0.00  0.00    +0.000 C 
ATOM      6  C   UNL     1       6.983   5.738  16.684  0.00  0.00    +0.000 A 
ATOM      7  O   UNL     1       7.424   5.885  15.403  0.00  0.00    +0.000 OA
ATOM      8  C   UNL     1       6.989   4.814  14.701  0.00  0.00    +0.000 A 
ATOM      9  C   UNL     1       6.268   3.973  15.512  0.00  0.00    +0.000 A 
ATOM     10  C   UNL     1       6.258   4.556  16.817  0.00  0.00    +0.000 A 
ENDBRANCH   1  10
BRANCH   3  11
ATOM     11  N   UNL     1       3.820   2.849  19.010  0.00  0.00    +0.000 N 
ATOM     12  C   UNL     1       3.012   3.688  19.749  0.00  0.00    +0.000 C 
ATOM     13  N   UNL     1       2.645   4.859  19.341  0.00  0.00    +0.000 NA
ATOM     14  H   UNL     1       4.427   2.218  19.534  0.00  0.00    +0.000 HD
BRANCH  12  15
ATOM     15  S   UNL     1       2.521   2.980  21.285  0.00  0.00    +0.000 S 
ATOM     16  H   UNL     1       1.888   1.914  20.782  0.00  0.00    +0.000 HD
ENDBRANCH  12  15
BRANCH  13  17
ATOM     17  C   UNL     1       1.774   5.686  20.184  0.00  0.00    +0.000 C 
BRANCH  17  18
ATOM     18  C   UNL     1       2.199   7.164  20.122  0.00  0.00    +0.000 C 
ATOM     19  C   UNL     1       2.327   7.661  18.682  0.00  0.00    +0.000 C 
ATOM     20  C   UNL     1       1.262   8.063  20.928  0.00  0.00    +0.000 C 
ENDBRANCH  17  18
ENDBRANCH  13  17
ENDBRANCH   3  11
TORSDOF 5
ENDMDL
MODEL 5
REMARK VINA RESULT:      -6.2      3.250      5.855
REMARK  Name = 
REMARK  8 active torsions:
REMARK  status: ('A' for Active; 'I' for Inactive)
REMARK    1  A    between atoms: C_1  and  C_2
REMARK    2  A    between atoms: C_6  and  C_7
REMARK    3  A    between atoms: N_9  and  N_10
REMARK    4  A    between atoms: C_11  and  S_12
REMARK    5  A    between atoms: N_13  and  C_14
REMARK    6  A    between atoms: C_14  and  C_15
REMARK    7  A    between atoms: C_15  and  C_16
REMARK    8  A    between atoms: C_15  and  C_17
REMARK                            x       y       z     vdW  Elec       q    Type
REMARK                         _______ _______ _______ _____ _____    ______ ____
ROOT
ATOM      1  C   UNL     1       5.203   4.282  17.744  0.00  0.00    +0.000 C 
ATOM      2  O   UNL     1       5.692   3.932  18.820  0.00  0.00    +0.000 OA
ATOM      3  N   UNL     1       3.832   4.350  17.558  0.00  0.00    +0.000 N 
ATOM      4  H   UNL     1       3.367   4.691  16.722  0.00  0.00    +0.000 HD
ENDROOT
BRANCH   1  10
ATOM      5  C   UNL     1       7.342   6.751  17.437  0.00  0.00    +0.000 C 
ATOM      6  C   UNL     1       6.898   5.695  16.498  0.00  0.00    +0.000 A 
ATOM      7  O   UNL     1       7.488   5.731  15.270  0.00  0.00    +0.000 OA
ATOM      8  C   UNL     1       6.975   4.709  14.546  0.00  0.00    +0.000 A 
ATOM      9  C   UNL     1       6.057   4.012  15.290  0.00  0.00    +0.000 A 
ATOM     10  C   UNL     1       5.996   4.637  16.575  0.00  0.00    +0.000 A 
ENDBRANCH   1  10
BRANCH   3  11
ATOM     11  N   UNL     1       2.984   3.962  18.609  0.00  0.00    +0.000 N 
ATOM     12  C   UNL     1       2.480   4.978  19.395  0.00  0.00    +0.000 C 
ATOM     13  N   UNL     1       2.572   6.229  19.080  0.00  0.00    +0.000 NA
ATOM     14  H   UNL     1       3.298   3.121  19.094  0.00  0.00    +0.000 HD
BRANCH  12  15
ATOM     15  S   UNL     1       1.683   4.382  20.847  0.00  0.00    +0.000 S 
ATOM     16  H   UNL     1       2.646   3.539  21.233  0.00  0.00    +0.000 HD
ENDBRANCH  12  15
BRANCH  13  17
ATOM     17  C   UNL     1       2.000   7.248  19.967  0.00  0.00    +0.000 C 
BRANCH  17  18
ATOM     18  C   UNL     1       1.955   8.618  19.266  0.00  0.00    +0.000 C 
ATOM     19  C   UNL     1       1.888   8.479  17.745  0.00  0.00    +0.000 C 
ATOM     20  C   UNL     1       0.811   9.489  19.784  0.00  0.00    +0.000 C 
ENDBRANCH  17  18
ENDBRANCH  13  17
ENDBRANCH   3  11
TORSDOF 5
ENDMDL
MODEL 6
REMARK VINA RESULT:      -6.2      3.005      6.226
REMARK  Name = 
REMARK  8 active torsions:
REMARK  status: ('A' for Active; 'I' for Inactive)
REMARK    1  A    between atoms: C_1  and  C_2
REMARK    2  A    between atoms: C_6  and  C_7
REMARK    3  A    between atoms: N_9  and  N_10
REMARK    4  A    between atoms: C_11  and  S_12
REMARK    5  A    between atoms: N_13  and  C_14
REMARK    6  A    between atoms: C_14  and  C_15
REMARK    7  A    between atoms: C_15  and  C_16
REMARK    8  A    between atoms: C_15  and  C_17
REMARK                            x       y       z     vdW  Elec       q    Type
REMARK                         _______ _______ _______ _____ _____    ______ ____
ROOT
ATOM      1  C   UNL     1       7.145   5.070  18.305  0.00  0.00    +0.000 C 
ATOM      2  O   UNL     1       8.043   4.236  18.170  0.00  0.00    +0.000 OA
ATOM      3  N   UNL     1       5.890   4.714  18.771  0.00  0.00    +0.000 N 
ATOM      4  H   UNL     1       5.130   5.360  18.966  0.00  0.00    +0.000 HD
ENDROOT
BRANCH   1  10
ATOM      5  C   UNL     1       5.329   6.873  16.250  0.00  0.00    +0.000 C 
ATOM      6  C   UNL     1       6.495   7.204  17.103  0.00  0.00    +0.000 A 
ATOM      7  O   UNL     1       6.898   8.505  17.048  0.00  0.00    +0.000 OA
ATOM      8  C   UNL     1       7.960   8.633  17.877  0.00  0.00    +0.000 A 
ATOM      9  C   UNL     1       8.251   7.430  18.468  0.00  0.00    +0.000 A 
ATOM     10  C   UNL     1       7.299   6.481  17.981  0.00  0.00    +0.000 A 
ENDBRANCH   1  10
BRANCH   3  11
ATOM     11  N   UNL     1       5.625   3.363  19.047  0.00  0.00    +0.000 N 
ATOM     12  C   UNL     1       4.296   3.010  19.154  0.00  0.00    +0.000 C 
ATOM     13  N   UNL     1       3.325   3.790  18.805  0.00  0.00    +0.000 NA
ATOM     14  H   UNL     1       6.263   2.957  19.732  0.00  0.00    +0.000 HD
BRANCH  12  15
ATOM     15  S   UNL     1       4.072   1.383  19.791  0.00  0.00    +0.000 S 
ATOM     16  H   UNL     1       4.983   0.777  19.021  0.00  0.00    +0.000 HD
ENDBRANCH  12  15
BRANCH  13  17
ATOM     17  C   UNL     1       1.937   3.334  18.941  0.00  0.00    +0.000 C 
BRANCH  17  18
ATOM     18  C   UNL     1       1.276   3.961  20.181  0.00  0.00    +0.000 C 
ATOM     19  C   UNL     1       1.304   3.016  21.383  0.00  0.00    +0.000 C 
ATOM     20  C   UNL     1       1.894   5.314  20.537  0.00  0.00    +0.000 C 
ENDBRANCH  17  18
ENDBRANCH  13  17
ENDBRANCH   3  11
TORSDOF 5
ENDMDL
MODEL 7
REMARK VINA RESULT:      -6.1      2.191      3.151
REMARK  Name = 
REMARK  8 active torsions:
REMARK  status: ('A' for Active; 'I' for Inactive)
REMARK    1  A    between atoms: C_1  and  C_2
REMARK    2  A    between atoms: C_6  and  C_7
REMARK    3  A    between atoms: N_9  and  N_10
REMARK    4  A    between atoms: C_11  and  S_12
REMARK    5  A    between atoms: N_13  and  C_14
REMARK    6  A    between atoms: C_14  and  C_15
REMARK    7  A    between atoms: C_15  and  C_16
REMARK    8  A    between atoms: C_15  and  C_17
REMARK                            x       y       z     vdW  Elec       q    Type
REMARK                         _______ _______ _______ _____ _____    ______ ____
ROOT
ATOM      1  C   UNL     1       3.223   4.961  19.298  0.00  0.00    +0.000 C 
ATOM      2  O   UNL     1       2.975   6.155  19.116  0.00  0.00    +0.000 OA
ATOM      3  N   UNL     1       4.517   4.514  19.511  0.00  0.00    +0.000 N 
ATOM      4  H   UNL     1       4.781   3.559  19.731  0.00  0.00    +0.000 HD
ENDROOT
BRANCH   1  10
ATOM      5  C   UNL     1       2.108   3.226  21.850  0.00  0.00    +0.000 C 
ATOM      6  C   UNL     1       1.765   3.212  20.409  0.00  0.00    +0.000 A 
ATOM      7  O   UNL     1       0.793   2.323  20.056  0.00  0.00    +0.000 OA
ATOM      8  C   UNL     1       0.605   2.439  18.722  0.00  0.00    +0.000 A 
ATOM      9  C   UNL     1       1.446   3.392  18.203  0.00  0.00    +0.000 A 
ATOM     10  C   UNL     1       2.209   3.916  19.292  0.00  0.00    +0.000 A 
ENDBRANCH   1  10
BRANCH   3  11
ATOM     11  N   UNL     1       5.572   5.441  19.467  0.00  0.00    +0.000 N 
ATOM     12  C   UNL     1       6.441   5.329  18.402  0.00  0.00    +0.000 C 
ATOM     13  N   UNL     1       6.206   4.584  17.372  0.00  0.00    +0.000 NA
ATOM     14  H   UNL     1       5.988   5.624  20.381  0.00  0.00    +0.000 HD
BRANCH  12  15
ATOM     15  S   UNL     1       7.882   6.324  18.591  0.00  0.00    +0.000 S 
ATOM     16  H   UNL     1       7.297   7.343  19.231  0.00  0.00    +0.000 HD
ENDBRANCH  12  15
BRANCH  13  17
ATOM     17  C   UNL     1       7.179   4.528  16.274  0.00  0.00    +0.000 C 
BRANCH  17  18
ATOM     18  C   UNL     1       6.553   5.038  14.964  0.00  0.00    +0.000 C 
ATOM     19  C   UNL     1       6.214   3.893  14.009  0.00  0.00    +0.000 C 
ATOM     20  C   UNL     1       5.327   5.916  15.219  0.00  0.00    +0.000 C 
ENDBRANCH  17  18
ENDBRANCH  13  17
ENDBRANCH   3  11
TORSDOF 5
ENDMDL
MODEL 8
REMARK VINA RESULT:      -6.0      2.838      5.512
REMARK  Name = 
REMARK  8 active torsions:
REMARK  status: ('A' for Active; 'I' for Inactive)
REMARK    1  A    between atoms: C_1  and  C_2
REMARK    2  A    between atoms: C_6  and  C_7
REMARK    3  A    between atoms: N_9  and  N_10
REMARK    4  A    between atoms: C_11  and  S_12
REMARK    5  A    between atoms: N_13  and  C_14
REMARK    6  A    between atoms: C_14  and  C_15
REMARK    7  A    between atoms: C_15  and  C_16
REMARK    8  A    between atoms: C_15  and  C_17
REMARK                            x       y       z     vdW  Elec       q    Type
REMARK                         _______ _______ _______ _____ _____    ______ ____
ROOT
ATOM      1  C   UNL     1       4.333   3.630  17.137  0.00  0.00    +0.000 C 
ATOM      2  O   UNL     1       3.213   3.270  16.770  0.00  0.00    +0.000 OA
ATOM      3  N   UNL     1       4.758   3.457  18.444  0.00  0.00    +0.000 N 
ATOM      4  H   UNL     1       5.687   3.670  18.793  0.00  0.00    +0.000 HD
ENDROOT
BRANCH   1  10
ATOM      5  C   UNL     1       5.406   6.729  17.258  0.00  0.00    +0.000 C 
ATOM      6  C   UNL     1       5.728   5.596  16.359  0.00  0.00    +0.000 A 
ATOM      7  O   UNL     1       6.656   5.870  15.398  0.00  0.00    +0.000 OA
ATOM      8  C   UNL     1       6.832   4.742  14.673  0.00  0.00    +0.000 A 
ATOM      9  C   UNL     1       6.027   3.738  15.151  0.00  0.00    +0.000 A 
ATOM     10  C   UNL     1       5.301   4.275  16.260  0.00  0.00    +0.000 A 
ENDBRANCH   1  10
BRANCH   3  11
ATOM     11  N   UNL     1       3.869   2.903  19.380  0.00  0.00    +0.000 N 
ATOM     12  C   UNL     1       3.046   3.792  20.041  0.00  0.00    +0.000 C 
ATOM     13  N   UNL     1       2.910   5.028  19.687  0.00  0.00    +0.000 NA
ATOM     14  H   UNL     1       4.284   2.159  19.941  0.00  0.00    +0.000 HD
BRANCH  12  15
ATOM     15  S   UNL     1       2.191   3.052  21.391  0.00  0.00    +0.000 S 
ATOM     16  H   UNL     1       2.247   4.102  22.218  0.00  0.00    +0.000 HD
ENDBRANCH  12  15
BRANCH  13  17
ATOM     17  C   UNL     1       2.004   5.906  20.438  0.00  0.00    +0.000 C 
BRANCH  17  18
ATOM     18  C   UNL     1       2.215   7.377  20.037  0.00  0.00    +0.000 C 
ATOM     19  C   UNL     1       2.141   7.573  18.523  0.00  0.00    +0.000 C 
ATOM     20  C   UNL     1       1.241   8.311  20.756  0.00  0.00    +0.000 C 
ENDBRANCH  17  18
ENDBRANCH  13  17
ENDBRANCH   3  11
TORSDOF 5
ENDMDL
MODEL 9
REMARK VINA RESULT:      -6.0      1.475      1.769
REMARK  Name = 
REMARK  8 active torsions:
REMARK  status: ('A' for Active; 'I' for Inactive)
REMARK    1  A    between atoms: C_1  and  C_2
REMARK    2  A    between atoms: C_6  and  C_7
REMARK    3  A    between atoms: N_9  and  N_10
REMARK    4  A    between atoms: C_11  and  S_12
REMARK    5  A    between atoms: N_13  and  C_14
REMARK    6  A    between atoms: C_14  and  C_15
REMARK    7  A    between atoms: C_15  and  C_16
REMARK    8  A    between atoms: C_15  and  C_17
REMARK                            x       y       z     vdW  Elec       q    Type
REMARK                         _______ _______ _______ _____ _____    ______ ____
ROOT
ATOM      1  C   UNL     1       2.877   4.230  18.702  0.00  0.00    +0.000 C 
ATOM      2  O   UNL     1       2.700   5.425  18.456  0.00  0.00    +0.000 OA
ATOM      3  N   UNL     1       3.514   3.391  17.803  0.00  0.00    +0.000 N 
ATOM      4  H   UNL     1       3.748   2.417  17.971  0.00  0.00    +0.000 HD
ENDROOT
BRANCH   1  10
ATOM      5  C   UNL     1       4.549   2.138  20.598  0.00  0.00    +0.000 C 
ATOM      6  C   UNL     1       3.185   2.706  20.703  0.00  0.00    +0.000 A 
ATOM      7  O   UNL     1       2.476   2.304  21.796  0.00  0.00    +0.000 OA
ATOM      8  C   UNL     1       1.268   2.910  21.738  0.00  0.00    +0.000 A 
ATOM      9  C   UNL     1       1.183   3.698  20.618  0.00  0.00    +0.000 A 
ATOM     10  C   UNL     1       2.431   3.584  19.929  0.00  0.00    +0.000 A 
ENDBRANCH   1  10
BRANCH   3  11
ATOM     11  N   UNL     1       3.922   3.908  16.562  0.00  0.00    +0.000 N 
ATOM     12  C   UNL     1       5.220   4.367  16.487  0.00  0.00    +0.000 C 
ATOM     13  N   UNL     1       6.104   4.143  17.404  0.00  0.00    +0.000 NA
ATOM     14  H   UNL     1       3.208   4.478  16.107  0.00  0.00    +0.000 HD
BRANCH  12  15
ATOM     15  S   UNL     1       5.542   5.261  15.004  0.00  0.00    +0.000 S 
ATOM     16  H   UNL     1       6.837   4.943  14.897  0.00  0.00    +0.000 HD
ENDBRANCH  12  15
BRANCH  13  17
ATOM     17  C   UNL     1       7.469   4.658  17.243  0.00  0.00    +0.000 C 
BRANCH  17  18
ATOM     18  C   UNL     1       7.766   5.751  18.285  0.00  0.00    +0.000 C 
ATOM     19  C   UNL     1       7.592   7.155  17.705  0.00  0.00    +0.000 C 
ATOM     20  C   UNL     1       6.929   5.577  19.552  0.00  0.00    +0.000 C 
ENDBRANCH  17  18
ENDBRANCH  13  17
ENDBRANCH   3  11
TORSDOF 5
ENDMDL
