MODEL 1
REMARK VINA RESULT:      -7.7      0.000      0.000
REMARK  Name = 
REMARK  3 active torsions:
REMARK  status: ('A' for Active; 'I' for Inactive)
REMARK    1  A    between atoms: C_1  and  C_2
REMARK    2  A    between atoms: C_5  and  C_6
REMARK    3  A    between atoms: N_8  and  C_9
REMARK                            x       y       z     vdW  Elec       q    Type
REMARK                         _______ _______ _______ _____ _____    ______ ____
ROOT
ATOM      1  C   UNL     1       7.699   6.807  18.509  0.00  0.00    +0.000 A 
ATOM      2  C   UNL     1       7.247   6.412  17.260  0.00  0.00    +0.000 A 
ATOM      3  C   UNL     1       6.326   5.367  17.146  0.00  0.00    +0.000 A 
ATOM      4  C   UNL     1       5.855   4.704  18.275  0.00  0.00    +0.000 A 
ATOM      5  N   UNL     1       4.950   3.671  18.168  0.00  0.00    +0.000 N 
ATOM      6  C   UNL     1       3.953   3.582  17.095  0.00  0.00    +0.000 C 
ATOM      7  C   UNL     1       2.531   3.589  17.681  0.00  0.00    +0.000 C 
ATOM      8  O   UNL     1       2.362   2.574  18.682  0.00  0.00    +0.000 OA
ATOM      9  C   UNL     1       3.281   2.799  19.765  0.00  0.00    +0.000 C 
ATOM     10  C   UNL     1       4.740   2.748  19.289  0.00  0.00    +0.000 C 
ATOM     11  N   UNL     1       6.323   5.052  19.495  0.00  0.00    +0.000 NA
ATOM     12  C   UNL     1       7.217   6.075  19.587  0.00  0.00    +0.000 A 
ENDROOT
BRANCH   1  15
ATOM     13  C   UNL     1       8.386   9.179  18.262  0.00  0.00    +0.000 C 
ATOM     14  O   UNL     1       7.398   9.581  17.653  0.00  0.00    +0.000 OA
ATOM     15  N   UNL     1       8.598   7.884  18.712  0.00  0.00    +0.000 N 
ATOM     16  H   UNL     1       9.368   7.727  19.351  0.00  0.00    +0.000 HD
BRANCH  13  21
ATOM     17  C   UNL     1      12.138  13.301  19.830  0.00  0.00    +0.000 C 
ATOM     18  C   UNL     1      11.201  12.207  19.409  0.00  0.00    +0.000 A 
ATOM     19  C   UNL     1      10.420  11.542  20.360  0.00  0.00    +0.000 A 
ATOM     20  C   UNL     1       9.531  10.545  19.963  0.00  0.00    +0.000 A 
ATOM     21  C   UNL     1       9.415  10.191  18.611  0.00  0.00    +0.000 A 
ATOM     22  C   UNL     1      10.193  10.847  17.654  0.00  0.00    +0.000 A 
ATOM     23  C   UNL     1      11.083  11.851  18.056  0.00  0.00    +0.000 A 
ENDBRANCH  13  21
ENDBRANCH   1  15
TORSDOF 2
ENDMDL
MODEL 2
REMARK VINA RESULT:      -7.5      0.236      1.057
REMARK  Name = 
REMARK  3 active torsions:
REMARK  status: ('A' for Active; 'I' for Inactive)
REMARK    1  A    between atoms: C_1  and  C_2
REMARK    2  A    between atoms: C_5  and  C_6
REMARK    3  A    between atoms: N_8  and  C_9
REMARK                            x       y       z     vdW  Elec       q    Type
REMARK                         _______ _______ _______ _____ _____    ______ ____
ROOT
ATOM      1  C   UNL     1       7.597   6.831  18.453  0.00  0.00    +0.000 A 
ATOM      2  C   UNL     1       7.141   6.525  17.181  0.00  0.00    +0.000 A 
ATOM      3  C   UNL     1       6.261   5.457  16.989  0.00  0.00    +0.000 A 
ATOM      4  C   UNL     1       5.835   4.681  18.064  0.00  0.00    +0.000 A 
ATOM      5  N   UNL     1       4.970   3.625  17.879  0.00  0.00    +0.000 N 
ATOM      6  C   UNL     1       3.960   3.586  16.815  0.00  0.00    +0.000 C 
ATOM      7  C   UNL     1       2.549   3.485  17.417  0.00  0.00    +0.000 C 
ATOM      8  O   UNL     1       2.437   2.383  18.330  0.00  0.00    +0.000 OA
ATOM      9  C   UNL     1       3.364   2.553  19.417  0.00  0.00    +0.000 C 
ATOM     10  C   UNL     1       4.815   2.602  18.919  0.00  0.00    +0.000 C 
ATOM     11  N   UNL     1       6.309   4.943  19.302  0.00  0.00    +0.000 NA
ATOM     12  C   UNL     1       7.162   5.991  19.470  0.00  0.00    +0.000 A 
ENDROOT
BRANCH   1  15
ATOM     13  C   UNL     1       8.290   9.204  18.230  0.00  0.00    +0.000 C 
ATOM     14  O   UNL     1       7.381   9.578  17.492  0.00  0.00    +0.000 OA
ATOM     15  N   UNL     1       8.455   7.923  18.736  0.00  0.00    +0.000 N 
ATOM     16  H   UNL     1       9.142   7.791  19.470  0.00  0.00    +0.000 HD
BRANCH  13  21
ATOM     17  C   UNL     1      12.332  13.061  19.750  0.00  0.00    +0.000 C 
ATOM     18  C   UNL     1      11.252  12.089  19.373  0.00  0.00    +0.000 A 
ATOM     19  C   UNL     1      11.017  11.781  18.030  0.00  0.00    +0.000 A 
ATOM     20  C   UNL     1      10.032  10.858  17.685  0.00  0.00    +0.000 A 
ATOM     21  C   UNL     1       9.260  10.236  18.676  0.00  0.00    +0.000 A 
ATOM     22  C   UNL     1       9.483  10.539  20.021  0.00  0.00    +0.000 A 
ATOM     23  C   UNL     1      10.478  11.465  20.364  0.00  0.00    +0.000 A 
ENDBRANCH  13  21
ENDBRANCH   1  15
TORSDOF 2
ENDMDL
MODEL 3
REMARK VINA RESULT:      -7.4      6.416      8.156
REMARK  Name = 
REMARK  3 active torsions:
REMARK  status: ('A' for Active; 'I' for Inactive)
REMARK    1  A    between atoms: C_1  and  C_2
REMARK    2  A    between atoms: C_5  and  C_6
REMARK    3  A    between atoms: N_8  and  C_9
REMARK                            x       y       z     vdW  Elec       q    Type
REMARK                         _______ _______ _______ _____ _____    ______ ____
ROOT
ATOM      1  C   UNL     1       2.165   7.910  19.099  0.00  0.00    +0.000 A 
ATOM      2  C   UNL     1       2.456   6.714  19.735  0.00  0.00    +0.000 A 
ATOM      3  C   UNL     1       3.387   5.833  19.181  0.00  0.00    +0.000 A 
ATOM      4  C   UNL     1       4.031   6.134  17.983  0.00  0.00    +0.000 A 
ATOM      5  N   UNL     1       4.947   5.267  17.431  0.00  0.00    +0.000 N 
ATOM      6  C   UNL     1       5.792   4.371  18.229  0.00  0.00    +0.000 C 
ATOM      7  C   UNL     1       7.279   4.686  18.000  0.00  0.00    +0.000 C 
ATOM      8  O   UNL     1       7.617   4.673  16.605  0.00  0.00    +0.000 OA
ATOM      9  C   UNL     1       6.847   5.666  15.905  0.00  0.00    +0.000 C 
ATOM     10  C   UNL     1       5.340   5.399  16.024  0.00  0.00    +0.000 C 
ATOM     11  N   UNL     1       3.722   7.277  17.332  0.00  0.00    +0.000 NA
ATOM     12  C   UNL     1       2.815   8.126  17.890  0.00  0.00    +0.000 A 
ENDROOT
BRANCH   1  15
ATOM     13  C   UNL     1       0.939   9.002  20.960  0.00  0.00    +0.000 C 
ATOM     14  O   UNL     1       1.386   8.324  21.881  0.00  0.00    +0.000 OA
ATOM     15  N   UNL     1       1.266   8.875  19.618  0.00  0.00    +0.000 N 
ATOM     16  H   UNL     1       0.963   9.608  18.987  0.00  0.00    +0.000 HD
BRANCH  13  21
ATOM     17  C   UNL     1      -2.866  13.053  22.585  0.00  0.00    +0.000 C 
ATOM     18  C   UNL     1      -1.851  12.036  22.151  0.00  0.00    +0.000 A 
ATOM     19  C   UNL     1      -1.283  11.164  23.084  0.00  0.00    +0.000 A 
ATOM     20  C   UNL     1      -0.360  10.204  22.674  0.00  0.00    +0.000 A 
ATOM     21  C   UNL     1       0.015  10.106  21.327  0.00  0.00    +0.000 A 
ATOM     22  C   UNL     1      -0.543  10.975  20.387  0.00  0.00    +0.000 A 
ATOM     23  C   UNL     1      -1.474  11.937  20.802  0.00  0.00    +0.000 A 
ENDBRANCH  13  21
ENDBRANCH   1  15
TORSDOF 2
ENDMDL
MODEL 4
REMARK VINA RESULT:      -7.3      6.417      8.146
REMARK  Name = 
REMARK  3 active torsions:
REMARK  status: ('A' for Active; 'I' for Inactive)
REMARK    1  A    between atoms: C_1  and  C_2
REMARK    2  A    between atoms: C_5  and  C_6
REMARK    3  A    between atoms: N_8  and  C_9
REMARK                            x       y       z     vdW  Elec       q    Type
REMARK                         _______ _______ _______ _____ _____    ______ ____
ROOT
ATOM      1  C   UNL     1       2.126   7.856  19.119  0.00  0.00    +0.000 A 
ATOM      2  C   UNL     1       2.448   6.673  19.765  0.00  0.00    +0.000 A 
ATOM      3  C   UNL     1       3.397   5.808  19.214  0.00  0.00    +0.000 A 
ATOM      4  C   UNL     1       4.027   6.113  18.010  0.00  0.00    +0.000 A 
ATOM      5  N   UNL     1       4.960   5.262  17.460  0.00  0.00    +0.000 N 
ATOM      6  C   UNL     1       5.829   4.393  18.262  0.00  0.00    +0.000 C 
ATOM      7  C   UNL     1       7.308   4.742  18.021  0.00  0.00    +0.000 C 
ATOM      8  O   UNL     1       7.638   4.722  16.624  0.00  0.00    +0.000 OA
ATOM      9  C   UNL     1       6.841   5.691  15.920  0.00  0.00    +0.000 C 
ATOM     10  C   UNL     1       5.342   5.390  16.050  0.00  0.00    +0.000 C 
ATOM     11  N   UNL     1       3.687   7.242  17.349  0.00  0.00    +0.000 NA
ATOM     12  C   UNL     1       2.764   8.075  17.904  0.00  0.00    +0.000 A 
ENDROOT
BRANCH   1  15
ATOM     13  C   UNL     1       0.964   9.009  20.984  0.00  0.00    +0.000 C 
ATOM     14  O   UNL     1       1.511   8.424  21.915  0.00  0.00    +0.000 OA
ATOM     15  N   UNL     1       1.208   8.805  19.634  0.00  0.00    +0.000 N 
ATOM     16  H   UNL     1       0.820   9.473  18.978  0.00  0.00    +0.000 HD
BRANCH  13  21
ATOM     17  C   UNL     1      -2.569  13.439  22.177  0.00  0.00    +0.000 C 
ATOM     18  C   UNL     1      -1.686  12.262  21.882  0.00  0.00    +0.000 A 
ATOM     19  C   UNL     1      -1.272  12.002  20.572  0.00  0.00    +0.000 A 
ATOM     20  C   UNL     1      -0.430  10.923  20.305  0.00  0.00    +0.000 A 
ATOM     21  C   UNL     1       0.002  10.084  21.340  0.00  0.00    +0.000 A 
ATOM     22  C   UNL     1      -0.408  10.332  22.652  0.00  0.00    +0.000 A 
ATOM     23  C   UNL     1      -1.252  11.420  22.917  0.00  0.00    +0.000 A 
ENDBRANCH  13  21
ENDBRANCH   1  15
TORSDOF 2
ENDMDL
MODEL 5
REMARK VINA RESULT:      -7.1      7.806      9.898
REMARK  Name = 
REMARK  3 active torsions:
REMARK  status: ('A' for Active; 'I' for Inactive)
REMARK    1  A    between atoms: C_1  and  C_2
REMARK    2  A    between atoms: C_5  and  C_6
REMARK    3  A    between atoms: N_8  and  C_9
REMARK                            x       y       z     vdW  Elec       q    Type
REMARK                         _______ _______ _______ _____ _____    ______ ____
ROOT
ATOM      1  C   UNL     1       0.950   9.066  20.974  0.00  0.00    +0.000 A 
ATOM      2  C   UNL     1       0.038   8.743  21.966  0.00  0.00    +0.000 A 
ATOM      3  C   UNL     1      -0.688   9.750  22.606  0.00  0.00    +0.000 A 
ATOM      4  C   UNL     1      -0.506  11.088  22.267  0.00  0.00    +0.000 A 
ATOM      5  N   UNL     1      -1.217  12.085  22.897  0.00  0.00    +0.000 N 
ATOM      6  C   UNL     1      -2.570  11.896  23.431  0.00  0.00    +0.000 C 
ATOM      7  C   UNL     1      -3.560  12.847  22.739  0.00  0.00    +0.000 C 
ATOM      8  O   UNL     1      -3.122  14.212  22.807  0.00  0.00    +0.000 OA
ATOM      9  C   UNL     1      -1.851  14.351  22.148  0.00  0.00    +0.000 C 
ATOM     10  C   UNL     1      -0.774  13.481  22.811  0.00  0.00    +0.000 C 
ATOM     11  N   UNL     1       0.414  11.417  21.331  0.00  0.00    +0.000 NA
ATOM     12  C   UNL     1       1.109  10.422  20.716  0.00  0.00    +0.000 A 
ENDROOT
BRANCH   1  15
ATOM     13  C   UNL     1       1.879   8.124  18.874  0.00  0.00    +0.000 C 
ATOM     14  O   UNL     1       1.453   8.978  18.101  0.00  0.00    +0.000 OA
ATOM     15  N   UNL     1       1.693   8.101  20.248  0.00  0.00    +0.000 N 
ATOM     16  H   UNL     1       2.241   7.442  20.788  0.00  0.00    +0.000 HD
BRANCH  13  21
ATOM     17  C   UNL     1       5.185   4.145  16.273  0.00  0.00    +0.000 C 
ATOM     18  C   UNL     1       4.340   5.159  16.987  0.00  0.00    +0.000 A 
ATOM     19  C   UNL     1       4.636   6.522  16.886  0.00  0.00    +0.000 A 
ATOM     20  C   UNL     1       3.834   7.462  17.530  0.00  0.00    +0.000 A 
ATOM     21  C   UNL     1       2.730   7.055  18.291  0.00  0.00    +0.000 A 
ATOM     22  C   UNL     1       2.427   5.696  18.402  0.00  0.00    +0.000 A 
ATOM     23  C   UNL     1       3.234   4.753  17.751  0.00  0.00    +0.000 A 
ENDBRANCH  13  21
ENDBRANCH   1  15
TORSDOF 2
ENDMDL
MODEL 6
REMARK VINA RESULT:      -7.0      7.015      9.279
REMARK  Name = 
REMARK  3 active torsions:
REMARK  status: ('A' for Active; 'I' for Inactive)
REMARK    1  A    between atoms: C_1  and  C_2
REMARK    2  A    between atoms: C_5  and  C_6
REMARK    3  A    between atoms: N_8  and  C_9
REMARK                            x       y       z     vdW  Elec       q    Type
REMARK                         _______ _______ _______ _____ _____    ______ ____
ROOT
ATOM      1  C   UNL     1       1.265   9.094  18.707  0.00  0.00    +0.000 A 
ATOM      2  C   UNL     1       0.216   9.698  18.033  0.00  0.00    +0.000 A 
ATOM      3  C   UNL     1      -0.639  10.574  18.706  0.00  0.00    +0.000 A 
ATOM      4  C   UNL     1      -0.459  10.849  20.059  0.00  0.00    +0.000 A 
ATOM      5  N   UNL     1      -1.301  11.709  20.728  0.00  0.00    +0.000 N 
ATOM      6  C   UNL     1      -1.974  12.842  20.083  0.00  0.00    +0.000 C 
ATOM      7  C   UNL     1      -1.546  14.166  20.737  0.00  0.00    +0.000 C 
ATOM      8  O   UNL     1      -1.737  14.143  22.160  0.00  0.00    +0.000 OA
ATOM      9  C   UNL     1      -0.946  13.093  22.742  0.00  0.00    +0.000 C 
ATOM     10  C   UNL     1      -1.345  11.715  22.194  0.00  0.00    +0.000 C 
ATOM     11  N   UNL     1       0.534  10.231  20.737  0.00  0.00    +0.000 NA
ATOM     12  C   UNL     1       1.360   9.384  20.063  0.00  0.00    +0.000 A 
ENDROOT
BRANCH   1  15
ATOM     13  C   UNL     1       2.571   6.987  18.583  0.00  0.00    +0.000 C 
ATOM     14  O   UNL     1       2.137   6.456  19.601  0.00  0.00    +0.000 OA
ATOM     15  N   UNL     1       2.201   8.228  18.087  0.00  0.00    +0.000 N 
ATOM     16  H   UNL     1       2.501   8.471  17.150  0.00  0.00    +0.000 HD
BRANCH  13  21
ATOM     17  C   UNL     1       6.228   4.125  15.124  0.00  0.00    +0.000 C 
ATOM     18  C   UNL     1       5.300   4.847  16.056  0.00  0.00    +0.000 A 
ATOM     19  C   UNL     1       5.332   6.241  16.144  0.00  0.00    +0.000 A 
ATOM     20  C   UNL     1       4.450   6.911  16.991  0.00  0.00    +0.000 A 
ATOM     21  C   UNL     1       3.530   6.195  17.770  0.00  0.00    +0.000 A 
ATOM     22  C   UNL     1       3.492   4.801  17.693  0.00  0.00    +0.000 A 
ATOM     23  C   UNL     1       4.378   4.132  16.838  0.00  0.00    +0.000 A 
ENDBRANCH  13  21
ENDBRANCH   1  15
TORSDOF 2
ENDMDL
MODEL 7
REMARK VINA RESULT:      -6.9      7.332      8.743
REMARK  Name = 
REMARK  3 active torsions:
REMARK  status: ('A' for Active; 'I' for Inactive)
REMARK    1  A    between atoms: C_1  and  C_2
REMARK    2  A    between atoms: C_5  and  C_6
REMARK    3  A    between atoms: N_8  and  C_9
REMARK                            x       y       z     vdW  Elec       q    Type
REMARK                         _______ _______ _______ _____ _____    ______ ____
ROOT
ATOM      1  C   UNL     1       1.173   8.783  19.588  0.00  0.00    +0.000 A 
ATOM      2  C   UNL     1       1.799   8.974  18.366  0.00  0.00    +0.000 A 
ATOM      3  C   UNL     1       2.788   8.086  17.939  0.00  0.00    +0.000 A 
ATOM      4  C   UNL     1       3.168   7.005  18.730  0.00  0.00    +0.000 A 
ATOM      5  N   UNL     1       4.146   6.128  18.315  0.00  0.00    +0.000 N 
ATOM      6  C   UNL     1       4.404   5.817  16.905  0.00  0.00    +0.000 C 
ATOM      7  C   UNL     1       4.190   4.319  16.636  0.00  0.00    +0.000 C 
ATOM      8  O   UNL     1       4.957   3.502  17.534  0.00  0.00    +0.000 OA
ATOM      9  C   UNL     1       4.559   3.763  18.892  0.00  0.00    +0.000 C 
ATOM     10  C   UNL     1       4.795   5.230  19.277  0.00  0.00    +0.000 C 
ATOM     11  N   UNL     1       2.595   6.835  19.943  0.00  0.00    +0.000 NA
ATOM     12  C   UNL     1       1.629   7.708  20.340  0.00  0.00    +0.000 A 
ENDROOT
BRANCH   1  15
ATOM     13  C   UNL     1       0.282  10.559  21.075  0.00  0.00    +0.000 C 
ATOM     14  O   UNL     1       1.324  10.826  21.667  0.00  0.00    +0.000 OA
ATOM     15  N   UNL     1       0.130   9.613  20.072  0.00  0.00    +0.000 N 
ATOM     16  H   UNL     1      -0.737   9.615  19.548  0.00  0.00    +0.000 HD
BRANCH  13  21
ATOM     17  C   UNL     1      -4.503  13.437  22.609  0.00  0.00    +0.000 C 
ATOM     18  C   UNL     1      -3.244  12.730  22.199  0.00  0.00    +0.000 A 
ATOM     19  C   UNL     1      -2.478  12.047  23.147  0.00  0.00    +0.000 A 
ATOM     20  C   UNL     1      -1.323  11.370  22.759  0.00  0.00    +0.000 A 
ATOM     21  C   UNL     1      -0.912  11.373  21.420  0.00  0.00    +0.000 A 
ATOM     22  C   UNL     1      -1.668  12.056  20.464  0.00  0.00    +0.000 A 
ATOM     23  C   UNL     1      -2.830  12.733  20.857  0.00  0.00    +0.000 A 
ENDBRANCH  13  21
ENDBRANCH   1  15
TORSDOF 2
ENDMDL
MODEL 8
REMARK VINA RESULT:      -6.9      8.375     10.252
REMARK  Name = 
REMARK  3 active torsions:
REMARK  status: ('A' for Active; 'I' for Inactive)
REMARK    1  A    between atoms: C_1  and  C_2
REMARK    2  A    between atoms: C_5  and  C_6
REMARK    3  A    between atoms: N_8  and  C_9
REMARK                            x       y       z     vdW  Elec       q    Type
REMARK                         _______ _______ _______ _____ _____    ______ ____
ROOT
ATOM      1  C   UNL     1       0.639   9.547  21.508  0.00  0.00    +0.000 A 
ATOM      2  C   UNL     1      -0.319   9.248  22.464  0.00  0.00    +0.000 A 
ATOM      3  C   UNL     1      -1.069  10.270  23.049  0.00  0.00    +0.000 A 
ATOM      4  C   UNL     1      -0.864  11.600  22.692  0.00  0.00    +0.000 A 
ATOM      5  N   UNL     1      -1.598  12.613  23.269  0.00  0.00    +0.000 N 
ATOM      6  C   UNL     1      -2.976  12.439  23.745  0.00  0.00    +0.000 C 
ATOM      7  C   UNL     1      -3.928  13.380  22.989  0.00  0.00    +0.000 C 
ATOM      8  O   UNL     1      -3.487  14.745  23.049  0.00  0.00    +0.000 OA
ATOM      9  C   UNL     1      -2.187  14.865  22.447  0.00  0.00    +0.000 C 
ATOM     10  C   UNL     1      -1.145  14.005  23.176  0.00  0.00    +0.000 C 
ATOM     11  N   UNL     1       0.098  11.907  21.794  0.00  0.00    +0.000 NA
ATOM     12  C   UNL     1       0.816  10.896  21.230  0.00  0.00    +0.000 A 
ENDROOT
BRANCH   1  15
ATOM     13  C   UNL     1       1.590   8.512  19.462  0.00  0.00    +0.000 C 
ATOM     14  O   UNL     1       1.136   9.306  18.642  0.00  0.00    +0.000 OA
ATOM     15  N   UNL     1       1.409   8.564  20.836  0.00  0.00    +0.000 N 
ATOM     16  H   UNL     1       1.980   7.955  21.411  0.00  0.00    +0.000 HD
BRANCH  13  21
ATOM     17  C   UNL     1       5.175   4.293  17.767  0.00  0.00    +0.000 C 
ATOM     18  C   UNL     1       4.222   5.381  18.168  0.00  0.00    +0.000 A 
ATOM     19  C   UNL     1       3.423   5.235  19.305  0.00  0.00    +0.000 A 
ATOM     20  C   UNL     1       2.558   6.258  19.690  0.00  0.00    +0.000 A 
ATOM     21  C   UNL     1       2.473   7.438  18.938  0.00  0.00    +0.000 A 
ATOM     22  C   UNL     1       3.264   7.593  17.798  0.00  0.00    +0.000 A 
ATOM     23  C   UNL     1       4.135   6.563  17.416  0.00  0.00    +0.000 A 
ENDBRANCH  13  21
ENDBRANCH   1  15
TORSDOF 2
ENDMDL
MODEL 9
REMARK VINA RESULT:      -6.9      7.208      9.401
REMARK  Name = 
REMARK  3 active torsions:
REMARK  status: ('A' for Active; 'I' for Inactive)
REMARK    1  A    between atoms: C_1  and  C_2
REMARK    2  A    between atoms: C_5  and  C_6
REMARK    3  A    between atoms: N_8  and  C_9
REMARK                            x       y       z     vdW  Elec       q    Type
REMARK                         _______ _______ _______ _____ _____    ______ ____
ROOT
ATOM      1  C   UNL     1       1.067   9.283  18.799  0.00  0.00    +0.000 A 
ATOM      2  C   UNL     1       0.018   9.921  18.157  0.00  0.00    +0.000 A 
ATOM      3  C   UNL     1      -0.819  10.784  18.868  0.00  0.00    +0.000 A 
ATOM      4  C   UNL     1      -0.621  11.012  20.227  0.00  0.00    +0.000 A 
ATOM      5  N   UNL     1      -1.445  11.860  20.934  0.00  0.00    +0.000 N 
ATOM      6  C   UNL     1      -2.113  13.021  20.334  0.00  0.00    +0.000 C 
ATOM      7  C   UNL     1      -1.662  14.317  21.026  0.00  0.00    +0.000 C 
ATOM      8  O   UNL     1      -1.837  14.250  22.450  0.00  0.00    +0.000 OA
ATOM      9  C   UNL     1      -1.051  13.172  22.988  0.00  0.00    +0.000 C 
ATOM     10  C   UNL     1      -1.472  11.818  22.400  0.00  0.00    +0.000 C 
ATOM     11  N   UNL     1       0.373  10.361  20.873  0.00  0.00    +0.000 NA
ATOM     12  C   UNL     1       1.181   9.528  20.162  0.00  0.00    +0.000 A 
ENDROOT
BRANCH   1  15
ATOM     13  C   UNL     1       2.451   7.228  18.655  0.00  0.00    +0.000 C 
ATOM     14  O   UNL     1       2.126   6.728  19.729  0.00  0.00    +0.000 OA
ATOM     15  N   UNL     1       1.986   8.429  18.139  0.00  0.00    +0.000 N 
ATOM     16  H   UNL     1       2.197   8.639  17.171  0.00  0.00    +0.000 HD
BRANCH  13  21
ATOM     17  C   UNL     1       6.095   3.915  15.610  0.00  0.00    +0.000 C 
ATOM     18  C   UNL     1       5.137   4.794  16.360  0.00  0.00    +0.000 A 
ATOM     19  C   UNL     1       4.061   4.233  17.054  0.00  0.00    +0.000 A 
ATOM     20  C   UNL     1       3.189   5.050  17.772  0.00  0.00    +0.000 A 
ATOM     21  C   UNL     1       3.374   6.439  17.799  0.00  0.00    +0.000 A 
ATOM     22  C   UNL     1       4.444   7.010  17.106  0.00  0.00    +0.000 A 
ATOM     23  C   UNL     1       5.321   6.185  16.389  0.00  0.00    +0.000 A 
ENDBRANCH  13  21
ENDBRANCH   1  15
TORSDOF 2
ENDMDL
