MODEL 1
REMARK VINA RESULT:      -7.6      0.000      0.000
REMARK  Name = 
REMARK  9 active torsions:
REMARK  status: ('A' for Active; 'I' for Inactive)
REMARK    1  A    between atoms: C_1  and  C_2
REMARK    2  A    between atoms: C_2  and  N_3
REMARK    3  A    between atoms: C_4  and  N_5
REMARK    4  A    between atoms: C_6  and  C_7
REMARK    5  A    between atoms: N_9  and  C_10
REMARK    6  A    between atoms: C_16  and  C_17
REMARK    7  A    between atoms: C_18  and  C_19
REMARK    8  A    between atoms: C_19  and  O_20
REMARK    9  A    between atoms: C_19  and  C_21
REMARK                            x       y       z     vdW  Elec       q    Type
REMARK                         _______ _______ _______ _____ _____    ______ ____
ROOT
ATOM      1  N   UNL     1       3.827   5.101  19.199  0.00  0.00    +0.000 N 
ATOM      2  C   UNL     1       4.699   4.500  18.264  0.00  0.00    +0.000 A 
ATOM      3  C   UNL     1       5.046   5.124  17.098  0.00  0.00    +0.000 A 
ATOM      4  C   UNL     1       4.531   6.499  16.864  0.00  0.00    +0.000 A 
ATOM      5  O   UNL     1       4.880   7.172  15.897  0.00  0.00    +0.000 OA
ATOM      6  C   UNL     1       3.586   7.080  17.819  0.00  0.00    +0.000 A 
ATOM      7  C   UNL     1       2.996   8.320  17.549  0.00  0.00    +0.000 A 
ATOM      8  C   UNL     1       2.098   8.856  18.458  0.00  0.00    +0.000 A 
ATOM      9  C   UNL     1       1.845   8.140  19.612  0.00  0.00    +0.000 A 
ATOM     10  N   UNL     1       2.406   6.940  19.890  0.00  0.00    +0.000 NA
ATOM     11  C   UNL     1       3.266   6.391  18.984  0.00  0.00    +0.000 A 
ENDROOT
BRANCH   3  12
ATOM     12  C   UNL     1       5.940   4.463  16.069  0.00  0.00    +0.000 C 
ATOM     13  O   UNL     1       7.049   4.016  16.354  0.00  0.00    +0.000 OA
ATOM     14  N   UNL     1       5.412   4.363  14.793  0.00  0.00    +0.000 N 
ATOM     15  C   UNL     1       6.094   3.776  13.667  0.00  0.00    +0.000 C 
ATOM     16  H   UNL     1       4.447   4.664  14.655  0.00  0.00    +0.000 HD
ENDBRANCH   3  12
BRANCH   2  17
ATOM     17  N   UNL     1       5.229   3.257  18.560  0.00  0.00    +0.000 N 
ATOM     18  H   UNL     1       4.589   2.478  18.604  0.00  0.00    +0.000 HD
ATOM     19  H   UNL     1       6.098   3.048  18.050  0.00  0.00    +0.000 HD
ENDBRANCH   2  17
BRANCH   1  21
ATOM     20  C   UNL     1       2.050   3.565  20.017  0.00  0.00    +0.000 C 
ATOM     21  C   UNL     1       3.256   4.421  20.378  0.00  0.00    +0.000 C 
ENDBRANCH   1  21
BRANCH   9  22
ATOM     22  C   UNL     1       0.960   8.664  20.609  0.00  0.00    +0.000 C 
ATOM     23  C   UNL     1       0.219   9.171  21.554  0.00  0.00    +0.000 C 
BRANCH  23  24
ATOM     24  C   UNL     1      -0.643   9.764  22.656  0.00  0.00    +0.000 C 
BRANCH  24  25
ATOM     25  C   UNL     1      -0.599  11.250  22.435  0.00  0.00    +0.000 C 
ATOM     26  C   UNL     1      -1.687  11.913  21.610  0.00  0.00    +0.000 C 
ATOM     27  C   UNL     1      -1.564  12.228  23.077  0.00  0.00    +0.000 C 
ENDBRANCH  24  25
BRANCH  24  28
ATOM     28  O   UNL     1      -0.118   9.403  23.921  0.00  0.00    +0.000 OA
ATOM     29  H   UNL     1      -0.805   9.623  24.571  0.00  0.00    +0.000 HD
ENDBRANCH  24  28
ENDBRANCH  23  24
ENDBRANCH   9  22
TORSDOF 7
ENDMDL
MODEL 2
REMARK VINA RESULT:      -7.0      3.359      9.602
REMARK  Name = 
REMARK  9 active torsions:
REMARK  status: ('A' for Active; 'I' for Inactive)
REMARK    1  A    between atoms: C_1  and  C_2
REMARK    2  A    between atoms: C_2  and  N_3
REMARK    3  A    between atoms: C_4  and  N_5
REMARK    4  A    between atoms: C_6  and  C_7
REMARK    5  A    between atoms: N_9  and  C_10
REMARK    6  A    between atoms: C_16  and  C_17
REMARK    7  A    between atoms: C_18  and  C_19
REMARK    8  A    between atoms: C_19  and  O_20
REMARK    9  A    between atoms: C_19  and  C_21
REMARK                            x       y       z     vdW  Elec       q    Type
REMARK                         _______ _______ _______ _____ _____    ______ ____
ROOT
ATOM      1  N   UNL     1      -1.012  11.158  19.526  0.00  0.00    +0.000 N 
ATOM      2  C   UNL     1      -1.836  12.012  20.291  0.00  0.00    +0.000 A 
ATOM      3  C   UNL     1      -1.825  11.992  21.658  0.00  0.00    +0.000 A 
ATOM      4  C   UNL     1      -0.860  11.083  22.332  0.00  0.00    +0.000 A 
ATOM      5  O   UNL     1      -0.707  11.080  23.551  0.00  0.00    +0.000 OA
ATOM      6  C   UNL     1      -0.055  10.167  21.522  0.00  0.00    +0.000 A 
ATOM      7  C   UNL     1       0.763   9.220  22.146  0.00  0.00    +0.000 A 
ATOM      8  C   UNL     1       1.515   8.354  21.367  0.00  0.00    +0.000 A 
ATOM      9  C   UNL     1       1.435   8.489  19.994  0.00  0.00    +0.000 A 
ATOM     10  N   UNL     1       0.650   9.399  19.373  0.00  0.00    +0.000 NA
ATOM     11  C   UNL     1      -0.118  10.232  20.134  0.00  0.00    +0.000 A 
ENDROOT
BRANCH   3  12
ATOM     12  C   UNL     1      -2.743  12.869  22.483  0.00  0.00    +0.000 C 
ATOM     13  O   UNL     1      -2.772  14.092  22.354  0.00  0.00    +0.000 OA
ATOM     14  N   UNL     1      -3.575  12.203  23.367  0.00  0.00    +0.000 N 
ATOM     15  C   UNL     1      -4.519  12.844  24.246  0.00  0.00    +0.000 C 
ATOM     16  H   UNL     1      -3.568  11.183  23.345  0.00  0.00    +0.000 HD
ENDBRANCH   3  12
BRANCH   2  17
ATOM     17  N   UNL     1      -2.655  12.908  19.626  0.00  0.00    +0.000 N 
ATOM     18  H   UNL     1      -2.238  13.462  18.893  0.00  0.00    +0.000 HD
ATOM     19  H   UNL     1      -3.575  12.518  19.376  0.00  0.00    +0.000 HD
ENDBRANCH   2  17
BRANCH   1  21
ATOM     20  C   UNL     1      -2.261  10.079  17.666  0.00  0.00    +0.000 C 
ATOM     21  C   UNL     1      -1.104  10.985  18.064  0.00  0.00    +0.000 C 
ENDBRANCH   1  21
BRANCH   9  22
ATOM     22  C   UNL     1       2.223   7.653  19.139  0.00  0.00    +0.000 C 
ATOM     23  C   UNL     1       2.913   6.828  18.402  0.00  0.00    +0.000 C 
BRANCH  23  24
ATOM     24  C   UNL     1       3.717   5.866  17.543  0.00  0.00    +0.000 C 
BRANCH  24  25
ATOM     25  C   UNL     1       3.390   4.498  18.072  0.00  0.00    +0.000 C 
ATOM     26  C   UNL     1       2.664   3.508  17.179  0.00  0.00    +0.000 C 
ATOM     27  C   UNL     1       4.079   3.228  17.611  0.00  0.00    +0.000 C 
ENDBRANCH  24  25
BRANCH  24  28
ATOM     28  O   UNL     1       5.098   6.161  17.659  0.00  0.00    +0.000 OA
ATOM     29  H   UNL     1       5.248   6.387  18.591  0.00  0.00    +0.000 HD
ENDBRANCH  24  28
ENDBRANCH  23  24
ENDBRANCH   9  22
TORSDOF 7
ENDMDL
MODEL 3
REMARK VINA RESULT:      -6.9      3.418      9.591
REMARK  Name = 
REMARK  9 active torsions:
REMARK  status: ('A' for Active; 'I' for Inactive)
REMARK    1  A    between atoms: C_1  and  C_2
REMARK    2  A    between atoms: C_2  and  N_3
REMARK    3  A    between atoms: C_4  and  N_5
REMARK    4  A    between atoms: C_6  and  C_7
REMARK    5  A    between atoms: N_9  and  C_10
REMARK    6  A    between atoms: C_16  and  C_17
REMARK    7  A    between atoms: C_18  and  C_19
REMARK    8  A    between atoms: C_19  and  O_20
REMARK    9  A    between atoms: C_19  and  C_21
REMARK                            x       y       z     vdW  Elec       q    Type
REMARK                         _______ _______ _______ _____ _____    ______ ____
ROOT
ATOM      1  N   UNL     1      -1.027  11.090  19.423  0.00  0.00    +0.000 N 
ATOM      2  C   UNL     1      -1.882  11.991  20.095  0.00  0.00    +0.000 A 
ATOM      3  C   UNL     1      -1.935  12.053  21.461  0.00  0.00    +0.000 A 
ATOM      4  C   UNL     1      -1.007  11.184  22.233  0.00  0.00    +0.000 A 
ATOM      5  O   UNL     1      -0.912  11.255  23.455  0.00  0.00    +0.000 OA
ATOM      6  C   UNL     1      -0.170  10.220  21.518  0.00  0.00    +0.000 A 
ATOM      7  C   UNL     1       0.613   9.310  22.236  0.00  0.00    +0.000 A 
ATOM      8  C   UNL     1       1.397   8.398  21.547  0.00  0.00    +0.000 A 
ATOM      9  C   UNL     1       1.382   8.449  20.166  0.00  0.00    +0.000 A 
ATOM     10  N   UNL     1       0.632   9.322  19.455  0.00  0.00    +0.000 NA
ATOM     11  C   UNL     1      -0.167  10.201  20.127  0.00  0.00    +0.000 A 
ENDROOT
BRANCH   3  12
ATOM     12  C   UNL     1      -2.887  12.981  22.187  0.00  0.00    +0.000 C 
ATOM     13  O   UNL     1      -2.865  14.200  22.026  0.00  0.00    +0.000 OA
ATOM     14  N   UNL     1      -3.807  12.365  23.017  0.00  0.00    +0.000 N 
ATOM     15  C   UNL     1      -4.798  13.058  23.801  0.00  0.00    +0.000 C 
ATOM     16  H   UNL     1      -3.833  11.345  23.021  0.00  0.00    +0.000 HD
ENDBRANCH   3  12
BRANCH   2  17
ATOM     17  N   UNL     1      -2.664  12.847  19.340  0.00  0.00    +0.000 N 
ATOM     18  H   UNL     1      -2.212  13.349  18.591  0.00  0.00    +0.000 HD
ATOM     19  H   UNL     1      -3.576  12.448  19.078  0.00  0.00    +0.000 HD
ENDBRANCH   2  17
BRANCH   1  21
ATOM     20  C   UNL     1      -2.264  10.010  17.557  0.00  0.00    +0.000 C 
ATOM     21  C   UNL     1      -1.051  10.830  17.971  0.00  0.00    +0.000 C 
ENDBRANCH   1  21
BRANCH   9  22
ATOM     22  C   UNL     1       2.205   7.562  19.401  0.00  0.00    +0.000 C 
ATOM     23  C   UNL     1       2.996   6.739  18.771  0.00  0.00    +0.000 C 
BRANCH  23  24
ATOM     24  C   UNL     1       3.919   5.779  18.038  0.00  0.00    +0.000 C 
BRANCH  24  25
ATOM     25  C   UNL     1       4.642   6.622  17.026  0.00  0.00    +0.000 C 
ATOM     26  C   UNL     1       6.157   6.566  16.956  0.00  0.00    +0.000 C 
ATOM     27  C   UNL     1       5.335   6.061  15.801  0.00  0.00    +0.000 C 
ENDBRANCH  24  25
BRANCH  24  28
ATOM     28  O   UNL     1       3.154   4.757  17.423  0.00  0.00    +0.000 OA
ATOM     29  H   UNL     1       2.315   5.169  17.160  0.00  0.00    +0.000 HD
ENDBRANCH  24  28
ENDBRANCH  23  24
ENDBRANCH   9  22
TORSDOF 7
ENDMDL
MODEL 4
REMARK VINA RESULT:      -6.8      1.048      1.064
REMARK  Name = 
REMARK  9 active torsions:
REMARK  status: ('A' for Active; 'I' for Inactive)
REMARK    1  A    between atoms: C_1  and  C_2
REMARK    2  A    between atoms: C_2  and  N_3
REMARK    3  A    between atoms: C_4  and  N_5
REMARK    4  A    between atoms: C_6  and  C_7
REMARK    5  A    between atoms: N_9  and  C_10
REMARK    6  A    between atoms: C_16  and  C_17
REMARK    7  A    between atoms: C_18  and  C_19
REMARK    8  A    between atoms: C_19  and  O_20
REMARK    9  A    between atoms: C_19  and  C_21
REMARK                            x       y       z     vdW  Elec       q    Type
REMARK                         _______ _______ _______ _____ _____    ______ ____
ROOT
ATOM      1  N   UNL     1       3.111   5.407  19.589  0.00  0.00    +0.000 N 
ATOM      2  C   UNL     1       3.941   4.663  18.723  0.00  0.00    +0.000 A 
ATOM      3  C   UNL     1       4.379   5.170  17.531  0.00  0.00    +0.000 A 
ATOM      4  C   UNL     1       4.011   6.571  17.195  0.00  0.00    +0.000 A 
ATOM      5  O   UNL     1       4.451   7.141  16.199  0.00  0.00    +0.000 OA
ATOM      6  C   UNL     1       3.105   7.305  18.080  0.00  0.00    +0.000 A 
ATOM      7  C   UNL     1       2.650   8.576  17.713  0.00  0.00    +0.000 A 
ATOM      8  C   UNL     1       1.787   9.257  18.558  0.00  0.00    +0.000 A 
ATOM      9  C   UNL     1       1.434   8.647  19.746  0.00  0.00    +0.000 A 
ATOM     10  N   UNL     1       1.865   7.419  20.117  0.00  0.00    +0.000 NA
ATOM     11  C   UNL     1       2.688   6.729  19.275  0.00  0.00    +0.000 A 
ENDROOT
BRANCH   3  12
ATOM     12  C   UNL     1       5.228   4.358  16.575  0.00  0.00    +0.000 C 
ATOM     13  O   UNL     1       5.028   3.161  16.376  0.00  0.00    +0.000 OA
ATOM     14  N   UNL     1       6.221   5.058  15.912  0.00  0.00    +0.000 N 
ATOM     15  C   UNL     1       7.140   4.479  14.965  0.00  0.00    +0.000 C 
ATOM     16  H   UNL     1       6.261   6.068  16.050  0.00  0.00    +0.000 HD
ENDBRANCH   3  12
BRANCH   2  17
ATOM     17  N   UNL     1       4.335   3.395  19.114  0.00  0.00    +0.000 N 
ATOM     18  H   UNL     1       5.017   2.924  18.539  0.00  0.00    +0.000 HD
ATOM     19  H   UNL     1       4.522   3.315  20.123  0.00  0.00    +0.000 HD
ENDBRANCH   2  17
BRANCH   1  21
ATOM     20  C   UNL     1       1.174   4.102  20.444  0.00  0.00    +0.000 C 
ATOM     21  C   UNL     1       2.444   4.866  20.790  0.00  0.00    +0.000 C 
ENDBRANCH   1  21
BRANCH   9  22
ATOM     22  C   UNL     1       0.582   9.321  20.679  0.00  0.00    +0.000 C 
ATOM     23  C   UNL     1      -0.212   9.987  21.470  0.00  0.00    +0.000 C 
BRANCH  23  24
ATOM     24  C   UNL     1      -1.138  10.764  22.391  0.00  0.00    +0.000 C 
BRANCH  24  25
ATOM     25  C   UNL     1      -0.739  12.203  22.229  0.00  0.00    +0.000 C 
ATOM     26  C   UNL     1      -1.781  13.222  21.803  0.00  0.00    +0.000 C 
ATOM     27  C   UNL     1      -1.166  13.309  23.174  0.00  0.00    +0.000 C 
ENDBRANCH  24  25
BRANCH  24  28
ATOM     28  O   UNL     1      -0.971  10.316  23.725  0.00  0.00    +0.000 OA
ATOM     29  H   UNL     1      -1.269  11.046  24.293  0.00  0.00    +0.000 HD
ENDBRANCH  24  28
ENDBRANCH  23  24
ENDBRANCH   9  22
TORSDOF 7
ENDMDL
MODEL 5
REMARK VINA RESULT:      -6.4      3.101      4.313
REMARK  Name = 
REMARK  9 active torsions:
REMARK  status: ('A' for Active; 'I' for Inactive)
REMARK    1  A    between atoms: C_1  and  C_2
REMARK    2  A    between atoms: C_2  and  N_3
REMARK    3  A    between atoms: C_4  and  N_5
REMARK    4  A    between atoms: C_6  and  C_7
REMARK    5  A    between atoms: N_9  and  C_10
REMARK    6  A    between atoms: C_16  and  C_17
REMARK    7  A    between atoms: C_18  and  C_19
REMARK    8  A    between atoms: C_19  and  O_20
REMARK    9  A    between atoms: C_19  and  C_21
REMARK                            x       y       z     vdW  Elec       q    Type
REMARK                         _______ _______ _______ _____ _____    ______ ____
ROOT
ATOM      1  N   UNL     1       3.834   5.500  17.878  0.00  0.00    +0.000 N 
ATOM      2  C   UNL     1       4.208   4.152  18.074  0.00  0.00    +0.000 A 
ATOM      3  C   UNL     1       3.762   3.428  19.145  0.00  0.00    +0.000 A 
ATOM      4  C   UNL     1       2.804   4.083  20.077  0.00  0.00    +0.000 A 
ATOM      5  O   UNL     1       2.271   3.473  21.000  0.00  0.00    +0.000 OA
ATOM      6  C   UNL     1       2.473   5.496  19.886  0.00  0.00    +0.000 A 
ATOM      7  C   UNL     1       1.675   6.157  20.825  0.00  0.00    +0.000 A 
ATOM      8  C   UNL     1       1.375   7.497  20.635  0.00  0.00    +0.000 A 
ATOM      9  C   UNL     1       1.867   8.114  19.501  0.00  0.00    +0.000 A 
ATOM     10  N   UNL     1       2.639   7.489  18.582  0.00  0.00    +0.000 NA
ATOM     11  C   UNL     1       2.967   6.179  18.779  0.00  0.00    +0.000 A 
ENDROOT
BRANCH   3  12
ATOM     12  C   UNL     1       4.200   1.999  19.388  0.00  0.00    +0.000 C 
ATOM     13  O   UNL     1       3.890   1.081  18.632  0.00  0.00    +0.000 OA
ATOM     14  N   UNL     1       5.003   1.799  20.498  0.00  0.00    +0.000 N 
ATOM     15  C   UNL     1       5.526   0.522  20.912  0.00  0.00    +0.000 C 
ATOM     16  H   UNL     1       5.303   2.623  21.019  0.00  0.00    +0.000 HD
ENDBRANCH   3  12
BRANCH   2  17
ATOM     17  N   UNL     1       5.028   3.552  17.136  0.00  0.00    +0.000 N 
ATOM     18  H   UNL     1       5.384   2.633  17.351  0.00  0.00    +0.000 HD
ATOM     19  H   UNL     1       4.686   3.646  16.169  0.00  0.00    +0.000 HD
ENDBRANCH   2  17
BRANCH   1  21
ATOM     20  C   UNL     1       5.815   6.865  17.250  0.00  0.00    +0.000 C 
ATOM     21  C   UNL     1       4.419   6.399  16.864  0.00  0.00    +0.000 C 
ENDBRANCH   1  21
BRANCH   9  22
ATOM     22  C   UNL     1       1.553   9.484  19.229  0.00  0.00    +0.000 C 
ATOM     23  C   UNL     1       1.196  10.707  18.951  0.00  0.00    +0.000 C 
BRANCH  23  24
ATOM     24  C   UNL     1       0.779  12.132  18.627  0.00  0.00    +0.000 C 
BRANCH  24  25
ATOM     25  C   UNL     1       1.909  12.994  19.115  0.00  0.00    +0.000 C 
ATOM     26  C   UNL     1       2.676  13.849  18.122  0.00  0.00    +0.000 C 
ATOM     27  C   UNL     1       1.844  14.507  19.191  0.00  0.00    +0.000 C 
ENDBRANCH  24  25
BRANCH  24  28
ATOM     28  O   UNL     1      -0.439  12.435  19.286  0.00  0.00    +0.000 OA
ATOM     29  H   UNL     1      -0.715  13.305  18.954  0.00  0.00    +0.000 HD
ENDBRANCH  24  28
ENDBRANCH  23  24
ENDBRANCH   9  22
TORSDOF 7
ENDMDL
MODEL 6
REMARK VINA RESULT:      -6.4      3.101      9.606
REMARK  Name = 
REMARK  9 active torsions:
REMARK  status: ('A' for Active; 'I' for Inactive)
REMARK    1  A    between atoms: C_1  and  C_2
REMARK    2  A    between atoms: C_2  and  N_3
REMARK    3  A    between atoms: C_4  and  N_5
REMARK    4  A    between atoms: C_6  and  C_7
REMARK    5  A    between atoms: N_9  and  C_10
REMARK    6  A    between atoms: C_16  and  C_17
REMARK    7  A    between atoms: C_18  and  C_19
REMARK    8  A    between atoms: C_19  and  O_20
REMARK    9  A    between atoms: C_19  and  C_21
REMARK                            x       y       z     vdW  Elec       q    Type
REMARK                         _______ _______ _______ _____ _____    ______ ____
ROOT
ATOM      1  N   UNL     1       0.073  11.682  20.025  0.00  0.00    +0.000 N 
ATOM      2  C   UNL     1      -0.729  12.398  20.941  0.00  0.00    +0.000 A 
ATOM      3  C   UNL     1      -1.062  11.884  22.164  0.00  0.00    +0.000 A 
ATOM      4  C   UNL     1      -0.494  10.562  22.540  0.00  0.00    +0.000 A 
ATOM      5  O   UNL     1      -0.652  10.077  23.658  0.00  0.00    +0.000 OA
ATOM      6  C   UNL     1       0.289   9.813  21.556  0.00  0.00    +0.000 A 
ATOM      7  C   UNL     1       0.722   8.516  21.850  0.00  0.00    +0.000 A 
ATOM      8  C   UNL     1       1.457   7.816  20.906  0.00  0.00    +0.000 A 
ATOM      9  C   UNL     1       1.749   8.453  19.715  0.00  0.00    +0.000 A 
ATOM     10  N   UNL     1       1.339   9.706  19.414  0.00  0.00    +0.000 NA
ATOM     11  C   UNL     1       0.586  10.389  20.325  0.00  0.00    +0.000 A 
ENDROOT
BRANCH   3  12
ATOM     12  C   UNL     1      -1.963  12.625  23.129  0.00  0.00    +0.000 C 
ATOM     13  O   UNL     1      -1.691  13.747  23.551  0.00  0.00    +0.000 OA
ATOM     14  N   UNL     1      -3.133  11.972  23.479  0.00  0.00    +0.000 N 
ATOM     15  C   UNL     1      -4.125  12.495  24.383  0.00  0.00    +0.000 C 
ATOM     16  H   UNL     1      -3.340  11.090  23.010  0.00  0.00    +0.000 HD
ENDBRANCH   3  12
BRANCH   2  17
ATOM     17  N   UNL     1      -1.163  13.663  20.589  0.00  0.00    +0.000 N 
ATOM     18  H   UNL     1      -0.656  14.142  19.860  0.00  0.00    +0.000 HD
ATOM     19  H   UNL     1      -2.186  13.737  20.497  0.00  0.00    +0.000 HD
ENDBRANCH   2  17
BRANCH   1  21
ATOM     20  C   UNL     1       1.502  13.024  18.495  0.00  0.00    +0.000 C 
ATOM     21  C   UNL     1       0.315  12.080  18.625  0.00  0.00    +0.000 C 
ENDBRANCH   1  21
BRANCH   9  22
ATOM     22  C   UNL     1       2.543   7.796  18.720  0.00  0.00    +0.000 C 
ATOM     23  C   UNL     1       3.330   7.218  17.858  0.00  0.00    +0.000 C 
BRANCH  23  24
ATOM     24  C   UNL     1       4.250   6.543  16.853  0.00  0.00    +0.000 C 
BRANCH  24  25
ATOM     25  C   UNL     1       4.207   5.081  17.199  0.00  0.00    +0.000 C 
ATOM     26  C   UNL     1       4.827   4.073  16.249  0.00  0.00    +0.000 C 
ATOM     27  C   UNL     1       5.422   4.277  17.616  0.00  0.00    +0.000 C 
ENDBRANCH  24  25
BRANCH  24  28
ATOM     28  O   UNL     1       5.558   7.075  16.969  0.00  0.00    +0.000 OA
ATOM     29  H   UNL     1       5.931   7.070  16.073  0.00  0.00    +0.000 HD
ENDBRANCH  24  28
ENDBRANCH  23  24
ENDBRANCH   9  22
TORSDOF 7
ENDMDL
MODEL 7
REMARK VINA RESULT:      -6.3      4.248      9.883
REMARK  Name = 
REMARK  9 active torsions:
REMARK  status: ('A' for Active; 'I' for Inactive)
REMARK    1  A    between atoms: C_1  and  C_2
REMARK    2  A    between atoms: C_2  and  N_3
REMARK    3  A    between atoms: C_4  and  N_5
REMARK    4  A    between atoms: C_6  and  C_7
REMARK    5  A    between atoms: N_9  and  C_10
REMARK    6  A    between atoms: C_16  and  C_17
REMARK    7  A    between atoms: C_18  and  C_19
REMARK    8  A    between atoms: C_19  and  O_20
REMARK    9  A    between atoms: C_19  and  C_21
REMARK                            x       y       z     vdW  Elec       q    Type
REMARK                         _______ _______ _______ _____ _____    ______ ____
ROOT
ATOM      1  N   UNL     1      -0.143  12.337  19.966  0.00  0.00    +0.000 N 
ATOM      2  C   UNL     1      -0.800  13.547  20.280  0.00  0.00    +0.000 A 
ATOM      3  C   UNL     1      -1.437  13.732  21.476  0.00  0.00    +0.000 A 
ATOM      4  C   UNL     1      -1.362  12.638  22.481  0.00  0.00    +0.000 A 
ATOM      5  O   UNL     1      -1.812  12.764  23.618  0.00  0.00    +0.000 OA
ATOM      6  C   UNL     1      -0.724  11.373  22.114  0.00  0.00    +0.000 A 
ATOM      7  C   UNL     1      -0.758  10.293  23.002  0.00  0.00    +0.000 A 
ATOM      8  C   UNL     1      -0.155   9.098  22.640  0.00  0.00    +0.000 A 
ATOM      9  C   UNL     1       0.477   9.042  21.412  0.00  0.00    +0.000 A 
ATOM     10  N   UNL     1       0.519  10.076  20.541  0.00  0.00    +0.000 NA
ATOM     11  C   UNL     1      -0.101  11.245  20.877  0.00  0.00    +0.000 A 
ENDROOT
BRANCH   3  12
ATOM     12  C   UNL     1      -2.186  15.008  21.798  0.00  0.00    +0.000 C 
ATOM     13  O   UNL     1      -3.152  15.386  21.138  0.00  0.00    +0.000 OA
ATOM     14  N   UNL     1      -1.735  15.705  22.906  0.00  0.00    +0.000 N 
ATOM     15  C   UNL     1      -2.301  16.941  23.384  0.00  0.00    +0.000 C 
ATOM     16  H   UNL     1      -0.996  15.279  23.464  0.00  0.00    +0.000 HD
ENDBRANCH   3  12
BRANCH   2  17
ATOM     17  N   UNL     1      -0.770  14.574  19.354  0.00  0.00    +0.000 N 
ATOM     18  H   UNL     1      -1.522  14.616  18.683  0.00  0.00    +0.000 HD
ATOM     19  H   UNL     1      -0.530  15.489  19.761  0.00  0.00    +0.000 HD
ENDBRANCH   2  17
BRANCH   1  21
ATOM     20  C   UNL     1       1.834  12.458  18.463  0.00  0.00    +0.000 C 
ATOM     21  C   UNL     1       0.396  11.990  18.637  0.00  0.00    +0.000 C 
ENDBRANCH   1  21
BRANCH   9  22
ATOM     22  C   UNL     1       1.155   7.849  21.002  0.00  0.00    +0.000 C 
ATOM     23  C   UNL     1       1.703   6.739  20.593  0.00  0.00    +0.000 C 
BRANCH  23  24
ATOM     24  C   UNL     1       2.342   5.445  20.116  0.00  0.00    +0.000 C 
BRANCH  24  25
ATOM     25  C   UNL     1       1.937   4.409  21.126  0.00  0.00    +0.000 C 
ATOM     26  C   UNL     1       1.134   3.203  20.675  0.00  0.00    +0.000 C 
ATOM     27  C   UNL     1       2.535   3.018  21.194  0.00  0.00    +0.000 C 
ENDBRANCH  24  25
BRANCH  24  28
ATOM     28  O   UNL     1       3.749   5.601  20.054  0.00  0.00    +0.000 OA
ATOM     29  H   UNL     1       4.040   5.781  20.963  0.00  0.00    +0.000 HD
ENDBRANCH  24  28
ENDBRANCH  23  24
ENDBRANCH   9  22
TORSDOF 7
ENDMDL
MODEL 8
REMARK VINA RESULT:      -6.3      4.316      9.281
REMARK  Name = 
REMARK  9 active torsions:
REMARK  status: ('A' for Active; 'I' for Inactive)
REMARK    1  A    between atoms: C_1  and  C_2
REMARK    2  A    between atoms: C_2  and  N_3
REMARK    3  A    between atoms: C_4  and  N_5
REMARK    4  A    between atoms: C_6  and  C_7
REMARK    5  A    between atoms: N_9  and  C_10
REMARK    6  A    between atoms: C_16  and  C_17
REMARK    7  A    between atoms: C_18  and  C_19
REMARK    8  A    between atoms: C_19  and  O_20
REMARK    9  A    between atoms: C_19  and  C_21
REMARK                            x       y       z     vdW  Elec       q    Type
REMARK                         _______ _______ _______ _____ _____    ______ ____
ROOT
ATOM      1  N   UNL     1      -0.373  11.251  19.154  0.00  0.00    +0.000 N 
ATOM      2  C   UNL     1      -0.919  12.548  19.268  0.00  0.00    +0.000 A 
ATOM      3  C   UNL     1      -1.173  13.119  20.485  0.00  0.00    +0.000 A 
ATOM      4  C   UNL     1      -0.792  12.357  21.704  0.00  0.00    +0.000 A 
ATOM      5  O   UNL     1      -0.885  12.838  22.831  0.00  0.00    +0.000 OA
ATOM      6  C   UNL     1      -0.280  10.993  21.563  0.00  0.00    +0.000 A 
ATOM      7  C   UNL     1      -0.038  10.219  22.703  0.00  0.00    +0.000 A 
ATOM      8  C   UNL     1       0.442   8.926  22.555  0.00  0.00    +0.000 A 
ATOM      9  C   UNL     1       0.680   8.470  21.273  0.00  0.00    +0.000 A 
ATOM     10  N   UNL     1       0.452   9.205  20.160  0.00  0.00    +0.000 NA
ATOM     11  C   UNL     1      -0.051  10.466  20.296  0.00  0.00    +0.000 A 
ENDROOT
BRANCH   3  12
ATOM     12  C   UNL     1      -1.805  14.489  20.613  0.00  0.00    +0.000 C 
ATOM     13  O   UNL     1      -1.324  15.486  20.078  0.00  0.00    +0.000 OA
ATOM     14  N   UNL     1      -2.980  14.541  21.343  0.00  0.00    +0.000 N 
ATOM     15  C   UNL     1      -3.740  15.740  21.591  0.00  0.00    +0.000 C 
ATOM     16  H   UNL     1      -3.373  13.659  21.670  0.00  0.00    +0.000 HD
ENDBRANCH   3  12
BRANCH   2  17
ATOM     17  N   UNL     1      -1.175  13.261  18.111  0.00  0.00    +0.000 N 
ATOM     18  H   UNL     1      -1.887  13.974  18.153  0.00  0.00    +0.000 HD
ATOM     19  H   UNL     1      -0.324  13.558  17.613  0.00  0.00    +0.000 HD
ENDBRANCH   2  17
BRANCH   1  21
ATOM     20  C   UNL     1      -1.593   9.972  17.405  0.00  0.00    +0.000 C 
ATOM     21  C   UNL     1      -0.250  10.496  17.892  0.00  0.00    +0.000 C 
ENDBRANCH   1  21
BRANCH   9  22
ATOM     22  C   UNL     1       1.217   7.160  21.060  0.00  0.00    +0.000 C 
ATOM     23  C   UNL     1       1.641   5.950  20.822  0.00  0.00    +0.000 C 
BRANCH  23  24
ATOM     24  C   UNL     1       2.134   4.540  20.543  0.00  0.00    +0.000 C 
BRANCH  24  25
ATOM     25  C   UNL     1       1.091   3.926  19.652  0.00  0.00    +0.000 C 
ATOM     26  C   UNL     1       1.415   3.670  18.192  0.00  0.00    +0.000 C 
ATOM     27  C   UNL     1       1.165   2.509  19.118  0.00  0.00    +0.000 C 
ENDBRANCH  24  25
BRANCH  24  28
ATOM     28  O   UNL     1       2.271   3.831  21.762  0.00  0.00    +0.000 OA
ATOM     29  H   UNL     1       2.099   4.475  22.468  0.00  0.00    +0.000 HD
ENDBRANCH  24  28
ENDBRANCH  23  24
ENDBRANCH   9  22
TORSDOF 7
ENDMDL
MODEL 9
REMARK VINA RESULT:      -6.2      9.017     11.344
REMARK  Name = 
REMARK  9 active torsions:
REMARK  status: ('A' for Active; 'I' for Inactive)
REMARK    1  A    between atoms: C_1  and  C_2
REMARK    2  A    between atoms: C_2  and  N_3
REMARK    3  A    between atoms: C_4  and  N_5
REMARK    4  A    between atoms: C_6  and  C_7
REMARK    5  A    between atoms: N_9  and  C_10
REMARK    6  A    between atoms: C_16  and  C_17
REMARK    7  A    between atoms: C_18  and  C_19
REMARK    8  A    between atoms: C_19  and  O_20
REMARK    9  A    between atoms: C_19  and  C_21
REMARK                            x       y       z     vdW  Elec       q    Type
REMARK                         _______ _______ _______ _____ _____    ______ ____
ROOT
ATOM      1  N   UNL     1       9.006  13.377  21.360  0.00  0.00    +0.000 N 
ATOM      2  C   UNL     1       9.593  14.572  21.832  0.00  0.00    +0.000 A 
ATOM      3  C   UNL     1      10.670  15.140  21.210  0.00  0.00    +0.000 A 
ATOM      4  C   UNL     1      11.174  14.499  19.966  0.00  0.00    +0.000 A 
ATOM      5  O   UNL     1      12.065  15.002  19.287  0.00  0.00    +0.000 OA
ATOM      6  C   UNL     1      10.586  13.233  19.526  0.00  0.00    +0.000 A 
ATOM      7  C   UNL     1      11.132  12.554  18.432  0.00  0.00    +0.000 A 
ATOM      8  C   UNL     1      10.569  11.352  18.029  0.00  0.00    +0.000 A 
ATOM      9  C   UNL     1       9.468  10.892  18.725  0.00  0.00    +0.000 A 
ATOM     10  N   UNL     1       8.926  11.535  19.785  0.00  0.00    +0.000 NA
ATOM     11  C   UNL     1       9.496  12.701  20.208  0.00  0.00    +0.000 A 
ENDROOT
BRANCH   3  12
ATOM     12  C   UNL     1      11.337  16.392  21.741  0.00  0.00    +0.000 C 
ATOM     13  O   UNL     1      11.580  16.548  22.936  0.00  0.00    +0.000 OA
ATOM     14  N   UNL     1      11.686  17.335  20.790  0.00  0.00    +0.000 N 
ATOM     15  C   UNL     1      12.323  18.595  21.079  0.00  0.00    +0.000 C 
ATOM     16  H   UNL     1      11.546  17.092  19.809  0.00  0.00    +0.000 HD
ENDBRANCH   3  12
BRANCH   2  17
ATOM     17  N   UNL     1       9.039  15.187  22.940  0.00  0.00    +0.000 N 
ATOM     18  H   UNL     1       8.033  15.253  22.979  0.00  0.00    +0.000 HD
ATOM     19  H   UNL     1       9.468  14.896  23.830  0.00  0.00    +0.000 HD
ENDBRANCH   2  17
BRANCH   1  21
ATOM     20  C   UNL     1       8.558  11.807  23.235  0.00  0.00    +0.000 C 
ATOM     21  C   UNL     1       7.974  12.604  22.078  0.00  0.00    +0.000 C 
ENDBRANCH   1  21
BRANCH   9  22
ATOM     22  C   UNL     1       8.817   9.680  18.328  0.00  0.00    +0.000 C 
ATOM     23  C   UNL     1       8.155   8.607  17.997  0.00  0.00    +0.000 C 
BRANCH  23  24
ATOM     24  C   UNL     1       7.383   7.356  17.610  0.00  0.00    +0.000 C 
BRANCH  24  25
ATOM     25  C   UNL     1       7.756   6.328  18.640  0.00  0.00    +0.000 C 
ATOM     26  C   UNL     1       6.674   5.450  19.243  0.00  0.00    +0.000 C 
ATOM     27  C   UNL     1       7.746   4.834  18.384  0.00  0.00    +0.000 C 
ENDBRANCH  24  25
BRANCH  24  28
ATOM     28  O   UNL     1       7.751   6.951  16.303  0.00  0.00    +0.000 OA
ATOM     29  H   UNL     1       8.712   6.812  16.325  0.00  0.00    +0.000 HD
ENDBRANCH  24  28
ENDBRANCH  23  24
ENDBRANCH   9  22
TORSDOF 7
ENDMDL
