MODEL 1
REMARK VINA RESULT:      -6.6      0.000      0.000
REMARK  Name = 
REMARK  7 active torsions:
REMARK  status: ('A' for Active; 'I' for Inactive)
REMARK    1  A    between atoms: C_1  and  N_2
REMARK    2  A    between atoms: C_3  and  N_4
REMARK    3  A    between atoms: C_5  and  C_6
REMARK    4  A    between atoms: C_6  and  C_8
REMARK    5  A    between atoms: C_8  and  S_9
REMARK    6  A    between atoms: S_9  and  C_10
REMARK    7  A    between atoms: N_18  and  C_19
REMARK                            x       y       z     vdW  Elec       q    Type
REMARK                         _______ _______ _______ _____ _____    ______ ____
ROOT
ATOM      1  C   UNL     1       2.398   1.910  18.838  0.00  0.00    +0.000 C 
ATOM      2  N   UNL     1       3.036   3.212  18.657  0.00  0.00    +0.000 N 
ATOM      3  C   UNL     1       4.382   3.437  18.937  0.00  0.00    +0.000 A 
ATOM      4  C   UNL     1       4.911   4.674  18.730  0.00  0.00    +0.000 A 
ATOM      5  C   UNL     1       4.016   5.751  18.229  0.00  0.00    +0.000 A 
ATOM      6  O   UNL     1       4.463   6.868  17.973  0.00  0.00    +0.000 OA
ATOM      7  N   UNL     1       2.687   5.461  18.071  0.00  0.00    +0.000 N 
ATOM      8  C   UNL     1       1.776   6.508  17.637  0.00  0.00    +0.000 C 
ATOM      9  C   UNL     1       2.155   4.198  18.228  0.00  0.00    +0.000 A 
ATOM     10  O   UNL     1       0.969   3.972  18.000  0.00  0.00    +0.000 OA
ENDROOT
BRANCH   3  11
ATOM     11  N   UNL     1       5.146   2.391  19.440  0.00  0.00    +0.000 N 
ATOM     12  H   UNL     1       4.619   1.592  19.770  0.00  0.00    +0.000 HD
ATOM     13  H   UNL     1       5.894   2.091  18.797  0.00  0.00    +0.000 HD
ENDBRANCH   3  11
BRANCH   4  14
ATOM     14  C   UNL     1       6.386   4.964  18.998  0.00  0.00    +0.000 C 
ATOM     15  O   UNL     1       6.754   5.263  20.141  0.00  0.00    +0.000 OA
BRANCH  14  16
ATOM     16  C   UNL     1       7.376   4.869  17.835  0.00  0.00    +0.000 C 
BRANCH  16  17
ATOM     17  S   UNL     1       7.213   6.214  16.623  0.00  0.00    +0.000 S 
BRANCH  17  18
ATOM     18  C   UNL     1       7.048   5.298  15.146  0.00  0.00    +0.000 A 
ATOM     19  N   UNL     1       7.806   5.499  14.091  0.00  0.00    +0.000 NA
ATOM     20  N   UNL     1       7.445   4.679  13.037  0.00  0.00    +0.000 NA
ATOM     21  C   UNL     1       6.435   3.893  13.341  0.00  0.00    +0.000 A 
ATOM     22  N   UNL     1       5.864   3.018  12.494  0.00  0.00    +0.000 N 
ATOM     23  S   UNL     1       5.885   4.059  14.958  0.00  0.00    +0.000 S 
ATOM     24  H   UNL     1       6.376   2.795  11.649  0.00  0.00    +0.000 HD
ATOM     25  H   UNL     1       5.307   2.262  12.873  0.00  0.00    +0.000 HD
ENDBRANCH  17  18
ENDBRANCH  16  17
ENDBRANCH  14  16
ENDBRANCH   4  14
TORSDOF 5
ENDMDL
MODEL 2
REMARK VINA RESULT:      -6.5      3.399      4.624
REMARK  Name = 
REMARK  7 active torsions:
REMARK  status: ('A' for Active; 'I' for Inactive)
REMARK    1  A    between atoms: C_1  and  N_2
REMARK    2  A    between atoms: C_3  and  N_4
REMARK    3  A    between atoms: C_5  and  C_6
REMARK    4  A    between atoms: C_6  and  C_8
REMARK    5  A    between atoms: C_8  and  S_9
REMARK    6  A    between atoms: S_9  and  C_10
REMARK    7  A    between atoms: N_18  and  C_19
REMARK                            x       y       z     vdW  Elec       q    Type
REMARK                         _______ _______ _______ _____ _____    ______ ____
ROOT
ATOM      1  C   UNL     1       0.644   8.832  22.329  0.00  0.00    +0.000 C 
ATOM      2  N   UNL     1       1.093   8.913  20.941  0.00  0.00    +0.000 N 
ATOM      3  C   UNL     1       1.717   7.852  20.287  0.00  0.00    +0.000 A 
ATOM      4  C   UNL     1       2.096   7.996  18.988  0.00  0.00    +0.000 A 
ATOM      5  C   UNL     1       1.847   9.302  18.319  0.00  0.00    +0.000 A 
ATOM      6  O   UNL     1       2.121   9.457  17.131  0.00  0.00    +0.000 OA
ATOM      7  N   UNL     1       1.314  10.316  19.069  0.00  0.00    +0.000 N 
ATOM      8  C   UNL     1       1.111  11.620  18.459  0.00  0.00    +0.000 C 
ATOM      9  C   UNL     1       0.880  10.162  20.369  0.00  0.00    +0.000 A 
ATOM     10  O   UNL     1       0.337  11.083  20.974  0.00  0.00    +0.000 OA
ENDROOT
BRANCH   3  11
ATOM     11  N   UNL     1       1.952   6.676  20.990  0.00  0.00    +0.000 N 
ATOM     12  H   UNL     1       1.948   5.832  20.430  0.00  0.00    +0.000 HD
ATOM     13  H   UNL     1       2.798   6.718  21.577  0.00  0.00    +0.000 HD
ENDBRANCH   3  11
BRANCH   4  14
ATOM     14  C   UNL     1       2.760   6.854  18.221  0.00  0.00    +0.000 C 
ATOM     15  O   UNL     1       2.184   5.763  18.127  0.00  0.00    +0.000 OA
BRANCH  14  16
ATOM     16  C   UNL     1       4.128   7.098  17.581  0.00  0.00    +0.000 C 
BRANCH  16  17
ATOM     17  S   UNL     1       5.433   5.995  18.198  0.00  0.00    +0.000 S 
BRANCH  17  18
ATOM     18  C   UNL     1       6.064   5.371  16.695  0.00  0.00    +0.000 A 
ATOM     19  N   UNL     1       7.180   5.806  16.152  0.00  0.00    +0.000 NA
ATOM     20  N   UNL     1       7.436   5.186  14.942  0.00  0.00    +0.000 NA
ATOM     21  C   UNL     1       6.509   4.308  14.626  0.00  0.00    +0.000 A 
ATOM     22  N   UNL     1       6.494   3.584  13.493  0.00  0.00    +0.000 N 
ATOM     23  S   UNL     1       5.279   4.136  15.811  0.00  0.00    +0.000 S 
ATOM     24  H   UNL     1       7.354   3.551  12.957  0.00  0.00    +0.000 HD
ATOM     25  H   UNL     1       5.931   2.743  13.456  0.00  0.00    +0.000 HD
ENDBRANCH  17  18
ENDBRANCH  16  17
ENDBRANCH  14  16
ENDBRANCH   4  14
TORSDOF 5
ENDMDL
MODEL 3
REMARK VINA RESULT:      -6.5      3.038      5.642
REMARK  Name = 
REMARK  7 active torsions:
REMARK  status: ('A' for Active; 'I' for Inactive)
REMARK    1  A    between atoms: C_1  and  N_2
REMARK    2  A    between atoms: C_3  and  N_4
REMARK    3  A    between atoms: C_5  and  C_6
REMARK    4  A    between atoms: C_6  and  C_8
REMARK    5  A    between atoms: C_8  and  S_9
REMARK    6  A    between atoms: S_9  and  C_10
REMARK    7  A    between atoms: N_18  and  C_19
REMARK                            x       y       z     vdW  Elec       q    Type
REMARK                         _______ _______ _______ _____ _____    ______ ____
ROOT
ATOM      1  C   UNL     1       6.172   3.879  14.632  0.00  0.00    +0.000 C 
ATOM      2  N   UNL     1       6.110   4.272  16.037  0.00  0.00    +0.000 N 
ATOM      3  C   UNL     1       5.266   3.651  16.957  0.00  0.00    +0.000 A 
ATOM      4  C   UNL     1       5.273   4.063  18.255  0.00  0.00    +0.000 A 
ATOM      5  C   UNL     1       6.173   5.184  18.637  0.00  0.00    +0.000 A 
ATOM      6  O   UNL     1       6.254   5.549  19.808  0.00  0.00    +0.000 OA
ATOM      7  N   UNL     1       6.897   5.793  17.647  0.00  0.00    +0.000 N 
ATOM      8  C   UNL     1       7.743   6.928  17.979  0.00  0.00    +0.000 C 
ATOM      9  C   UNL     1       6.935   5.348  16.342  0.00  0.00    +0.000 A 
ATOM     10  O   UNL     1       7.660   5.883  15.506  0.00  0.00    +0.000 OA
ENDROOT
BRANCH   3  11
ATOM     11  N   UNL     1       4.424   2.638  16.517  0.00  0.00    +0.000 N 
ATOM     12  H   UNL     1       4.873   1.910  15.974  0.00  0.00    +0.000 HD
ATOM     13  H   UNL     1       3.856   2.227  17.273  0.00  0.00    +0.000 HD
ENDBRANCH   3  11
BRANCH   4  14
ATOM     14  C   UNL     1       4.385   3.398  19.305  0.00  0.00    +0.000 C 
ATOM     15  O   UNL     1       4.870   2.561  20.077  0.00  0.00    +0.000 OA
BRANCH  14  16
ATOM     16  C   UNL     1       2.909   3.795  19.374  0.00  0.00    +0.000 C 
BRANCH  16  17
ATOM     17  S   UNL     1       2.551   5.070  20.618  0.00  0.00    +0.000 S 
BRANCH  17  18
ATOM     18  C   UNL     1       2.367   6.474  19.596  0.00  0.00    +0.000 A 
ATOM     19  N   UNL     1       2.752   6.500  18.339  0.00  0.00    +0.000 NA
ATOM     20  N   UNL     1       2.540   7.739  17.764  0.00  0.00    +0.000 NA
ATOM     21  C   UNL     1       2.000   8.593  18.606  0.00  0.00    +0.000 A 
ATOM     22  N   UNL     1       1.715   9.876  18.318  0.00  0.00    +0.000 N 
ATOM     23  S   UNL     1       1.662   7.929  20.152  0.00  0.00    +0.000 S 
ATOM     24  H   UNL     1       1.712  10.138  17.339  0.00  0.00    +0.000 HD
ATOM     25  H   UNL     1       1.051  10.373  18.900  0.00  0.00    +0.000 HD
ENDBRANCH  17  18
ENDBRANCH  16  17
ENDBRANCH  14  16
ENDBRANCH   4  14
TORSDOF 5
ENDMDL
MODEL 4
REMARK VINA RESULT:      -6.4      3.123      5.962
REMARK  Name = 
REMARK  7 active torsions:
REMARK  status: ('A' for Active; 'I' for Inactive)
REMARK    1  A    between atoms: C_1  and  N_2
REMARK    2  A    between atoms: C_3  and  N_4
REMARK    3  A    between atoms: C_5  and  C_6
REMARK    4  A    between atoms: C_6  and  C_8
REMARK    5  A    between atoms: C_8  and  S_9
REMARK    6  A    between atoms: S_9  and  C_10
REMARK    7  A    between atoms: N_18  and  C_19
REMARK                            x       y       z     vdW  Elec       q    Type
REMARK                         _______ _______ _______ _____ _____    ______ ____
ROOT
ATOM      1  C   UNL     1       5.949   4.146  14.452  0.00  0.00    +0.000 C 
ATOM      2  N   UNL     1       5.871   4.483  15.872  0.00  0.00    +0.000 N 
ATOM      3  C   UNL     1       4.911   3.940  16.724  0.00  0.00    +0.000 A 
ATOM      4  C   UNL     1       4.909   4.291  18.040  0.00  0.00    +0.000 A 
ATOM      5  C   UNL     1       5.928   5.267  18.513  0.00  0.00    +0.000 A 
ATOM      6  O   UNL     1       5.999   5.568  19.703  0.00  0.00    +0.000 OA
ATOM      7  N   UNL     1       6.770   5.818  17.585  0.00  0.00    +0.000 N 
ATOM      8  C   UNL     1       7.739   6.816  18.007  0.00  0.00    +0.000 C 
ATOM      9  C   UNL     1       6.813   5.428  16.262  0.00  0.00    +0.000 A 
ATOM     10  O   UNL     1       7.641   5.898  15.485  0.00  0.00    +0.000 OA
ENDROOT
BRANCH   3  11
ATOM     11  N   UNL     1       3.967   3.066  16.200  0.00  0.00    +0.000 N 
ATOM     12  H   UNL     1       4.332   2.171  15.895  0.00  0.00    +0.000 HD
ATOM     13  H   UNL     1       3.152   2.933  16.818  0.00  0.00    +0.000 HD
ENDBRANCH   3  11
BRANCH   4  14
ATOM     14  C   UNL     1       3.894   3.704  19.018  0.00  0.00    +0.000 C 
ATOM     15  O   UNL     1       4.188   2.699  19.677  0.00  0.00    +0.000 OA
BRANCH  14  16
ATOM     16  C   UNL     1       2.532   4.387  19.158  0.00  0.00    +0.000 C 
BRANCH  16  17
ATOM     17  S   UNL     1       2.368   5.393  20.663  0.00  0.00    +0.000 S 
BRANCH  17  18
ATOM     18  C   UNL     1       2.064   6.965  19.967  0.00  0.00    +0.000 A 
ATOM     19  N   UNL     1       1.443   7.927  20.615  0.00  0.00    +0.000 NA
ATOM     20  N   UNL     1       1.286   9.055  19.830  0.00  0.00    +0.000 NA
ATOM     21  C   UNL     1       1.797   8.900  18.628  0.00  0.00    +0.000 A 
ATOM     22  N   UNL     1       1.758   9.827  17.655  0.00  0.00    +0.000 N 
ATOM     23  S   UNL     1       2.557   7.381  18.383  0.00  0.00    +0.000 S 
ATOM     24  H   UNL     1       1.517  10.772  17.929  0.00  0.00    +0.000 HD
ATOM     25  H   UNL     1       2.409   9.755  16.882  0.00  0.00    +0.000 HD
ENDBRANCH  17  18
ENDBRANCH  16  17
ENDBRANCH  14  16
ENDBRANCH   4  14
TORSDOF 5
ENDMDL
MODEL 5
REMARK VINA RESULT:      -6.3      3.123      6.235
REMARK  Name = 
REMARK  7 active torsions:
REMARK  status: ('A' for Active; 'I' for Inactive)
REMARK    1  A    between atoms: C_1  and  N_2
REMARK    2  A    between atoms: C_3  and  N_4
REMARK    3  A    between atoms: C_5  and  C_6
REMARK    4  A    between atoms: C_6  and  C_8
REMARK    5  A    between atoms: C_8  and  S_9
REMARK    6  A    between atoms: S_9  and  C_10
REMARK    7  A    between atoms: N_18  and  C_19
REMARK                            x       y       z     vdW  Elec       q    Type
REMARK                         _______ _______ _______ _____ _____    ______ ____
ROOT
ATOM      1  C   UNL     1       7.298   5.821  19.240  0.00  0.00    +0.000 C 
ATOM      2  N   UNL     1       6.577   5.222  18.121  0.00  0.00    +0.000 N 
ATOM      3  C   UNL     1       5.521   4.328  18.296  0.00  0.00    +0.000 A 
ATOM      4  C   UNL     1       4.886   3.820  17.203  0.00  0.00    +0.000 A 
ATOM      5  C   UNL     1       5.366   4.225  15.855  0.00  0.00    +0.000 A 
ATOM      6  O   UNL     1       4.785   3.836  14.843  0.00  0.00    +0.000 OA
ATOM      7  N   UNL     1       6.469   5.033  15.780  0.00  0.00    +0.000 N 
ATOM      8  C   UNL     1       6.995   5.401  14.476  0.00  0.00    +0.000 C 
ATOM      9  C   UNL     1       7.083   5.594  16.880  0.00  0.00    +0.000 A 
ATOM     10  O   UNL     1       8.024   6.375  16.757  0.00  0.00    +0.000 OA
ENDROOT
BRANCH   3  11
ATOM     11  N   UNL     1       5.156   3.966  19.586  0.00  0.00    +0.000 N 
ATOM     12  H   UNL     1       5.134   2.970  19.764  0.00  0.00    +0.000 HD
ATOM     13  H   UNL     1       5.705   4.451  20.313  0.00  0.00    +0.000 HD
ENDBRANCH   3  11
BRANCH   4  14
ATOM     14  C   UNL     1       3.709   2.858  17.344  0.00  0.00    +0.000 C 
ATOM     15  O   UNL     1       3.888   1.739  17.840  0.00  0.00    +0.000 OA
BRANCH  14  16
ATOM     16  C   UNL     1       2.328   3.315  16.869  0.00  0.00    +0.000 C 
BRANCH  16  17
ATOM     17  S   UNL     1       1.703   4.784  17.737  0.00  0.00    +0.000 S 
BRANCH  17  18
ATOM     18  C   UNL     1       1.733   4.218  19.389  0.00  0.00    +0.000 A 
ATOM     19  N   UNL     1       2.399   4.830  20.343  0.00  0.00    +0.000 NA
ATOM     20  N   UNL     1       2.302   4.158  21.548  0.00  0.00    +0.000 NA
ATOM     21  C   UNL     1       1.565   3.072  21.455  0.00  0.00    +0.000 A 
ATOM     22  N   UNL     1       1.330   2.218  22.466  0.00  0.00    +0.000 N 
ATOM     23  S   UNL     1       0.891   2.819  19.897  0.00  0.00    +0.000 S 
ATOM     24  H   UNL     1       1.549   2.540  23.401  0.00  0.00    +0.000 HD
ATOM     25  H   UNL     1       0.539   1.588  22.401  0.00  0.00    +0.000 HD
ENDBRANCH  17  18
ENDBRANCH  16  17
ENDBRANCH  14  16
ENDBRANCH   4  14
TORSDOF 5
ENDMDL
MODEL 6
REMARK VINA RESULT:      -6.3      3.279      4.595
REMARK  Name = 
REMARK  7 active torsions:
REMARK  status: ('A' for Active; 'I' for Inactive)
REMARK    1  A    between atoms: C_1  and  N_2
REMARK    2  A    between atoms: C_3  and  N_4
REMARK    3  A    between atoms: C_5  and  C_6
REMARK    4  A    between atoms: C_6  and  C_8
REMARK    5  A    between atoms: C_8  and  S_9
REMARK    6  A    between atoms: S_9  and  C_10
REMARK    7  A    between atoms: N_18  and  C_19
REMARK                            x       y       z     vdW  Elec       q    Type
REMARK                         _______ _______ _______ _____ _____    ______ ____
ROOT
ATOM      1  C   UNL     1       0.189   8.640  22.087  0.00  0.00    +0.000 C 
ATOM      2  N   UNL     1       0.896   8.556  20.811  0.00  0.00    +0.000 N 
ATOM      3  C   UNL     1       1.550   7.400  20.387  0.00  0.00    +0.000 A 
ATOM      4  C   UNL     1       2.176   7.391  19.178  0.00  0.00    +0.000 A 
ATOM      5  C   UNL     1       2.157   8.634  18.362  0.00  0.00    +0.000 A 
ATOM      6  O   UNL     1       2.660   8.653  17.241  0.00  0.00    +0.000 OA
ATOM      7  N   UNL     1       1.570   9.748  18.902  0.00  0.00    +0.000 N 
ATOM      8  C   UNL     1       1.584  10.994  18.152  0.00  0.00    +0.000 C 
ATOM      9  C   UNL     1       0.889   9.750  20.101  0.00  0.00    +0.000 A 
ATOM     10  O   UNL     1       0.312  10.758  20.505  0.00  0.00    +0.000 OA
ENDROOT
BRANCH   3  11
ATOM     11  N   UNL     1       1.559   6.290  21.223  0.00  0.00    +0.000 N 
ATOM     12  H   UNL     1       1.021   5.498  20.893  0.00  0.00    +0.000 HD
ATOM     13  H   UNL     1       2.509   5.995  21.493  0.00  0.00    +0.000 HD
ENDBRANCH   3  11
BRANCH   4  14
ATOM     14  C   UNL     1       2.885   6.141  18.659  0.00  0.00    +0.000 C 
ATOM     15  O   UNL     1       2.372   5.480  17.748  0.00  0.00    +0.000 OA
BRANCH  14  16
ATOM     16  C   UNL     1       4.224   5.745  19.284  0.00  0.00    +0.000 C 
BRANCH  16  17
ATOM     17  S   UNL     1       4.730   4.040  18.913  0.00  0.00    +0.000 S 
BRANCH  17  18
ATOM     18  C   UNL     1       5.891   4.318  17.639  0.00  0.00    +0.000 A 
ATOM     19  N   UNL     1       7.189   4.344  17.847  0.00  0.00    +0.000 NA
ATOM     20  N   UNL     1       7.888   4.629  16.688  0.00  0.00    +0.000 NA
ATOM     21  C   UNL     1       7.091   4.803  15.656  0.00  0.00    +0.000 A 
ATOM     22  N   UNL     1       7.503   5.119  14.415  0.00  0.00    +0.000 N 
ATOM     23  S   UNL     1       5.428   4.577  16.013  0.00  0.00    +0.000 S 
ATOM     24  H   UNL     1       8.489   5.002  14.214  0.00  0.00    +0.000 HD
ATOM     25  H   UNL     1       6.881   4.949  13.634  0.00  0.00    +0.000 HD
ENDBRANCH  17  18
ENDBRANCH  16  17
ENDBRANCH  14  16
ENDBRANCH   4  14
TORSDOF 5
ENDMDL
MODEL 7
REMARK VINA RESULT:      -6.2      3.158      5.777
REMARK  Name = 
REMARK  7 active torsions:
REMARK  status: ('A' for Active; 'I' for Inactive)
REMARK    1  A    between atoms: C_1  and  N_2
REMARK    2  A    between atoms: C_3  and  N_4
REMARK    3  A    between atoms: C_5  and  C_6
REMARK    4  A    between atoms: C_6  and  C_8
REMARK    5  A    between atoms: C_8  and  S_9
REMARK    6  A    between atoms: S_9  and  C_10
REMARK    7  A    between atoms: N_18  and  C_19
REMARK                            x       y       z     vdW  Elec       q    Type
REMARK                         _______ _______ _______ _____ _____    ______ ____
ROOT
ATOM      1  C   UNL     1       7.927   6.627  18.015  0.00  0.00    +0.000 C 
ATOM      2  N   UNL     1       6.896   5.653  17.664  0.00  0.00    +0.000 N 
ATOM      3  C   UNL     1       6.123   4.996  18.621  0.00  0.00    +0.000 A 
ATOM      4  C   UNL     1       5.171   4.110  18.218  0.00  0.00    +0.000 A 
ATOM      5  C   UNL     1       5.008   3.860  16.761  0.00  0.00    +0.000 A 
ATOM      6  O   UNL     1       4.123   3.112  16.351  0.00  0.00    +0.000 OA
ATOM      7  N   UNL     1       5.876   4.480  15.902  0.00  0.00    +0.000 N 
ATOM      8  C   UNL     1       5.778   4.212  14.476  0.00  0.00    +0.000 C 
ATOM      9  C   UNL     1       6.806   5.418  16.297  0.00  0.00    +0.000 A 
ATOM     10  O   UNL     1       7.510   6.004  15.477  0.00  0.00    +0.000 OA
ENDROOT
BRANCH   3  11
ATOM     11  N   UNL     1       6.361   5.253  19.966  0.00  0.00    +0.000 N 
ATOM     12  H   UNL     1       6.944   6.059  20.154  0.00  0.00    +0.000 HD
ATOM     13  H   UNL     1       5.498   5.290  20.529  0.00  0.00    +0.000 HD
ENDBRANCH   3  11
BRANCH   4  14
ATOM     14  C   UNL     1       4.282   3.385  19.227  0.00  0.00    +0.000 C 
ATOM     15  O   UNL     1       4.770   2.514  19.958  0.00  0.00    +0.000 OA
BRANCH  14  16
ATOM     16  C   UNL     1       2.803   3.767  19.308  0.00  0.00    +0.000 C 
BRANCH  16  17
ATOM     17  S   UNL     1       2.436   5.016  20.575  0.00  0.00    +0.000 S 
BRANCH  17  18
ATOM     18  C   UNL     1       2.271   6.443  19.583  0.00  0.00    +0.000 A 
ATOM     19  N   UNL     1       2.590   6.468  18.307  0.00  0.00    +0.000 NA
ATOM     20  N   UNL     1       2.413   7.726  17.760  0.00  0.00    +0.000 NA
ATOM     21  C   UNL     1       1.964   8.594  18.640  0.00  0.00    +0.000 A 
ATOM     22  N   UNL     1       1.730   9.893  18.384  0.00  0.00    +0.000 N 
ATOM     23  S   UNL     1       1.674   7.924  20.193  0.00  0.00    +0.000 S 
ATOM     24  H   UNL     1       1.689  10.170  17.410  0.00  0.00    +0.000 HD
ATOM     25  H   UNL     1       1.125  10.414  19.007  0.00  0.00    +0.000 HD
ENDBRANCH  17  18
ENDBRANCH  16  17
ENDBRANCH  14  16
ENDBRANCH   4  14
TORSDOF 5
ENDMDL
MODEL 8
REMARK VINA RESULT:      -6.1      3.273      4.937
REMARK  Name = 
REMARK  7 active torsions:
REMARK  status: ('A' for Active; 'I' for Inactive)
REMARK    1  A    between atoms: C_1  and  N_2
REMARK    2  A    between atoms: C_3  and  N_4
REMARK    3  A    between atoms: C_5  and  C_6
REMARK    4  A    between atoms: C_6  and  C_8
REMARK    5  A    between atoms: C_8  and  S_9
REMARK    6  A    between atoms: S_9  and  C_10
REMARK    7  A    between atoms: N_18  and  C_19
REMARK                            x       y       z     vdW  Elec       q    Type
REMARK                         _______ _______ _______ _____ _____    ______ ____
ROOT
ATOM      1  C   UNL     1       1.993  10.694  17.937  0.00  0.00    +0.000 C 
ATOM      2  N   UNL     1       1.835   9.501  18.765  0.00  0.00    +0.000 N 
ATOM      3  C   UNL     1       2.366   8.262  18.411  0.00  0.00    +0.000 A 
ATOM      4  C   UNL     1       2.190   7.197  19.241  0.00  0.00    +0.000 A 
ATOM      5  C   UNL     1       1.413   7.397  20.493  0.00  0.00    +0.000 A 
ATOM      6  O   UNL     1       1.280   6.477  21.299  0.00  0.00    +0.000 OA
ATOM      7  N   UNL     1       0.851   8.626  20.712  0.00  0.00    +0.000 N 
ATOM      8  C   UNL     1       0.039   8.836  21.899  0.00  0.00    +0.000 C 
ATOM      9  C   UNL     1       1.068   9.722  19.903  0.00  0.00    +0.000 A 
ATOM     10  O   UNL     1       0.603  10.824  20.185  0.00  0.00    +0.000 OA
ENDROOT
BRANCH   3  11
ATOM     11  N   UNL     1       3.046   8.144  17.205  0.00  0.00    +0.000 N 
ATOM     12  H   UNL     1       3.679   7.356  17.144  0.00  0.00    +0.000 HD
ATOM     13  H   UNL     1       2.422   8.172  16.384  0.00  0.00    +0.000 HD
ENDBRANCH   3  11
BRANCH   4  14
ATOM     14  C   UNL     1       2.774   5.825  18.908  0.00  0.00    +0.000 C 
ATOM     15  O   UNL     1       2.220   5.113  18.061  0.00  0.00    +0.000 OA
BRANCH  14  16
ATOM     16  C   UNL     1       4.041   5.371  19.636  0.00  0.00    +0.000 C 
BRANCH  16  17
ATOM     17  S   UNL     1       4.640   3.737  19.114  0.00  0.00    +0.000 S 
BRANCH  17  18
ATOM     18  C   UNL     1       5.799   4.195  17.890  0.00  0.00    +0.000 A 
ATOM     19  N   UNL     1       7.066   4.424  18.155  0.00  0.00    +0.000 NA
ATOM     20  N   UNL     1       7.762   4.816  17.025  0.00  0.00    +0.000 NA
ATOM     21  C   UNL     1       6.995   4.861  15.958  0.00  0.00    +0.000 A 
ATOM     22  N   UNL     1       7.406   5.238  14.735  0.00  0.00    +0.000 N 
ATOM     23  S   UNL     1       5.374   4.376  16.244  0.00  0.00    +0.000 S 
ATOM     24  H   UNL     1       8.407   5.278  14.578  0.00  0.00    +0.000 HD
ATOM     25  H   UNL     1       6.855   4.972  13.928  0.00  0.00    +0.000 HD
ENDBRANCH  17  18
ENDBRANCH  16  17
ENDBRANCH  14  16
ENDBRANCH   4  14
TORSDOF 5
ENDMDL
MODEL 9
REMARK VINA RESULT:      -6.1      4.237      5.992
REMARK  Name = 
REMARK  7 active torsions:
REMARK  status: ('A' for Active; 'I' for Inactive)
REMARK    1  A    between atoms: C_1  and  N_2
REMARK    2  A    between atoms: C_3  and  N_4
REMARK    3  A    between atoms: C_5  and  C_6
REMARK    4  A    between atoms: C_6  and  C_8
REMARK    5  A    between atoms: C_8  and  S_9
REMARK    6  A    between atoms: S_9  and  C_10
REMARK    7  A    between atoms: N_18  and  C_19
REMARK                            x       y       z     vdW  Elec       q    Type
REMARK                         _______ _______ _______ _____ _____    ______ ____
ROOT
ATOM      1  C   UNL     1       0.337   8.133  21.665  0.00  0.00    +0.000 C 
ATOM      2  N   UNL     1       1.172   8.113  20.467  0.00  0.00    +0.000 N 
ATOM      3  C   UNL     1       2.034   7.059  20.166  0.00  0.00    +0.000 A 
ATOM      4  C   UNL     1       2.772   7.103  19.023  0.00  0.00    +0.000 A 
ATOM      5  C   UNL     1       2.644   8.297  18.145  0.00  0.00    +0.000 A 
ATOM      6  O   UNL     1       3.248   8.353  17.075  0.00  0.00    +0.000 OA
ATOM      7  N   UNL     1       1.844   9.324  18.569  0.00  0.00    +0.000 N 
ATOM      8  C   UNL     1       1.743  10.528  17.759  0.00  0.00    +0.000 C 
ATOM      9  C   UNL     1       1.054   9.264  19.697  0.00  0.00    +0.000 A 
ATOM     10  O   UNL     1       0.294  10.183  19.994  0.00  0.00    +0.000 OA
ENDROOT
BRANCH   3  11
ATOM     11  N   UNL     1       2.128   5.996  21.056  0.00  0.00    +0.000 N 
ATOM     12  H   UNL     1       3.070   5.674  21.243  0.00  0.00    +0.000 HD
ATOM     13  H   UNL     1       1.619   6.159  21.938  0.00  0.00    +0.000 HD
ENDBRANCH   3  11
BRANCH   4  14
ATOM     14  C   UNL     1       3.710   5.962  18.638  0.00  0.00    +0.000 C 
ATOM     15  O   UNL     1       4.660   5.673  19.377  0.00  0.00    +0.000 OA
BRANCH  14  16
ATOM     16  C   UNL     1       3.442   5.198  17.339  0.00  0.00    +0.000 C 
BRANCH  16  17
ATOM     17  S   UNL     1       3.561   3.393  17.512  0.00  0.00    +0.000 S 
BRANCH  17  18
ATOM     18  C   UNL     1       2.582   3.141  18.935  0.00  0.00    +0.000 A 
ATOM     19  N   UNL     1       1.303   3.442  18.987  0.00  0.00    +0.000 NA
ATOM     20  N   UNL     1       0.768   3.192  20.238  0.00  0.00    +0.000 NA
ATOM     21  C   UNL     1       1.660   2.710  21.074  0.00  0.00    +0.000 A 
ATOM     22  N   UNL     1       1.418   2.406  22.362  0.00  0.00    +0.000 N 
ATOM     23  S   UNL     1       3.212   2.475  20.379  0.00  0.00    +0.000 S 
ATOM     24  H   UNL     1       0.447   2.338  22.643  0.00  0.00    +0.000 HD
ATOM     25  H   UNL     1       2.052   1.782  22.846  0.00  0.00    +0.000 HD
ENDBRANCH  17  18
ENDBRANCH  16  17
ENDBRANCH  14  16
ENDBRANCH   4  14
TORSDOF 5
ENDMDL
