MODEL 1
REMARK VINA RESULT:      -7.2      0.000      0.000
REMARK  Name = 
REMARK  11 active torsions:
REMARK  status: ('A' for Active; 'I' for Inactive)
REMARK    1  A    between atoms: C_1  and  C_2
REMARK    2  A    between atoms: C_2  and  C_3
REMARK    3  A    between atoms: C_3  and  C_4
REMARK    4  A    between atoms: C_4  and  C_5
REMARK    5  A    between atoms: C_8  and  C_9
REMARK    6  A    between atoms: C_9  and  C_11
REMARK    7  A    between atoms: C_13  and  O_14
REMARK    8  A    between atoms: O_14  and  C_15
REMARK    9  A    between atoms: C_16  and  C_17
REMARK   10  A    between atoms: C_25  and  O_26
REMARK   11  A    between atoms: O_26  and  C_27
REMARK                            x       y       z     vdW  Elec       q    Type
REMARK                         _______ _______ _______ _____ _____    ______ ____
ROOT
ATOM      1  C   UNL     1      -0.238  10.710  18.449  0.00  0.00    +0.000 A 
ATOM      2  C   UNL     1      -1.072  10.055  17.550  0.00  0.00    +0.000 A 
ATOM      3  C   UNL     1      -2.455  10.282  17.571  0.00  0.00    +0.000 A 
ATOM      4  C   UNL     1      -3.034  11.229  18.470  0.00  0.00    +0.000 A 
ATOM      5  C   UNL     1      -2.143  11.900  19.362  0.00  0.00    +0.000 A 
ATOM      6  C   UNL     1      -0.763  11.651  19.328  0.00  0.00    +0.000 A 
ENDROOT
BRANCH   4   7
ATOM      7  C   UNL     1      -4.514  11.515  18.465  0.00  0.00    +0.000 A 
ATOM      8  C   UNL     1      -5.393  10.926  19.394  0.00  0.00    +0.000 A 
ATOM      9  C   UNL     1      -6.776  11.135  19.336  0.00  0.00    +0.000 A 
ATOM     10 CL   UNL     1      -7.809  10.299  20.430  0.00  0.00    +0.000 Cl
ATOM     11  C   UNL     1      -7.326  11.998  18.398  0.00  0.00    +0.000 A 
ATOM     12  C   UNL     1      -6.478  12.632  17.503  0.00  0.00    +0.000 A 
ATOM     13 CL   UNL     1      -7.127  13.748  16.362  0.00  0.00    +0.000 Cl
ATOM     14  C   UNL     1      -5.102  12.374  17.515  0.00  0.00    +0.000 A 
ENDBRANCH   4   7
BRANCH   1  15
ATOM     15  C   UNL     1       1.204  10.373  18.421  0.00  0.00    +0.000 C 
ATOM     16  O   UNL     1       2.009  11.240  18.091  0.00  0.00    +0.000 OA
BRANCH  15  20
ATOM     17  C   UNL     1       2.633   6.476  19.510  0.00  0.00    +0.000 A 
ATOM     18  C   UNL     1       1.903   7.263  20.410  0.00  0.00    +0.000 A 
ATOM     19  C   UNL     1       1.435   8.521  20.034  0.00  0.00    +0.000 A 
ATOM     20  C   UNL     1       1.698   9.015  18.755  0.00  0.00    +0.000 A 
ATOM     21  C   UNL     1       2.457   8.251  17.859  0.00  0.00    +0.000 A 
ATOM     22  C   UNL     1       2.908   6.981  18.232  0.00  0.00    +0.000 A 
BRANCH  17  23
ATOM     23  C   UNL     1       3.145   5.116  19.918  0.00  0.00    +0.000 C 
BRANCH  23  24
ATOM     24  C   UNL     1       2.648   3.973  19.028  0.00  0.00    +0.000 C 
BRANCH  24  26
ATOM     25  C   UNL     1       0.750   2.337  18.798  0.00  0.00    +0.000 C 
ATOM     26  C   UNL     1       1.133   3.780  19.094  0.00  0.00    +0.000 C 
ENDBRANCH  24  26
ENDBRANCH  23  24
ENDBRANCH  17  23
ENDBRANCH  15  20
ENDBRANCH   1  15
BRANCH   3  27
ATOM     27  O   UNL     1      -3.276   9.626  16.681  0.00  0.00    +0.000 OA
ATOM     28  C   UNL     1      -3.157  10.010  15.310  0.00  0.00    +0.000 C 
ENDBRANCH   3  27
BRANCH   5  29
ATOM     29  O   UNL     1      -2.694  12.767  20.279  0.00  0.00    +0.000 OA
ATOM     30  C   UNL     1      -2.094  12.877  21.565  0.00  0.00    +0.000 C 
ENDBRANCH   5  29
TORSDOF 8
ENDMDL
MODEL 2
REMARK VINA RESULT:      -7.2      3.787      5.747
REMARK  Name = 
REMARK  11 active torsions:
REMARK  status: ('A' for Active; 'I' for Inactive)
REMARK    1  A    between atoms: C_1  and  C_2
REMARK    2  A    between atoms: C_2  and  C_3
REMARK    3  A    between atoms: C_3  and  C_4
REMARK    4  A    between atoms: C_4  and  C_5
REMARK    5  A    between atoms: C_8  and  C_9
REMARK    6  A    between atoms: C_9  and  C_11
REMARK    7  A    between atoms: C_13  and  O_14
REMARK    8  A    between atoms: O_14  and  C_15
REMARK    9  A    between atoms: C_16  and  C_17
REMARK   10  A    between atoms: C_25  and  O_26
REMARK   11  A    between atoms: O_26  and  C_27
REMARK                            x       y       z     vdW  Elec       q    Type
REMARK                         _______ _______ _______ _____ _____    ______ ____
ROOT
ATOM      1  C   UNL     1       2.268   7.325  19.425  0.00  0.00    +0.000 A 
ATOM      2  C   UNL     1       1.517   7.447  20.587  0.00  0.00    +0.000 A 
ATOM      3  C   UNL     1       0.767   8.607  20.827  0.00  0.00    +0.000 A 
ATOM      4  C   UNL     1       0.708   9.661  19.865  0.00  0.00    +0.000 A 
ATOM      5  C   UNL     1       1.473   9.489  18.671  0.00  0.00    +0.000 A 
ATOM      6  C   UNL     1       2.223   8.322  18.457  0.00  0.00    +0.000 A 
ENDROOT
BRANCH   4   7
ATOM      7  C   UNL     1      -0.135  10.889  20.094  0.00  0.00    +0.000 A 
ATOM      8  C   UNL     1      -1.471  10.973  19.654  0.00  0.00    +0.000 A 
ATOM      9  C   UNL     1      -2.224  12.144  19.800  0.00  0.00    +0.000 A 
ATOM     10 CL   UNL     1      -3.813  12.220  19.142  0.00  0.00    +0.000 Cl
ATOM     11  C   UNL     1      -1.700  13.248  20.457  0.00  0.00    +0.000 A 
ATOM     12  C   UNL     1      -0.404  13.177  20.946  0.00  0.00    +0.000 A 
ATOM     13 CL   UNL     1       0.253  14.514  21.811  0.00  0.00    +0.000 Cl
ATOM     14  C   UNL     1       0.375  12.032  20.743  0.00  0.00    +0.000 A 
ENDBRANCH   4   7
BRANCH   1  15
ATOM     15  C   UNL     1       3.094   6.106  19.263  0.00  0.00    +0.000 C 
ATOM     16  O   UNL     1       3.111   5.277  20.171  0.00  0.00    +0.000 OA
BRANCH  15  20
ATOM     17  C   UNL     1       5.478   5.303  15.787  0.00  0.00    +0.000 A 
ATOM     18  C   UNL     1       4.666   4.315  16.359  0.00  0.00    +0.000 A 
ATOM     19  C   UNL     1       3.887   4.598  17.479  0.00  0.00    +0.000 A 
ATOM     20  C   UNL     1       3.917   5.871  18.052  0.00  0.00    +0.000 A 
ATOM     21  C   UNL     1       4.751   6.856  17.509  0.00  0.00    +0.000 A 
ATOM     22  C   UNL     1       5.515   6.575  16.372  0.00  0.00    +0.000 A 
BRANCH  17  23
ATOM     23  C   UNL     1       6.325   4.995  14.576  0.00  0.00    +0.000 C 
BRANCH  23  24
ATOM     24  C   UNL     1       6.066   3.612  13.971  0.00  0.00    +0.000 C 
BRANCH  24  26
ATOM     25  C   UNL     1       4.823   3.256  11.813  0.00  0.00    +0.000 C 
ATOM     26  C   UNL     1       6.163   3.598  12.446  0.00  0.00    +0.000 C 
ENDBRANCH  24  26
ENDBRANCH  23  24
ENDBRANCH  17  23
ENDBRANCH  15  20
ENDBRANCH   1  15
BRANCH   3  27
ATOM     27  O   UNL     1       0.029   8.725  21.984  0.00  0.00    +0.000 OA
ATOM     28  C   UNL     1       0.695   9.311  23.103  0.00  0.00    +0.000 C 
ENDBRANCH   3  27
BRANCH   5  29
ATOM     29  O   UNL     1       1.479  10.524  17.764  0.00  0.00    +0.000 OA
ATOM     30  C   UNL     1       2.521  11.491  17.834  0.00  0.00    +0.000 C 
ENDBRANCH   5  29
TORSDOF 8
ENDMDL
MODEL 3
REMARK VINA RESULT:      -7.1      0.898      3.218
REMARK  Name = 
REMARK  11 active torsions:
REMARK  status: ('A' for Active; 'I' for Inactive)
REMARK    1  A    between atoms: C_1  and  C_2
REMARK    2  A    between atoms: C_2  and  C_3
REMARK    3  A    between atoms: C_3  and  C_4
REMARK    4  A    between atoms: C_4  and  C_5
REMARK    5  A    between atoms: C_8  and  C_9
REMARK    6  A    between atoms: C_9  and  C_11
REMARK    7  A    between atoms: C_13  and  O_14
REMARK    8  A    between atoms: O_14  and  C_15
REMARK    9  A    between atoms: C_16  and  C_17
REMARK   10  A    between atoms: C_25  and  O_26
REMARK   11  A    between atoms: O_26  and  C_27
REMARK                            x       y       z     vdW  Elec       q    Type
REMARK                         _______ _______ _______ _____ _____    ______ ____
ROOT
ATOM      1  C   UNL     1      -0.264  10.495  18.472  0.00  0.00    +0.000 A 
ATOM      2  C   UNL     1      -0.819  11.345  19.421  0.00  0.00    +0.000 A 
ATOM      3  C   UNL     1      -2.181  11.673  19.367  0.00  0.00    +0.000 A 
ATOM      4  C   UNL     1      -3.041  11.101  18.379  0.00  0.00    +0.000 A 
ATOM      5  C   UNL     1      -2.438  10.213  17.436  0.00  0.00    +0.000 A 
ATOM      6  C   UNL     1      -1.071   9.906  17.505  0.00  0.00    +0.000 A 
ENDROOT
BRANCH   4   7
ATOM      7  C   UNL     1      -4.515  11.410  18.345  0.00  0.00    +0.000 A 
ATOM      8  C   UNL     1      -5.065  12.337  17.439  0.00  0.00    +0.000 A 
ATOM      9  C   UNL     1      -6.423  12.676  17.464  0.00  0.00    +0.000 A 
ATOM     10 CL   UNL     1      -7.013  13.898  16.403  0.00  0.00    +0.000 Cl
ATOM     11  C   UNL     1      -7.296  12.051  18.343  0.00  0.00    +0.000 A 
ATOM     12  C   UNL     1      -6.792  11.097  19.213  0.00  0.00    +0.000 A 
ATOM     13 CL   UNL     1      -7.861  10.267  20.278  0.00  0.00    +0.000 Cl
ATOM     14  C   UNL     1      -5.423  10.803  19.236  0.00  0.00    +0.000 A 
ENDBRANCH   4   7
BRANCH   1  15
ATOM     15  C   UNL     1       1.194  10.244  18.542  0.00  0.00    +0.000 C 
ATOM     16  O   UNL     1       1.967  11.162  18.279  0.00  0.00    +0.000 OA
BRANCH  15  20
ATOM     17  C   UNL     1       2.796   6.365  19.439  0.00  0.00    +0.000 A 
ATOM     18  C   UNL     1       3.070   7.004  18.223  0.00  0.00    +0.000 A 
ATOM     19  C   UNL     1       2.553   8.270  17.955  0.00  0.00    +0.000 A 
ATOM     20  C   UNL     1       1.744   8.912  18.895  0.00  0.00    +0.000 A 
ATOM     21  C   UNL     1       1.436   8.268  20.100  0.00  0.00    +0.000 A 
ATOM     22  C   UNL     1       1.973   7.006  20.374  0.00  0.00    +0.000 A 
BRANCH  17  23
ATOM     23  C   UNL     1       3.352   4.991  19.728  0.00  0.00    +0.000 C 
BRANCH  23  24
ATOM     24  C   UNL     1       4.527   4.596  18.829  0.00  0.00    +0.000 C 
BRANCH  24  26
ATOM     25  C   UNL     1       4.857   3.934  16.424  0.00  0.00    +0.000 C 
ATOM     26  C   UNL     1       4.130   3.617  17.722  0.00  0.00    +0.000 C 
ENDBRANCH  24  26
ENDBRANCH  23  24
ENDBRANCH  17  23
ENDBRANCH  15  20
ENDBRANCH   1  15
BRANCH   3  27
ATOM     27  O   UNL     1      -2.725  12.519  20.307  0.00  0.00    +0.000 OA
ATOM     28  C   UNL     1      -1.904  12.823  21.436  0.00  0.00    +0.000 C 
ENDBRANCH   3  27
BRANCH   5  29
ATOM     29  O   UNL     1      -3.240   9.706  16.439  0.00  0.00    +0.000 OA
ATOM     30  C   UNL     1      -3.096  10.215  15.118  0.00  0.00    +0.000 C 
ENDBRANCH   5  29
TORSDOF 8
ENDMDL
MODEL 4
REMARK VINA RESULT:      -7.1      0.496      2.561
REMARK  Name = 
REMARK  11 active torsions:
REMARK  status: ('A' for Active; 'I' for Inactive)
REMARK    1  A    between atoms: C_1  and  C_2
REMARK    2  A    between atoms: C_2  and  C_3
REMARK    3  A    between atoms: C_3  and  C_4
REMARK    4  A    between atoms: C_4  and  C_5
REMARK    5  A    between atoms: C_8  and  C_9
REMARK    6  A    between atoms: C_9  and  C_11
REMARK    7  A    between atoms: C_13  and  O_14
REMARK    8  A    between atoms: O_14  and  C_15
REMARK    9  A    between atoms: C_16  and  C_17
REMARK   10  A    between atoms: C_25  and  O_26
REMARK   11  A    between atoms: O_26  and  C_27
REMARK                            x       y       z     vdW  Elec       q    Type
REMARK                         _______ _______ _______ _____ _____    ______ ____
ROOT
ATOM      1  C   UNL     1      -0.404  10.626  18.410  0.00  0.00    +0.000 A 
ATOM      2  C   UNL     1      -0.877  11.552  19.332  0.00  0.00    +0.000 A 
ATOM      3  C   UNL     1      -2.228  11.927  19.330  0.00  0.00    +0.000 A 
ATOM      4  C   UNL     1      -3.159  11.331  18.426  0.00  0.00    +0.000 A 
ATOM      5  C   UNL     1      -2.641  10.366  17.509  0.00  0.00    +0.000 A 
ATOM      6  C   UNL     1      -1.283  10.012  17.525  0.00  0.00    +0.000 A 
ENDROOT
BRANCH   4   7
ATOM      7  C   UNL     1      -4.621  11.693  18.451  0.00  0.00    +0.000 A 
ATOM      8  C   UNL     1      -5.503  11.183  19.424  0.00  0.00    +0.000 A 
ATOM      9  C   UNL     1      -6.874  11.461  19.396  0.00  0.00    +0.000 A 
ATOM     10 CL   UNL     1      -7.916  10.718  20.548  0.00  0.00    +0.000 Cl
ATOM     11  C   UNL     1      -7.407  12.317  18.442  0.00  0.00    +0.000 A 
ATOM     12  C   UNL     1      -6.554  12.875  17.502  0.00  0.00    +0.000 A 
ATOM     13 CL   UNL     1      -7.178  13.982  16.338  0.00  0.00    +0.000 Cl
ATOM     14  C   UNL     1      -5.193  12.547  17.486  0.00  0.00    +0.000 A 
ENDBRANCH   4   7
BRANCH   1  15
ATOM     15  C   UNL     1       1.046  10.325  18.419  0.00  0.00    +0.000 C 
ATOM     16  O   UNL     1       1.831  11.176  18.007  0.00  0.00    +0.000 OA
BRANCH  15  20
ATOM     17  C   UNL     1       2.569   6.506  19.647  0.00  0.00    +0.000 A 
ATOM     18  C   UNL     1       2.780   6.993  18.351  0.00  0.00    +0.000 A 
ATOM     19  C   UNL     1       2.291   8.242  17.973  0.00  0.00    +0.000 A 
ATOM     20  C   UNL     1       1.572   9.019  18.885  0.00  0.00    +0.000 A 
ATOM     21  C   UNL     1       1.326   8.526  20.173  0.00  0.00    +0.000 A 
ATOM     22  C   UNL     1       1.836   7.282  20.554  0.00  0.00    +0.000 A 
BRANCH  17  23
ATOM     23  C   UNL     1       3.095   5.150  20.054  0.00  0.00    +0.000 C 
BRANCH  23  24
ATOM     24  C   UNL     1       2.069   4.021  19.923  0.00  0.00    +0.000 C 
BRANCH  24  26
ATOM     25  C   UNL     1       1.458   3.763  17.496  0.00  0.00    +0.000 C 
ATOM     26  C   UNL     1       2.256   3.187  18.656  0.00  0.00    +0.000 C 
ENDBRANCH  24  26
ENDBRANCH  23  24
ENDBRANCH  17  23
ENDBRANCH  15  20
ENDBRANCH   1  15
BRANCH   3  27
ATOM     27  O   UNL     1      -2.690  12.849  20.244  0.00  0.00    +0.000 OA
ATOM     28  C   UNL     1      -2.637  12.459  21.617  0.00  0.00    +0.000 C 
ENDBRANCH   3  27
BRANCH   5  29
ATOM     29  O   UNL     1      -3.513   9.831  16.589  0.00  0.00    +0.000 OA
ATOM     30  C   UNL     1      -3.340  10.153  15.213  0.00  0.00    +0.000 C 
ENDBRANCH   5  29
TORSDOF 8
ENDMDL
MODEL 5
REMARK VINA RESULT:      -7.1      3.664      5.481
REMARK  Name = 
REMARK  11 active torsions:
REMARK  status: ('A' for Active; 'I' for Inactive)
REMARK    1  A    between atoms: C_1  and  C_2
REMARK    2  A    between atoms: C_2  and  C_3
REMARK    3  A    between atoms: C_3  and  C_4
REMARK    4  A    between atoms: C_4  and  C_5
REMARK    5  A    between atoms: C_8  and  C_9
REMARK    6  A    between atoms: C_9  and  C_11
REMARK    7  A    between atoms: C_13  and  O_14
REMARK    8  A    between atoms: O_14  and  C_15
REMARK    9  A    between atoms: C_16  and  C_17
REMARK   10  A    between atoms: C_25  and  O_26
REMARK   11  A    between atoms: O_26  and  C_27
REMARK                            x       y       z     vdW  Elec       q    Type
REMARK                         _______ _______ _______ _____ _____    ______ ____
ROOT
ATOM      1  C   UNL     1       2.049   6.902  20.023  0.00  0.00    +0.000 A 
ATOM      2  C   UNL     1       2.174   7.731  18.915  0.00  0.00    +0.000 A 
ATOM      3  C   UNL     1       1.448   8.928  18.840  0.00  0.00    +0.000 A 
ATOM      4  C   UNL     1       0.612   9.354  19.916  0.00  0.00    +0.000 A 
ATOM      5  C   UNL     1       0.527   8.488  21.049  0.00  0.00    +0.000 A 
ATOM      6  C   UNL     1       1.257   7.290  21.098  0.00  0.00    +0.000 A 
ENDROOT
BRANCH   4   7
ATOM      7  C   UNL     1      -0.133  10.663  19.864  0.00  0.00    +0.000 A 
ATOM      8  C   UNL     1       0.402  11.850  20.402  0.00  0.00    +0.000 A 
ATOM      9  C   UNL     1      -0.327  13.046  20.419  0.00  0.00    +0.000 A 
ATOM     10 CL   UNL     1       0.337  14.435  21.190  0.00  0.00    +0.000 Cl
ATOM     11  C   UNL     1      -1.584  13.121  19.835  0.00  0.00    +0.000 A 
ATOM     12  C   UNL     1      -2.114  11.980  19.253  0.00  0.00    +0.000 A 
ATOM     13 CL   UNL     1      -3.649  12.057  18.475  0.00  0.00    +0.000 Cl
ATOM     14  C   UNL     1      -1.417  10.767  19.292  0.00  0.00    +0.000 A 
ENDBRANCH   4   7
BRANCH   1  15
ATOM     15  C   UNL     1       2.788   5.619  20.010  0.00  0.00    +0.000 C 
ATOM     16  O   UNL     1       2.715   4.883  20.991  0.00  0.00    +0.000 OA
BRANCH  15  20
ATOM     17  C   UNL     1       5.165   4.329  16.679  0.00  0.00    +0.000 A 
ATOM     18  C   UNL     1       3.893   3.795  16.917  0.00  0.00    +0.000 A 
ATOM     19  C   UNL     1       3.128   4.236  17.995  0.00  0.00    +0.000 A 
ATOM     20  C   UNL     1       3.631   5.212  18.859  0.00  0.00    +0.000 A 
ATOM     21  C   UNL     1       4.916   5.728  18.650  0.00  0.00    +0.000 A 
ATOM     22  C   UNL     1       5.671   5.298  17.555  0.00  0.00    +0.000 A 
BRANCH  17  23
ATOM     23  C   UNL     1       5.995   3.848  15.513  0.00  0.00    +0.000 C 
BRANCH  23  24
ATOM     24  C   UNL     1       5.558   4.421  14.161  0.00  0.00    +0.000 C 
BRANCH  24  26
ATOM     25  C   UNL     1       5.090   3.264  11.977  0.00  0.00    +0.000 C 
ATOM     26  C   UNL     1       6.164   3.676  12.972  0.00  0.00    +0.000 C 
ENDBRANCH  24  26
ENDBRANCH  23  24
ENDBRANCH  17  23
ENDBRANCH  15  20
ENDBRANCH   1  15
BRANCH   3  27
ATOM     27  O   UNL     1       1.573   9.744  17.737  0.00  0.00    +0.000 OA
ATOM     28  C   UNL     1       2.556  10.777  17.823  0.00  0.00    +0.000 C 
ENDBRANCH   3  27
BRANCH   5  29
ATOM     29  O   UNL     1      -0.326   8.852  22.066  0.00  0.00    +0.000 OA
ATOM     30  C   UNL     1       0.220   9.450  23.237  0.00  0.00    +0.000 C 
ENDBRANCH   5  29
TORSDOF 8
ENDMDL
MODEL 6
REMARK VINA RESULT:      -7.1      3.760      5.485
REMARK  Name = 
REMARK  11 active torsions:
REMARK  status: ('A' for Active; 'I' for Inactive)
REMARK    1  A    between atoms: C_1  and  C_2
REMARK    2  A    between atoms: C_2  and  C_3
REMARK    3  A    between atoms: C_3  and  C_4
REMARK    4  A    between atoms: C_4  and  C_5
REMARK    5  A    between atoms: C_8  and  C_9
REMARK    6  A    between atoms: C_9  and  C_11
REMARK    7  A    between atoms: C_13  and  O_14
REMARK    8  A    between atoms: O_14  and  C_15
REMARK    9  A    between atoms: C_16  and  C_17
REMARK   10  A    between atoms: C_25  and  O_26
REMARK   11  A    between atoms: O_26  and  C_27
REMARK                            x       y       z     vdW  Elec       q    Type
REMARK                         _______ _______ _______ _____ _____    ______ ____
ROOT
ATOM      1  C   UNL     1       2.220   7.238  19.634  0.00  0.00    +0.000 A 
ATOM      2  C   UNL     1       2.227   8.200  18.631  0.00  0.00    +0.000 A 
ATOM      3  C   UNL     1       1.426   9.346  18.743  0.00  0.00    +0.000 A 
ATOM      4  C   UNL     1       0.633   9.582  19.906  0.00  0.00    +0.000 A 
ATOM      5  C   UNL     1       0.670   8.583  20.927  0.00  0.00    +0.000 A 
ATOM      6  C   UNL     1       1.473   7.440  20.789  0.00  0.00    +0.000 A 
ENDROOT
BRANCH   4   7
ATOM      7  C   UNL     1      -0.191  10.835  20.055  0.00  0.00    +0.000 A 
ATOM      8  C   UNL     1      -1.514  10.922  19.579  0.00  0.00    +0.000 A 
ATOM      9  C   UNL     1      -2.247  12.112  19.651  0.00  0.00    +0.000 A 
ATOM     10 CL   UNL     1      -3.818  12.186  18.951  0.00  0.00    +0.000 Cl
ATOM     11  C   UNL     1      -1.718  13.237  20.268  0.00  0.00    +0.000 A 
ATOM     12  C   UNL     1      -0.436  13.165  20.792  0.00  0.00    +0.000 A 
ATOM     13 CL   UNL     1       0.226  14.530  21.609  0.00  0.00    +0.000 Cl
ATOM     14  C   UNL     1       0.325  11.998  20.663  0.00  0.00    +0.000 A 
ENDBRANCH   4   7
BRANCH   1  15
ATOM     15  C   UNL     1       3.033   6.018  19.423  0.00  0.00    +0.000 C 
ATOM     16  O   UNL     1       3.057   5.162  20.304  0.00  0.00    +0.000 OA
BRANCH  15  20
ATOM     17  C   UNL     1       5.386   5.312  15.905  0.00  0.00    +0.000 A 
ATOM     18  C   UNL     1       4.790   4.258  16.608  0.00  0.00    +0.000 A 
ATOM     19  C   UNL     1       4.018   4.506  17.741  0.00  0.00    +0.000 A 
ATOM     20  C   UNL     1       3.837   5.815  18.194  0.00  0.00    +0.000 A 
ATOM     21  C   UNL     1       4.457   6.874  17.518  0.00  0.00    +0.000 A 
ATOM     22  C   UNL     1       5.215   6.623  16.371  0.00  0.00    +0.000 A 
BRANCH  17  23
ATOM     23  C   UNL     1       6.228   5.043  14.681  0.00  0.00    +0.000 C 
BRANCH  23  24
ATOM     24  C   UNL     1       5.945   3.690  14.019  0.00  0.00    +0.000 C 
BRANCH  24  26
ATOM     25  C   UNL     1       5.092   3.086  11.731  0.00  0.00    +0.000 C 
ATOM     26  C   UNL     1       6.247   3.683  12.520  0.00  0.00    +0.000 C 
ENDBRANCH  24  26
ENDBRANCH  23  24
ENDBRANCH  17  23
ENDBRANCH  15  20
ENDBRANCH   1  15
BRANCH   3  27
ATOM     27  O   UNL     1       1.434  10.294  17.744  0.00  0.00    +0.000 OA
ATOM     28  C   UNL     1       2.463  11.282  17.818  0.00  0.00    +0.000 C 
ENDBRANCH   3  27
BRANCH   5  29
ATOM     29  O   UNL     1      -0.139   8.765  22.025  0.00  0.00    +0.000 OA
ATOM     30  C   UNL     1       0.412   9.369  23.190  0.00  0.00    +0.000 C 
ENDBRANCH   5  29
TORSDOF 8
ENDMDL
MODEL 7
REMARK VINA RESULT:      -7.0      2.328      4.113
REMARK  Name = 
REMARK  11 active torsions:
REMARK  status: ('A' for Active; 'I' for Inactive)
REMARK    1  A    between atoms: C_1  and  C_2
REMARK    2  A    between atoms: C_2  and  C_3
REMARK    3  A    between atoms: C_3  and  C_4
REMARK    4  A    between atoms: C_4  and  C_5
REMARK    5  A    between atoms: C_8  and  C_9
REMARK    6  A    between atoms: C_9  and  C_11
REMARK    7  A    between atoms: C_13  and  O_14
REMARK    8  A    between atoms: O_14  and  C_15
REMARK    9  A    between atoms: C_16  and  C_17
REMARK   10  A    between atoms: C_25  and  O_26
REMARK   11  A    between atoms: O_26  and  C_27
REMARK                            x       y       z     vdW  Elec       q    Type
REMARK                         _______ _______ _______ _____ _____    ______ ____
ROOT
ATOM      1  C   UNL     1       0.543  10.748  19.108  0.00  0.00    +0.000 A 
ATOM      2  C   UNL     1       0.919  11.498  20.215  0.00  0.00    +0.000 A 
ATOM      3  C   UNL     1      -0.023  12.291  20.887  0.00  0.00    +0.000 A 
ATOM      4  C   UNL     1      -1.395  12.302  20.492  0.00  0.00    +0.000 A 
ATOM      5  C   UNL     1      -1.749  11.499  19.365  0.00  0.00    +0.000 A 
ATOM      6  C   UNL     1      -0.787  10.720  18.703  0.00  0.00    +0.000 A 
ENDROOT
BRANCH   4   7
ATOM      7  C   UNL     1      -2.423  13.112  21.239  0.00  0.00    +0.000 A 
ATOM      8  C   UNL     1      -2.746  14.433  20.873  0.00  0.00    +0.000 A 
ATOM      9  C   UNL     1      -3.644  15.207  21.618  0.00  0.00    +0.000 A 
ATOM     10 CL   UNL     1      -3.912  16.851  21.184  0.00  0.00    +0.000 Cl
ATOM     11  C   UNL     1      -4.310  14.668  22.711  0.00  0.00    +0.000 A 
ATOM     12  C   UNL     1      -4.050  13.353  23.064  0.00  0.00    +0.000 A 
ATOM     13 CL   UNL     1      -4.900  12.643  24.383  0.00  0.00    +0.000 Cl
ATOM     14  C   UNL     1      -3.103  12.598  22.362  0.00  0.00    +0.000 A 
ENDBRANCH   4   7
BRANCH   1  15
ATOM     15  C   UNL     1       1.599   9.988  18.400  0.00  0.00    +0.000 C 
ATOM     16  O   UNL     1       2.205  10.531  17.480  0.00  0.00    +0.000 OA
BRANCH  15  20
ATOM     17  C   UNL     1       2.549   5.963  19.546  0.00  0.00    +0.000 A 
ATOM     18  C   UNL     1       1.939   6.851  20.441  0.00  0.00    +0.000 A 
ATOM     19  C   UNL     1       1.625   8.151  20.047  0.00  0.00    +0.000 A 
ATOM     20  C   UNL     1       1.926   8.585  18.754  0.00  0.00    +0.000 A 
ATOM     21  C   UNL     1       2.566   7.715  17.862  0.00  0.00    +0.000 A 
ATOM     22  C   UNL     1       2.862   6.406  18.254  0.00  0.00    +0.000 A 
BRANCH  17  23
ATOM     23  C   UNL     1       2.894   4.557  19.974  0.00  0.00    +0.000 C 
BRANCH  23  24
ATOM     24  C   UNL     1       2.167   4.097  21.241  0.00  0.00    +0.000 C 
BRANCH  24  26
ATOM     25  C   UNL     1       0.866   2.801  19.521  0.00  0.00    +0.000 C 
ATOM     26  C   UNL     1       1.223   2.920  20.995  0.00  0.00    +0.000 C 
ENDBRANCH  24  26
ENDBRANCH  23  24
ENDBRANCH  17  23
ENDBRANCH  15  20
ENDBRANCH   1  15
BRANCH   3  27
ATOM     27  O   UNL     1       0.357  13.036  21.981  0.00  0.00    +0.000 OA
ATOM     28  C   UNL     1       0.996  14.284  21.705  0.00  0.00    +0.000 C 
ENDBRANCH   3  27
BRANCH   5  29
ATOM     29  O   UNL     1      -3.054  11.550  18.931  0.00  0.00    +0.000 OA
ATOM     30  C   UNL     1      -3.338  11.236  17.572  0.00  0.00    +0.000 C 
ENDBRANCH   5  29
TORSDOF 8
ENDMDL
MODEL 8
REMARK VINA RESULT:      -7.0      3.962      5.965
REMARK  Name = 
REMARK  11 active torsions:
REMARK  status: ('A' for Active; 'I' for Inactive)
REMARK    1  A    between atoms: C_1  and  C_2
REMARK    2  A    between atoms: C_2  and  C_3
REMARK    3  A    between atoms: C_3  and  C_4
REMARK    4  A    between atoms: C_4  and  C_5
REMARK    5  A    between atoms: C_8  and  C_9
REMARK    6  A    between atoms: C_9  and  C_11
REMARK    7  A    between atoms: C_13  and  O_14
REMARK    8  A    between atoms: O_14  and  C_15
REMARK    9  A    between atoms: C_16  and  C_17
REMARK   10  A    between atoms: C_25  and  O_26
REMARK   11  A    between atoms: O_26  and  C_27
REMARK                            x       y       z     vdW  Elec       q    Type
REMARK                         _______ _______ _______ _____ _____    ______ ____
ROOT
ATOM      1  C   UNL     1       2.596   7.141  19.245  0.00  0.00    +0.000 A 
ATOM      2  C   UNL     1       1.805   7.278  20.379  0.00  0.00    +0.000 A 
ATOM      3  C   UNL     1       1.009   8.418  20.555  0.00  0.00    +0.000 A 
ATOM      4  C   UNL     1       0.945   9.436  19.555  0.00  0.00    +0.000 A 
ATOM      5  C   UNL     1       1.753   9.249  18.392  0.00  0.00    +0.000 A 
ATOM      6  C   UNL     1       2.548   8.102  18.241  0.00  0.00    +0.000 A 
ENDROOT
BRANCH   4   7
ATOM      7  C   UNL     1       0.054  10.641  19.714  0.00  0.00    +0.000 A 
ATOM      8  C   UNL     1       0.469  11.791  20.413  0.00  0.00    +0.000 A 
ATOM      9  C   UNL     1      -0.391  12.876  20.624  0.00  0.00    +0.000 A 
ATOM     10 CL   UNL     1       0.138  14.205  21.582  0.00  0.00    +0.000 Cl
ATOM     11  C   UNL     1      -1.668  12.886  20.082  0.00  0.00    +0.000 A 
ATOM     12  C   UNL     1      -2.086  11.789  19.345  0.00  0.00    +0.000 A 
ATOM     13 CL   UNL     1      -3.646  11.797  18.616  0.00  0.00    +0.000 Cl
ATOM     14  C   UNL     1      -1.253  10.674  19.188  0.00  0.00    +0.000 A 
ENDBRANCH   4   7
BRANCH   1  15
ATOM     15  C   UNL     1       3.466   5.946  19.153  0.00  0.00    +0.000 C 
ATOM     16  O   UNL     1       3.497   5.161  20.097  0.00  0.00    +0.000 OA
BRANCH  15  20
ATOM     17  C   UNL     1       5.892   5.077  15.721  0.00  0.00    +0.000 A 
ATOM     18  C   UNL     1       4.748   4.324  16.015  0.00  0.00    +0.000 A 
ATOM     19  C   UNL     1       3.964   4.630  17.126  0.00  0.00    +0.000 A 
ATOM     20  C   UNL     1       4.319   5.687  17.966  0.00  0.00    +0.000 A 
ATOM     21  C   UNL     1       5.480   6.425  17.701  0.00  0.00    +0.000 A 
ATOM     22  C   UNL     1       6.252   6.128  16.574  0.00  0.00    +0.000 A 
BRANCH  17  23
ATOM     23  C   UNL     1       6.744   4.743  14.520  0.00  0.00    +0.000 C 
BRANCH  23  24
ATOM     24  C   UNL     1       6.142   3.666  13.612  0.00  0.00    +0.000 C 
BRANCH  24  26
ATOM     25  C   UNL     1       6.857   2.437  11.536  0.00  0.00    +0.000 C 
ATOM     26  C   UNL     1       6.582   3.800  12.154  0.00  0.00    +0.000 C 
ENDBRANCH  24  26
ENDBRANCH  23  24
ENDBRANCH  17  23
ENDBRANCH  15  20
ENDBRANCH   1  15
BRANCH   3  27
ATOM     27  O   UNL     1       0.231   8.550  21.684  0.00  0.00    +0.000 OA
ATOM     28  C   UNL     1       0.862   9.139  22.822  0.00  0.00    +0.000 C 
ENDBRANCH   3  27
BRANCH   5  29
ATOM     29  O   UNL     1       1.752  10.251  17.449  0.00  0.00    +0.000 OA
ATOM     30  C   UNL     1       2.606  11.374  17.641  0.00  0.00    +0.000 C 
ENDBRANCH   5  29
TORSDOF 8
ENDMDL
MODEL 9
REMARK VINA RESULT:      -7.0      3.799      5.916
REMARK  Name = 
REMARK  11 active torsions:
REMARK  status: ('A' for Active; 'I' for Inactive)
REMARK    1  A    between atoms: C_1  and  C_2
REMARK    2  A    between atoms: C_2  and  C_3
REMARK    3  A    between atoms: C_3  and  C_4
REMARK    4  A    between atoms: C_4  and  C_5
REMARK    5  A    between atoms: C_8  and  C_9
REMARK    6  A    between atoms: C_9  and  C_11
REMARK    7  A    between atoms: C_13  and  O_14
REMARK    8  A    between atoms: O_14  and  C_15
REMARK    9  A    between atoms: C_16  and  C_17
REMARK   10  A    between atoms: C_25  and  O_26
REMARK   11  A    between atoms: O_26  and  C_27
REMARK                            x       y       z     vdW  Elec       q    Type
REMARK                         _______ _______ _______ _____ _____    ______ ____
ROOT
ATOM      1  C   UNL     1       2.430   6.882  19.579  0.00  0.00    +0.000 A 
ATOM      2  C   UNL     1       1.637   7.160  20.685  0.00  0.00    +0.000 A 
ATOM      3  C   UNL     1       0.918   8.361  20.758  0.00  0.00    +0.000 A 
ATOM      4  C   UNL     1       0.934   9.298  19.680  0.00  0.00    +0.000 A 
ATOM      5  C   UNL     1       1.741   8.967  18.549  0.00  0.00    +0.000 A 
ATOM      6  C   UNL     1       2.459   7.761  18.502  0.00  0.00    +0.000 A 
ENDROOT
BRANCH   4   7
ATOM      7  C   UNL     1       0.124  10.568  19.729  0.00  0.00    +0.000 A 
ATOM      8  C   UNL     1       0.627  11.755  20.297  0.00  0.00    +0.000 A 
ATOM      9  C   UNL     1      -0.157  12.909  20.410  0.00  0.00    +0.000 A 
ATOM     10 CL   UNL     1       0.477  14.293  21.214  0.00  0.00    +0.000 Cl
ATOM     11  C   UNL     1      -1.445  12.946  19.893  0.00  0.00    +0.000 A 
ATOM     12  C   UNL     1      -1.949  11.808  19.282  0.00  0.00    +0.000 A 
ATOM     13 CL   UNL     1      -3.524  11.842  18.587  0.00  0.00    +0.000 Cl
ATOM     14  C   UNL     1      -1.192  10.632  19.227  0.00  0.00    +0.000 A 
ENDBRANCH   4   7
BRANCH   1  15
ATOM     15  C   UNL     1       3.220   5.629  19.595  0.00  0.00    +0.000 C 
ATOM     16  O   UNL     1       3.159   4.902  20.584  0.00  0.00    +0.000 OA
BRANCH  15  20
ATOM     17  C   UNL     1       5.822   4.621  16.335  0.00  0.00    +0.000 A 
ATOM     18  C   UNL     1       6.201   5.552  17.310  0.00  0.00    +0.000 A 
ATOM     19  C   UNL     1       5.349   5.857  18.370  0.00  0.00    +0.000 A 
ATOM     20  C   UNL     1       4.099   5.242  18.465  0.00  0.00    +0.000 A 
ATOM     21  C   UNL     1       3.695   4.335  17.476  0.00  0.00    +0.000 A 
ATOM     22  C   UNL     1       4.561   4.016  16.426  0.00  0.00    +0.000 A 
BRANCH  17  23
ATOM     23  C   UNL     1       6.743   4.294  15.184  0.00  0.00    +0.000 C 
BRANCH  23  24
ATOM     24  C   UNL     1       6.185   4.686  13.812  0.00  0.00    +0.000 C 
BRANCH  24  26
ATOM     25  C   UNL     1       4.942   3.353  12.078  0.00  0.00    +0.000 C 
ATOM     26  C   UNL     1       6.273   3.556  12.786  0.00  0.00    +0.000 C 
ENDBRANCH  24  26
ENDBRANCH  23  24
ENDBRANCH  17  23
ENDBRANCH  15  20
ENDBRANCH   1  15
BRANCH   3  27
ATOM     27  O   UNL     1       0.137   8.633  21.859  0.00  0.00    +0.000 OA
ATOM     28  C   UNL     1       0.790   9.280  22.953  0.00  0.00    +0.000 C 
ENDBRANCH   3  27
BRANCH   5  29
ATOM     29  O   UNL     1       1.818   9.889  17.530  0.00  0.00    +0.000 OA
ATOM     30  C   UNL     1       2.656  11.028  17.698  0.00  0.00    +0.000 C 
ENDBRANCH   5  29
TORSDOF 8
ENDMDL
