MODEL 1
REMARK VINA RESULT:      -7.3      0.000      0.000
REMARK  Name = 
REMARK  2 active torsions:
REMARK  status: ('A' for Active; 'I' for Inactive)
REMARK    1  A    between atoms: C_1  and  C_2
REMARK    2  A    between atoms: C_16  and  C_17
REMARK                            x       y       z     vdW  Elec       q    Type
REMARK                         _______ _______ _______ _____ _____    ______ ____
ROOT
ATOM      1  C   UNL     1      12.292  11.597  19.589  0.00  0.00    +0.000 C 
ATOM      2  C   UNL     1      11.361  13.032  19.954  0.00  0.00    +0.000 C 
ATOM      3  C   UNL     1      12.284  14.015  19.363  0.00  0.00    +0.000 C 
ATOM      4  C   UNL     1      12.333  14.177  18.049  0.00  0.00    +0.000 C 
ATOM      5  C   UNL     1      11.403  13.313  17.274  0.00  0.00    +0.000 C 
ATOM      6  O   UNL     1      11.377  13.428  16.053  0.00  0.00    +0.000 OA
ATOM      7  C   UNL     1      10.445  12.320  18.045  0.00  0.00    +0.000 C 
ATOM      8  C   UNL     1      10.286  12.078  19.403  0.00  0.00    +0.000 C 
ATOM      9  C   UNL     1      10.153  11.825  21.049  0.00  0.00    +0.000 C 
ATOM     10  C   UNL     1       8.858  11.585  21.671  0.00  0.00    +0.000 C 
ATOM     11  C   UNL     1       9.400  13.050  22.046  0.00  0.00    +0.000 C 
ATOM     12  C   UNL     1       9.512  14.650  21.319  0.00  0.00    +0.000 C 
ATOM     13  C   UNL     1       9.888  14.025  19.953  0.00  0.00    +0.000 C 
ATOM     14  C   UNL     1       9.119  14.473  18.747  0.00  0.00    +0.000 C 
ATOM     15  C   UNL     1       7.862  14.706  19.119  0.00  0.00    +0.000 C 
ATOM     16  C   UNL     1       7.806  16.029  19.764  0.00  0.00    +0.000 C 
ATOM     17  C   UNL     1       8.870  17.027  19.001  0.00  0.00    +0.000 C 
ATOM     18  C   UNL     1       8.101  15.818  21.304  0.00  0.00    +0.000 C 
ATOM     19  C   UNL     1       7.825  17.608  21.278  0.00  0.00    +0.000 C 
ATOM     20  C   UNL     1       6.526  18.407  21.555  0.00  0.00    +0.000 C 
ATOM     21  C   UNL     1       6.665  17.905  20.174  0.00  0.00    +0.000 C 
ATOM     22  C   UNL     1       6.355  16.552  19.651  0.00  0.00    +0.000 C 
ATOM     23  C   UNL     1       5.760  16.252  18.278  0.00  0.00    +0.000 C 
ATOM     24  C   UNL     1       5.074  14.893  18.501  0.00  0.00    +0.000 C 
ATOM     25  C   UNL     1       4.700  14.971  19.946  0.00  0.00    +0.000 C 
ATOM     26  O   UNL     1       3.909  14.240  20.521  0.00  0.00    +0.000 OA
ATOM     27  O   UNL     1       5.438  15.928  20.568  0.00  0.00    +0.000 OA
ENDROOT
TORSDOF 0
ENDMDL
MODEL 2
REMARK VINA RESULT:      -7.2      7.682     11.149
REMARK  Name = 
REMARK  2 active torsions:
REMARK  status: ('A' for Active; 'I' for Inactive)
REMARK    1  A    between atoms: C_1  and  C_2
REMARK    2  A    between atoms: C_16  and  C_17
REMARK                            x       y       z     vdW  Elec       q    Type
REMARK                         _______ _______ _______ _____ _____    ______ ____
ROOT
ATOM      1  C   UNL     1       2.151  12.709  18.631  0.00  0.00    +0.000 C 
ATOM      2  C   UNL     1       0.998  12.761  19.946  0.00  0.00    +0.000 C 
ATOM      3  C   UNL     1       1.625  13.852  20.709  0.00  0.00    +0.000 C 
ATOM      4  C   UNL     1       1.486  15.108  20.314  0.00  0.00    +0.000 C 
ATOM      5  C   UNL     1       0.667  15.294  19.087  0.00  0.00    +0.000 C 
ATOM      6  O   UNL     1       0.475  16.434  18.677  0.00  0.00    +0.000 OA
ATOM      7  C   UNL     1       0.027  14.031  18.384  0.00  0.00    +0.000 C 
ATOM      8  C   UNL     1       0.082  12.682  18.711  0.00  0.00    +0.000 C 
ATOM      9  C   UNL     1       0.196  11.074  19.152  0.00  0.00    +0.000 C 
ATOM     10  C   UNL     1      -0.942  10.175  19.017  0.00  0.00    +0.000 C 
ATOM     11  C   UNL     1      -0.668  10.510  20.565  0.00  0.00    +0.000 C 
ATOM     12  C   UNL     1      -0.969  11.809  21.715  0.00  0.00    +0.000 C 
ATOM     13  C   UNL     1      -0.636  12.869  20.635  0.00  0.00    +0.000 C 
ATOM     14  C   UNL     1      -1.616  13.984  20.430  0.00  0.00    +0.000 C 
ATOM     15  C   UNL     1      -2.842  13.500  20.621  0.00  0.00    +0.000 C 
ATOM     16  C   UNL     1      -3.089  13.423  22.071  0.00  0.00    +0.000 C 
ATOM     17  C   UNL     1      -2.346  14.701  22.796  0.00  0.00    +0.000 C 
ATOM     18  C   UNL     1      -2.579  12.010  22.564  0.00  0.00    +0.000 C 
ATOM     19  C   UNL     1      -3.213  12.676  24.124  0.00  0.00    +0.000 C 
ATOM     20  C   UNL     1      -4.606  12.491  24.779  0.00  0.00    +0.000 C 
ATOM     21  C   UNL     1      -4.530  13.567  23.771  0.00  0.00    +0.000 C 
ATOM     22  C   UNL     1      -4.619  13.453  22.296  0.00  0.00    +0.000 C 
ATOM     23  C   UNL     1      -5.297  14.461  21.372  0.00  0.00    +0.000 C 
ATOM     24  C   UNL     1      -5.663  13.601  20.149  0.00  0.00    +0.000 C 
ATOM     25  C   UNL     1      -5.873  12.258  20.770  0.00  0.00    +0.000 C 
ATOM     26  O   UNL     1      -6.426  11.305  20.245  0.00  0.00    +0.000 OA
ATOM     27  O   UNL     1      -5.276  12.210  21.990  0.00  0.00    +0.000 OA
ENDROOT
TORSDOF 0
ENDMDL
MODEL 3
REMARK VINA RESULT:      -7.1      1.825      6.175
REMARK  Name = 
REMARK  2 active torsions:
REMARK  status: ('A' for Active; 'I' for Inactive)
REMARK    1  A    between atoms: C_1  and  C_2
REMARK    2  A    between atoms: C_16  and  C_17
REMARK                            x       y       z     vdW  Elec       q    Type
REMARK                         _______ _______ _______ _____ _____    ______ ____
ROOT
ATOM      1  C   UNL     1       5.270  17.682  20.671  0.00  0.00    +0.000 C 
ATOM      2  C   UNL     1       6.734  17.004  19.992  0.00  0.00    +0.000 C 
ATOM      3  C   UNL     1       7.681  17.969  20.575  0.00  0.00    +0.000 C 
ATOM      4  C   UNL     1       8.028  17.876  21.850  0.00  0.00    +0.000 C 
ATOM      5  C   UNL     1       7.400  16.750  22.591  0.00  0.00    +0.000 C 
ATOM      6  O   UNL     1       7.696  16.588  23.771  0.00  0.00    +0.000 OA
ATOM      7  C   UNL     1       6.421  15.771  21.829  0.00  0.00    +0.000 C 
ATOM      8  C   UNL     1       6.001  15.751  20.506  0.00  0.00    +0.000 C 
ATOM      9  C   UNL     1       5.525  15.790  18.904  0.00  0.00    +0.000 C 
ATOM     10  C   UNL     1       5.347  14.562  18.143  0.00  0.00    +0.000 C 
ATOM     11  C   UNL     1       6.668  15.337  17.660  0.00  0.00    +0.000 C 
ATOM     12  C   UNL     1       8.334  15.571  18.180  0.00  0.00    +0.000 C 
ATOM     13  C   UNL     1       7.878  15.687  19.655  0.00  0.00    +0.000 C 
ATOM     14  C   UNL     1       8.585  14.842  20.671  0.00  0.00    +0.000 C 
ATOM     15  C   UNL     1       8.903  13.683  20.097  0.00  0.00    +0.000 C 
ATOM     16  C   UNL     1      10.114  13.884  19.284  0.00  0.00    +0.000 C 
ATOM     17  C   UNL     1      11.084  14.970  20.053  0.00  0.00    +0.000 C 
ATOM     18  C   UNL     1       9.646  14.338  17.842  0.00  0.00    +0.000 C 
ATOM     19  C   UNL     1      11.439  14.302  17.594  0.00  0.00    +0.000 C 
ATOM     20  C   UNL     1      12.333  13.166  17.034  0.00  0.00    +0.000 C 
ATOM     21  C   UNL     1      12.027  13.064  18.474  0.00  0.00    +0.000 C 
ATOM     22  C   UNL     1      10.811  12.514  19.121  0.00  0.00    +0.000 C 
ATOM     23  C   UNL     1      10.787  11.719  20.423  0.00  0.00    +0.000 C 
ATOM     24  C   UNL     1       9.498  10.890  20.285  0.00  0.00    +0.000 C 
ATOM     25  C   UNL     1       9.404  10.712  18.804  0.00  0.00    +0.000 C 
ATOM     26  O   UNL     1       8.693   9.908  18.223  0.00  0.00    +0.000 OA
ATOM     27  O   UNL     1      10.168  11.643  18.173  0.00  0.00    +0.000 OA
ENDROOT
TORSDOF 0
ENDMDL
MODEL 4
REMARK VINA RESULT:      -6.9      1.743      2.463
REMARK  Name = 
REMARK  2 active torsions:
REMARK  status: ('A' for Active; 'I' for Inactive)
REMARK    1  A    between atoms: C_1  and  C_2
REMARK    2  A    between atoms: C_16  and  C_17
REMARK                            x       y       z     vdW  Elec       q    Type
REMARK                         _______ _______ _______ _____ _____    ______ ____
ROOT
ATOM      1  C   UNL     1      11.855  11.945  17.498  0.00  0.00    +0.000 C 
ATOM      2  C   UNL     1      11.308  12.681  18.989  0.00  0.00    +0.000 C 
ATOM      3  C   UNL     1      12.333  13.734  19.070  0.00  0.00    +0.000 C 
ATOM      4  C   UNL     1      12.242  14.813  18.307  0.00  0.00    +0.000 C 
ATOM      5  C   UNL     1      11.056  14.851  17.411  0.00  0.00    +0.000 C 
ATOM      6  O   UNL     1      10.894  15.834  16.694  0.00  0.00    +0.000 OA
ATOM      7  C   UNL     1      10.018  13.661  17.450  0.00  0.00    +0.000 C 
ATOM      8  C   UNL     1       9.991  12.500  18.213  0.00  0.00    +0.000 C 
ATOM      9  C   UNL     1      10.024  11.118  19.151  0.00  0.00    +0.000 C 
ATOM     10  C   UNL     1       8.801  10.558  19.709  0.00  0.00    +0.000 C 
ATOM     11  C   UNL     1       9.689  11.237  20.864  0.00  0.00    +0.000 C 
ATOM     12  C   UNL     1      10.043  12.843  21.494  0.00  0.00    +0.000 C 
ATOM     13  C   UNL     1      10.094  13.417  20.056  0.00  0.00    +0.000 C 
ATOM     14  C   UNL     1       9.286  14.647  19.770  0.00  0.00    +0.000 C 
ATOM     15  C   UNL     1       8.168  14.587  20.490  0.00  0.00    +0.000 C 
ATOM     16  C   UNL     1       8.481  15.000  21.868  0.00  0.00    +0.000 C 
ATOM     17  C   UNL     1       9.625  16.183  21.812  0.00  0.00    +0.000 C 
ATOM     18  C   UNL     1       8.925  13.704  22.661  0.00  0.00    +0.000 C 
ATOM     19  C   UNL     1       9.037  14.936  23.984  0.00  0.00    +0.000 C 
ATOM     20  C   UNL     1       7.987  15.329  25.054  0.00  0.00    +0.000 C 
ATOM     21  C   UNL     1       7.833  16.007  23.753  0.00  0.00    +0.000 C 
ATOM     22  C   UNL     1       7.175  15.503  22.524  0.00  0.00    +0.000 C 
ATOM     23  C   UNL     1       6.354  16.346  21.552  0.00  0.00    +0.000 C 
ATOM     24  C   UNL     1       5.428  15.303  20.903  0.00  0.00    +0.000 C 
ATOM     25  C   UNL     1       5.273  14.302  22.002  0.00  0.00    +0.000 C 
ATOM     26  O   UNL     1       4.427  13.425  22.057  0.00  0.00    +0.000 OA
ATOM     27  O   UNL     1       6.274  14.449  22.910  0.00  0.00    +0.000 OA
ENDROOT
TORSDOF 0
ENDMDL
MODEL 5
REMARK VINA RESULT:      -6.7      2.505      5.798
REMARK  Name = 
REMARK  2 active torsions:
REMARK  status: ('A' for Active; 'I' for Inactive)
REMARK    1  A    between atoms: C_1  and  C_2
REMARK    2  A    between atoms: C_16  and  C_17
REMARK                            x       y       z     vdW  Elec       q    Type
REMARK                         _______ _______ _______ _____ _____    ______ ____
ROOT
ATOM      1  C   UNL     1       7.301  14.416  25.889  0.00  0.00    +0.000 C 
ATOM      2  C   UNL     1       8.323  14.025  24.523  0.00  0.00    +0.000 C 
ATOM      3  C   UNL     1       8.533  12.603  24.842  0.00  0.00    +0.000 C 
ATOM      4  C   UNL     1       7.580  11.717  24.598  0.00  0.00    +0.000 C 
ATOM      5  C   UNL     1       6.342  12.276  23.993  0.00  0.00    +0.000 C 
ATOM      6  O   UNL     1       5.426  11.508  23.717  0.00  0.00    +0.000 OA
ATOM      7  C   UNL     1       6.265  13.822  23.676  0.00  0.00    +0.000 C 
ATOM      8  C   UNL     1       7.194  14.837  23.863  0.00  0.00    +0.000 C 
ATOM      9  C   UNL     1       8.351  16.014  24.125  0.00  0.00    +0.000 C 
ATOM     10  C   UNL     1       8.555  17.095  23.170  0.00  0.00    +0.000 C 
ATOM     11  C   UNL     1       9.777  16.054  23.113  0.00  0.00    +0.000 C 
ATOM     12  C   UNL     1      10.143  14.473  22.429  0.00  0.00    +0.000 C 
ATOM     13  C   UNL     1       8.726  13.965  22.794  0.00  0.00    +0.000 C 
ATOM     14  C   UNL     1       7.929  13.293  21.717  0.00  0.00    +0.000 C 
ATOM     15  C   UNL     1       8.213  13.885  20.559  0.00  0.00    +0.000 C 
ATOM     16  C   UNL     1       9.497  13.355  20.070  0.00  0.00    +0.000 C 
ATOM     17  C   UNL     1       9.596  11.763  20.481  0.00  0.00    +0.000 C 
ATOM     18  C   UNL     1      10.645  14.256  20.681  0.00  0.00    +0.000 C 
ATOM     19  C   UNL     1      11.639  13.112  19.689  0.00  0.00    +0.000 C 
ATOM     20  C   UNL     1      12.173  13.271  18.243  0.00  0.00    +0.000 C 
ATOM     21  C   UNL     1      10.788  12.771  18.343  0.00  0.00    +0.000 C 
ATOM     22  C   UNL     1       9.540  13.549  18.537  0.00  0.00    +0.000 C 
ATOM     23  C   UNL     1       8.192  13.228  17.898  0.00  0.00    +0.000 C 
ATOM     24  C   UNL     1       7.494  14.599  17.883  0.00  0.00    +0.000 C 
ATOM     25  C   UNL     1       8.654  15.534  17.759  0.00  0.00    +0.000 C 
ATOM     26  O   UNL     1       8.594  16.713  17.451  0.00  0.00    +0.000 OA
ATOM     27  O   UNL     1       9.801  14.904  18.129  0.00  0.00    +0.000 OA
ENDROOT
TORSDOF 0
ENDMDL
MODEL 6
REMARK VINA RESULT:      -6.7      9.021     11.983
REMARK  Name = 
REMARK  2 active torsions:
REMARK  status: ('A' for Active; 'I' for Inactive)
REMARK    1  A    between atoms: C_1  and  C_2
REMARK    2  A    between atoms: C_16  and  C_17
REMARK                            x       y       z     vdW  Elec       q    Type
REMARK                         _______ _______ _______ _____ _____    ______ ____
ROOT
ATOM      1  C   UNL     1      -3.347  16.175  24.789  0.00  0.00    +0.000 C 
ATOM      2  C   UNL     1      -3.001  15.307  23.309  0.00  0.00    +0.000 C 
ATOM      3  C   UNL     1      -2.498  16.450  22.529  0.00  0.00    +0.000 C 
ATOM      4  C   UNL     1      -1.276  16.916  22.741  0.00  0.00    +0.000 C 
ATOM      5  C   UNL     1      -0.503  16.197  23.788  0.00  0.00    +0.000 C 
ATOM      6  O   UNL     1       0.647  16.559  24.019  0.00  0.00    +0.000 OA
ATOM      7  C   UNL     1      -1.159  14.964  24.527  0.00  0.00    +0.000 C 
ATOM      8  C   UNL     1      -2.408  14.374  24.380  0.00  0.00    +0.000 C 
ATOM      9  C   UNL     1      -3.929  13.718  24.164  0.00  0.00    +0.000 C 
ATOM     10  C   UNL     1      -4.143  12.279  24.222  0.00  0.00    +0.000 C 
ATOM     11  C   UNL     1      -4.270  12.807  22.710  0.00  0.00    +0.000 C 
ATOM     12  C   UNL     1      -3.221  13.279  21.376  0.00  0.00    +0.000 C 
ATOM     13  C   UNL     1      -2.265  14.000  22.358  0.00  0.00    +0.000 C 
ATOM     14  C   UNL     1      -0.803  13.683  22.264  0.00  0.00    +0.000 C 
ATOM     15  C   UNL     1      -0.677  12.398  21.938  0.00  0.00    +0.000 C 
ATOM     16  C   UNL     1      -0.895  12.264  20.488  0.00  0.00    +0.000 C 
ATOM     17  C   UNL     1      -0.278  13.596  19.742  0.00  0.00    +0.000 C 
ATOM     18  C   UNL     1      -2.446  12.051  20.260  0.00  0.00    +0.000 C 
ATOM     19  C   UNL     1      -1.861  11.956  18.549  0.00  0.00    +0.000 C 
ATOM     20  C   UNL     1      -1.484  10.711  17.705  0.00  0.00    +0.000 C 
ATOM     21  C   UNL     1      -0.406  11.223  18.573  0.00  0.00    +0.000 C 
ATOM     22  C   UNL     1      -0.189  10.971  20.018  0.00  0.00    +0.000 C 
ATOM     23  C   UNL     1       1.171  10.804  20.690  0.00  0.00    +0.000 C 
ATOM     24  C   UNL     1       0.829   9.964  21.933  0.00  0.00    +0.000 C 
ATOM     25  C   UNL     1      -0.345   9.172  21.456  0.00  0.00    +0.000 C 
ATOM     26  O   UNL     1      -0.808   8.181  21.997  0.00  0.00    +0.000 OA
ATOM     27  O   UNL     1      -0.894   9.764  20.363  0.00  0.00    +0.000 OA
ENDROOT
TORSDOF 0
ENDMDL
MODEL 7
REMARK VINA RESULT:      -6.7      2.380      4.399
REMARK  Name = 
REMARK  2 active torsions:
REMARK  status: ('A' for Active; 'I' for Inactive)
REMARK    1  A    between atoms: C_1  and  C_2
REMARK    2  A    between atoms: C_16  and  C_17
REMARK                            x       y       z     vdW  Elec       q    Type
REMARK                         _______ _______ _______ _____ _____    ______ ____
ROOT
ATOM      1  C   UNL     1      10.848  13.445  16.848  0.00  0.00    +0.000 C 
ATOM      2  C   UNL     1       9.639  13.521  18.111  0.00  0.00    +0.000 C 
ATOM      3  C   UNL     1       9.426  12.072  18.261  0.00  0.00    +0.000 C 
ATOM      4  C   UNL     1      10.308  11.333  18.916  0.00  0.00    +0.000 C 
ATOM      5  C   UNL     1      11.472  12.080  19.463  0.00  0.00    +0.000 C 
ATOM      6  O   UNL     1      12.316  11.463  20.104  0.00  0.00    +0.000 OA
ATOM      7  C   UNL     1      11.556  13.644  19.252  0.00  0.00    +0.000 C 
ATOM      8  C   UNL     1      10.695  14.524  18.610  0.00  0.00    +0.000 C 
ATOM      9  C   UNL     1       9.624  15.528  17.812  0.00  0.00    +0.000 C 
ATOM     10  C   UNL     1       9.330  16.864  18.313  0.00  0.00    +0.000 C 
ATOM     11  C   UNL     1       8.076  15.886  18.546  0.00  0.00    +0.000 C 
ATOM     12  C   UNL     1       7.570  14.622  19.663  0.00  0.00    +0.000 C 
ATOM     13  C   UNL     1       9.005  14.041  19.688  0.00  0.00    +0.000 C 
ATOM     14  C   UNL     1       9.627  13.780  21.026  0.00  0.00    +0.000 C 
ATOM     15  C   UNL     1       9.210  14.723  21.868  0.00  0.00    +0.000 C 
ATOM     16  C   UNL     1       7.855  14.370  22.325  0.00  0.00    +0.000 C 
ATOM     17  C   UNL     1       7.759  12.732  22.460  0.00  0.00    +0.000 C 
ATOM     18  C   UNL     1       6.830  14.998  21.295  0.00  0.00    +0.000 C 
ATOM     19  C   UNL     1       5.675  14.240  22.466  0.00  0.00    +0.000 C 
ATOM     20  C   UNL     1       4.957  14.868  23.688  0.00  0.00    +0.000 C 
ATOM     21  C   UNL     1       6.325  14.384  23.952  0.00  0.00    +0.000 C 
ATOM     22  C   UNL     1       7.613  15.068  23.683  0.00  0.00    +0.000 C 
ATOM     23  C   UNL     1       8.852  15.000  24.572  0.00  0.00    +0.000 C 
ATOM     24  C   UNL     1       9.586  16.306  24.223  0.00  0.00    +0.000 C 
ATOM     25  C   UNL     1       8.452  17.211  23.865  0.00  0.00    +0.000 C 
ATOM     26  O   UNL     1       8.509  18.426  23.767  0.00  0.00    +0.000 OA
ATOM     27  O   UNL     1       7.345  16.478  23.574  0.00  0.00    +0.000 OA
ENDROOT
TORSDOF 0
ENDMDL
MODEL 8
REMARK VINA RESULT:      -6.6      2.055      3.252
REMARK  Name = 
REMARK  2 active torsions:
REMARK  status: ('A' for Active; 'I' for Inactive)
REMARK    1  A    between atoms: C_1  and  C_2
REMARK    2  A    between atoms: C_16  and  C_17
REMARK                            x       y       z     vdW  Elec       q    Type
REMARK                         _______ _______ _______ _____ _____    ______ ____
ROOT
ATOM      1  C   UNL     1      11.687  12.806  17.231  0.00  0.00    +0.000 C 
ATOM      2  C   UNL     1      11.102  12.940  18.874  0.00  0.00    +0.000 C 
ATOM      3  C   UNL     1      12.231  13.712  19.418  0.00  0.00    +0.000 C 
ATOM      4  C   UNL     1      12.333  15.009  19.170  0.00  0.00    +0.000 C 
ATOM      5  C   UNL     1      11.241  15.576  18.334  0.00  0.00    +0.000 C 
ATOM      6  O   UNL     1      11.258  16.777  18.085  0.00  0.00    +0.000 OA
ATOM      7  C   UNL     1      10.073  14.633  17.842  0.00  0.00    +0.000 C 
ATOM      8  C   UNL     1       9.845  13.280  18.052  0.00  0.00    +0.000 C 
ATOM      9  C   UNL     1       9.636  11.646  18.331  0.00  0.00    +0.000 C 
ATOM     10  C   UNL     1       8.312  11.087  18.568  0.00  0.00    +0.000 C 
ATOM     11  C   UNL     1       9.168  11.103  19.928  0.00  0.00    +0.000 C 
ATOM     12  C   UNL     1       9.650  12.245  21.179  0.00  0.00    +0.000 C 
ATOM     13  C   UNL     1       9.892  13.341  20.112  0.00  0.00    +0.000 C 
ATOM     14  C   UNL     1       9.261  14.682  20.337  0.00  0.00    +0.000 C 
ATOM     15  C   UNL     1       8.085  14.493  20.931  0.00  0.00    +0.000 C 
ATOM     16  C   UNL     1       8.322  14.259  22.366  0.00  0.00    +0.000 C 
ATOM     17  C   UNL     1       9.596  15.188  22.843  0.00  0.00    +0.000 C 
ATOM     18  C   UNL     1       8.542  12.705  22.562  0.00  0.00    +0.000 C 
ATOM     19  C   UNL     1       8.680  13.261  24.280  0.00  0.00    +0.000 C 
ATOM     20  C   UNL     1       7.593  13.328  25.383  0.00  0.00    +0.000 C 
ATOM     21  C   UNL     1       7.633  14.492  24.477  0.00  0.00    +0.000 C 
ATOM     22  C   UNL     1       7.031  14.631  23.130  0.00  0.00    +0.000 C 
ATOM     23  C   UNL     1       6.401  15.904  22.570  0.00  0.00    +0.000 C 
ATOM     24  C   UNL     1       5.421  15.359  21.518  0.00  0.00    +0.000 C 
ATOM     25  C   UNL     1       5.055  14.030  22.097  0.00  0.00    +0.000 C 
ATOM     26  O   UNL     1       4.112  13.335  21.755  0.00  0.00    +0.000 OA
ATOM     27  O   UNL     1       5.983  13.650  23.015  0.00  0.00    +0.000 OA
ENDROOT
TORSDOF 0
ENDMDL
MODEL 9
REMARK VINA RESULT:      -6.6      1.478      1.741
REMARK  Name = 
REMARK  2 active torsions:
REMARK  status: ('A' for Active; 'I' for Inactive)
REMARK    1  A    between atoms: C_1  and  C_2
REMARK    2  A    between atoms: C_16  and  C_17
REMARK                            x       y       z     vdW  Elec       q    Type
REMARK                         _______ _______ _______ _____ _____    ______ ____
ROOT
ATOM      1  C   UNL     1      12.267  12.405  18.494  0.00  0.00    +0.000 C 
ATOM      2  C   UNL     1      11.425  13.401  19.661  0.00  0.00    +0.000 C 
ATOM      3  C   UNL     1      12.263  14.604  19.526  0.00  0.00    +0.000 C 
ATOM      4  C   UNL     1      12.115  15.406  18.483  0.00  0.00    +0.000 C 
ATOM      5  C   UNL     1      11.065  14.991  17.515  0.00  0.00    +0.000 C 
ATOM      6  O   UNL     1      10.856  15.701  16.537  0.00  0.00    +0.000 OA
ATOM      7  C   UNL     1      10.219  13.687  17.802  0.00  0.00    +0.000 C 
ATOM      8  C   UNL     1      10.264  12.787  18.858  0.00  0.00    +0.000 C 
ATOM      9  C   UNL     1      10.378  11.734  20.150  0.00  0.00    +0.000 C 
ATOM     10  C   UNL     1       9.188  11.133  20.738  0.00  0.00    +0.000 C 
ATOM     11  C   UNL     1       9.804  12.243  21.723  0.00  0.00    +0.000 C 
ATOM     12  C   UNL     1       9.830  13.995  21.898  0.00  0.00    +0.000 C 
ATOM     13  C   UNL     1       9.985  14.165  20.366  0.00  0.00    +0.000 C 
ATOM     14  C   UNL     1       9.049  15.108  19.673  0.00  0.00    +0.000 C 
ATOM     15  C   UNL     1       7.867  15.043  20.281  0.00  0.00    +0.000 C 
ATOM     16  C   UNL     1       7.930  15.857  21.507  0.00  0.00    +0.000 C 
ATOM     17  C   UNL     1       8.882  17.168  21.214  0.00  0.00    +0.000 C 
ATOM     18  C   UNL     1       8.452  14.921  22.671  0.00  0.00    +0.000 C 
ATOM     19  C   UNL     1       8.204  16.460  23.592  0.00  0.00    +0.000 C 
ATOM     20  C   UNL     1       6.974  16.929  24.412  0.00  0.00    +0.000 C 
ATOM     21  C   UNL     1       6.895  17.197  22.964  0.00  0.00    +0.000 C 
ATOM     22  C   UNL     1       6.488  16.274  21.877  0.00  0.00    +0.000 C 
ATOM     23  C   UNL     1       5.687  16.666  20.638  0.00  0.00    +0.000 C 
ATOM     24  C   UNL     1       5.021  15.339  20.236  0.00  0.00    +0.000 C 
ATOM     25  C   UNL     1       4.871  14.657  21.558  0.00  0.00    +0.000 C 
ATOM     26  O   UNL     1       4.165  13.689  21.788  0.00  0.00    +0.000 OA
ATOM     27  O   UNL     1       5.710  15.217  22.469  0.00  0.00    +0.000 OA
ENDROOT
TORSDOF 0
ENDMDL
