MODEL 1
REMARK VINA RESULT:      -7.8      0.000      0.000
REMARK  Name = 
REMARK  11 active torsions:
REMARK  status: ('A' for Active; 'I' for Inactive)
REMARK    1  A    between atoms: C_1  and  O_2
REMARK    2  A    between atoms: O_2  and  C_3
REMARK    3  A    between atoms: C_7  and  C_8
REMARK    4  A    between atoms: C_11  and  C_12
REMARK    5  A    between atoms: C_12  and  C_14
REMARK    6  A    between atoms: C_14  and  C_15
REMARK    7  A    between atoms: C_15  and  C_16
REMARK    8  A    between atoms: C_16  and  C_17
REMARK    9  A    between atoms: C_17  and  C_18
REMARK   10  A    between atoms: C_18  and  C_19
REMARK   11  A    between atoms: C_19  and  C_20
REMARK                            x       y       z     vdW  Elec       q    Type
REMARK                         _______ _______ _______ _____ _____    ______ ____
ROOT
ATOM      1  C   UNL     1       7.895   5.740  18.763  0.00  0.00    +0.000 C 
ATOM      2  O   UNL     1       8.273   5.346  19.869  0.00  0.00    +0.000 OA
ENDROOT
BRANCH   1   6
ATOM      3  C   UNL     1       8.541   9.202  18.350  0.00  0.00    +0.000 A 
ATOM      4  C   UNL     1       7.629   8.962  17.344  0.00  0.00    +0.000 A 
ATOM      5  N   UNL     1       7.263   7.644  17.331  0.00  0.00    +0.000 NA
ATOM      6  C   UNL     1       7.949   7.121  18.330  0.00  0.00    +0.000 A 
ATOM      7  O   UNL     1       8.755   8.011  18.993  0.00  0.00    +0.000 OA
BRANCH   3  12
ATOM      8  C   UNL     1       9.851  11.855  20.665  0.00  0.00    +0.000 A 
ATOM      9  C   UNL     1      10.571  12.660  19.783  0.00  0.00    +0.000 A 
ATOM     10  C   UNL     1      10.658  12.325  18.431  0.00  0.00    +0.000 A 
ATOM     11  C   UNL     1      10.010  11.186  17.948  0.00  0.00    +0.000 A 
ATOM     12  C   UNL     1       9.270  10.372  18.814  0.00  0.00    +0.000 A 
ATOM     13  C   UNL     1       9.210  10.713  20.174  0.00  0.00    +0.000 A 
BRANCH   8  15
ATOM     14  C   UNL     1       8.872  13.284  22.290  0.00  0.00    +0.000 C 
ATOM     15  O   UNL     1       9.826  12.276  21.966  0.00  0.00    +0.000 OA
ENDBRANCH   8  15
ENDBRANCH   3  12
ENDBRANCH   1   6
BRANCH   1  16
ATOM     16  C   UNL     1       7.352   4.748  17.744  0.00  0.00    +0.000 C 
BRANCH  16  17
ATOM     17  C   UNL     1       5.882   4.408  17.983  0.00  0.00    +0.000 C 
BRANCH  17  18
ATOM     18  C   UNL     1       5.039   4.578  16.718  0.00  0.00    +0.000 C 
BRANCH  18  19
ATOM     19  C   UNL     1       4.326   5.929  16.673  0.00  0.00    +0.000 C 
BRANCH  19  20
ATOM     20  C   UNL     1       3.771   6.276  18.057  0.00  0.00    +0.000 C 
BRANCH  20  21
ATOM     21  C   UNL     1       2.271   5.998  18.163  0.00  0.00    +0.000 C 
BRANCH  21  22
ATOM     22  C   UNL     1       2.002   4.859  19.115  0.00  0.00    +0.000 A 
ATOM     23  C   UNL     1       2.277   5.001  20.483  0.00  0.00    +0.000 A 
ATOM     24  C   UNL     1       2.079   3.932  21.358  0.00  0.00    +0.000 A 
ATOM     25  C   UNL     1       1.610   2.711  20.876  0.00  0.00    +0.000 A 
ATOM     26  C   UNL     1       1.333   2.560  19.518  0.00  0.00    +0.000 A 
ATOM     27  C   UNL     1       1.529   3.629  18.641  0.00  0.00    +0.000 A 
ENDBRANCH  21  22
ENDBRANCH  20  21
ENDBRANCH  19  20
ENDBRANCH  18  19
ENDBRANCH  17  18
ENDBRANCH  16  17
ENDBRANCH   1  16
TORSDOF 10
ENDMDL
MODEL 2
REMARK VINA RESULT:      -7.6      4.386      7.347
REMARK  Name = 
REMARK  11 active torsions:
REMARK  status: ('A' for Active; 'I' for Inactive)
REMARK    1  A    between atoms: C_1  and  O_2
REMARK    2  A    between atoms: O_2  and  C_3
REMARK    3  A    between atoms: C_7  and  C_8
REMARK    4  A    between atoms: C_11  and  C_12
REMARK    5  A    between atoms: C_12  and  C_14
REMARK    6  A    between atoms: C_14  and  C_15
REMARK    7  A    between atoms: C_15  and  C_16
REMARK    8  A    between atoms: C_16  and  C_17
REMARK    9  A    between atoms: C_17  and  C_18
REMARK   10  A    between atoms: C_18  and  C_19
REMARK   11  A    between atoms: C_19  and  C_20
REMARK                            x       y       z     vdW  Elec       q    Type
REMARK                         _______ _______ _______ _____ _____    ______ ____
ROOT
ATOM      1  C   UNL     1       1.751   4.072  21.057  0.00  0.00    +0.000 C 
ATOM      2  O   UNL     1       2.291   3.579  22.050  0.00  0.00    +0.000 OA
ENDROOT
BRANCH   1   6
ATOM      3  C   UNL     1       1.759   7.532  20.280  0.00  0.00    +0.000 A 
ATOM      4  C   UNL     1       2.822   7.071  19.532  0.00  0.00    +0.000 A 
ATOM      5  N   UNL     1       2.993   5.726  19.717  0.00  0.00    +0.000 NA
ATOM      6  C   UNL     1       2.028   5.403  20.559  0.00  0.00    +0.000 A 
ATOM      7  O   UNL     1       1.240   6.456  20.950  0.00  0.00    +0.000 OA
BRANCH   3  12
ATOM      8  C   UNL     1       0.037  10.384  22.016  0.00  0.00    +0.000 A 
ATOM      9  C   UNL     1      -0.141  11.281  20.964  0.00  0.00    +0.000 A 
ATOM     10  C   UNL     1       0.328  10.973  19.685  0.00  0.00    +0.000 A 
ATOM     11  C   UNL     1       0.966   9.753  19.448  0.00  0.00    +0.000 A 
ATOM     12  C   UNL     1       1.141   8.832  20.489  0.00  0.00    +0.000 A 
ATOM     13  C   UNL     1       0.682   9.168  21.771  0.00  0.00    +0.000 A 
BRANCH   8  15
ATOM     14  C   UNL     1      -1.645  11.577  23.194  0.00  0.00    +0.000 C 
ATOM     15  O   UNL     1      -0.463  10.782  23.225  0.00  0.00    +0.000 OA
ENDBRANCH   8  15
ENDBRANCH   3  12
ENDBRANCH   1   6
BRANCH   1  16
ATOM     16  C   UNL     1       0.740   3.263  20.257  0.00  0.00    +0.000 C 
BRANCH  16  17
ATOM     17  C   UNL     1       1.375   2.066  19.551  0.00  0.00    +0.000 C 
BRANCH  17  18
ATOM     18  C   UNL     1       1.895   2.429  18.159  0.00  0.00    +0.000 C 
BRANCH  18  19
ATOM     19  C   UNL     1       3.310   1.905  17.913  0.00  0.00    +0.000 C 
BRANCH  19  20
ATOM     20  C   UNL     1       4.332   3.014  18.175  0.00  0.00    +0.000 C 
BRANCH  20  21
ATOM     21  C   UNL     1       4.500   3.940  16.970  0.00  0.00    +0.000 C 
BRANCH  21  22
ATOM     22  C   UNL     1       5.557   4.983  17.238  0.00  0.00    +0.000 A 
ATOM     23  C   UNL     1       6.700   4.656  17.982  0.00  0.00    +0.000 A 
ATOM     24  C   UNL     1       7.654   5.632  18.277  0.00  0.00    +0.000 A 
ATOM     25  C   UNL     1       7.473   6.942  17.837  0.00  0.00    +0.000 A 
ATOM     26  C   UNL     1       6.341   7.277  17.097  0.00  0.00    +0.000 A 
ATOM     27  C   UNL     1       5.386   6.302  16.799  0.00  0.00    +0.000 A 
ENDBRANCH  21  22
ENDBRANCH  20  21
ENDBRANCH  19  20
ENDBRANCH  18  19
ENDBRANCH  17  18
ENDBRANCH  16  17
ENDBRANCH   1  16
TORSDOF 10
ENDMDL
MODEL 3
REMARK VINA RESULT:      -7.5      1.424      2.184
REMARK  Name = 
REMARK  11 active torsions:
REMARK  status: ('A' for Active; 'I' for Inactive)
REMARK    1  A    between atoms: C_1  and  O_2
REMARK    2  A    between atoms: O_2  and  C_3
REMARK    3  A    between atoms: C_7  and  C_8
REMARK    4  A    between atoms: C_11  and  C_12
REMARK    5  A    between atoms: C_12  and  C_14
REMARK    6  A    between atoms: C_14  and  C_15
REMARK    7  A    between atoms: C_15  and  C_16
REMARK    8  A    between atoms: C_16  and  C_17
REMARK    9  A    between atoms: C_17  and  C_18
REMARK   10  A    between atoms: C_18  and  C_19
REMARK   11  A    between atoms: C_19  and  C_20
REMARK                            x       y       z     vdW  Elec       q    Type
REMARK                         _______ _______ _______ _____ _____    ______ ____
ROOT
ATOM      1  C   UNL     1       7.806   5.815  18.873  0.00  0.00    +0.000 C 
ATOM      2  O   UNL     1       7.777   5.494  20.064  0.00  0.00    +0.000 OA
ENDROOT
BRANCH   1   6
ATOM      3  C   UNL     1       8.555   9.248  18.402  0.00  0.00    +0.000 A 
ATOM      4  C   UNL     1       7.724   8.990  17.333  0.00  0.00    +0.000 A 
ATOM      5  N   UNL     1       7.333   7.679  17.332  0.00  0.00    +0.000 NA
ATOM      6  C   UNL     1       7.923   7.179  18.402  0.00  0.00    +0.000 A 
ATOM      7  O   UNL     1       8.690   8.077  19.100  0.00  0.00    +0.000 OA
BRANCH   3  12
ATOM      8  C   UNL     1      10.432  12.502  18.369  0.00  0.00    +0.000 A 
ATOM      9  C   UNL     1      10.720  12.669  19.723  0.00  0.00    +0.000 A 
ATOM     10  C   UNL     1      10.276  11.734  20.660  0.00  0.00    +0.000 A 
ATOM     11  C   UNL     1       9.552  10.615  20.245  0.00  0.00    +0.000 A 
ATOM     12  C   UNL     1       9.266  10.421  18.887  0.00  0.00    +0.000 A 
ATOM     13  C   UNL     1       9.702  11.381  17.962  0.00  0.00    +0.000 A 
BRANCH   8  15
ATOM     14  C   UNL     1      12.332  13.518  17.369  0.00  0.00    +0.000 C 
ATOM     15  O   UNL     1      10.918  13.472  17.536  0.00  0.00    +0.000 OA
ENDBRANCH   8  15
ENDBRANCH   3  12
ENDBRANCH   1   6
BRANCH   1  16
ATOM     16  C   UNL     1       7.740   4.744  17.793  0.00  0.00    +0.000 C 
BRANCH  16  17
ATOM     17  C   UNL     1       6.307   4.331  17.463  0.00  0.00    +0.000 C 
BRANCH  17  18
ATOM     18  C   UNL     1       5.299   4.901  18.463  0.00  0.00    +0.000 C 
BRANCH  18  19
ATOM     19  C   UNL     1       3.866   4.855  17.932  0.00  0.00    +0.000 C 
BRANCH  19  20
ATOM     20  C   UNL     1       3.686   3.646  17.011  0.00  0.00    +0.000 C 
BRANCH  20  21
ATOM     21  C   UNL     1       3.451   2.354  17.794  0.00  0.00    +0.000 C 
BRANCH  21  22
ATOM     22  C   UNL     1       2.697   2.631  19.072  0.00  0.00    +0.000 A 
ATOM     23  C   UNL     1       3.329   2.476  20.314  0.00  0.00    +0.000 A 
ATOM     24  C   UNL     1       2.620   2.679  21.498  0.00  0.00    +0.000 A 
ATOM     25  C   UNL     1       1.273   3.035  21.454  0.00  0.00    +0.000 A 
ATOM     26  C   UNL     1       0.635   3.193  20.225  0.00  0.00    +0.000 A 
ATOM     27  C   UNL     1       1.343   2.991  19.038  0.00  0.00    +0.000 A 
ENDBRANCH  21  22
ENDBRANCH  20  21
ENDBRANCH  19  20
ENDBRANCH  18  19
ENDBRANCH  17  18
ENDBRANCH  16  17
ENDBRANCH   1  16
TORSDOF 10
ENDMDL
MODEL 4
REMARK VINA RESULT:      -7.3      0.925      1.126
REMARK  Name = 
REMARK  11 active torsions:
REMARK  status: ('A' for Active; 'I' for Inactive)
REMARK    1  A    between atoms: C_1  and  O_2
REMARK    2  A    between atoms: O_2  and  C_3
REMARK    3  A    between atoms: C_7  and  C_8
REMARK    4  A    between atoms: C_11  and  C_12
REMARK    5  A    between atoms: C_12  and  C_14
REMARK    6  A    between atoms: C_14  and  C_15
REMARK    7  A    between atoms: C_15  and  C_16
REMARK    8  A    between atoms: C_16  and  C_17
REMARK    9  A    between atoms: C_17  and  C_18
REMARK   10  A    between atoms: C_18  and  C_19
REMARK   11  A    between atoms: C_19  and  C_20
REMARK                            x       y       z     vdW  Elec       q    Type
REMARK                         _______ _______ _______ _____ _____    ______ ____
ROOT
ATOM      1  C   UNL     1       7.896   5.925  18.966  0.00  0.00    +0.000 C 
ATOM      2  O   UNL     1       8.008   5.575  20.144  0.00  0.00    +0.000 OA
ENDROOT
BRANCH   1   6
ATOM      3  C   UNL     1       8.729   9.342  18.517  0.00  0.00    +0.000 A 
ATOM      4  C   UNL     1       7.872   9.118  17.460  0.00  0.00    +0.000 A 
ATOM      5  N   UNL     1       7.446   7.818  17.454  0.00  0.00    +0.000 NA
ATOM      6  C   UNL     1       8.042   7.290  18.507  0.00  0.00    +0.000 A 
ATOM      7  O   UNL     1       8.845   8.160  19.200  0.00  0.00    +0.000 OA
BRANCH   3  12
ATOM      8  C   UNL     1       9.914  12.075  20.806  0.00  0.00    +0.000 A 
ATOM      9  C   UNL     1      10.820  12.747  19.987  0.00  0.00    +0.000 A 
ATOM     10  C   UNL     1      11.073  12.294  18.691  0.00  0.00    +0.000 A 
ATOM     11  C   UNL     1      10.406  11.170  18.199  0.00  0.00    +0.000 A 
ATOM     12  C   UNL     1       9.481  10.490  19.000  0.00  0.00    +0.000 A 
ATOM     13  C   UNL     1       9.254  10.948  20.307  0.00  0.00    +0.000 A 
BRANCH   8  15
ATOM     14  C   UNL     1       8.471  12.377  22.669  0.00  0.00    +0.000 C 
ATOM     15  O   UNL     1       9.736  12.605  22.054  0.00  0.00    +0.000 OA
ENDBRANCH   8  15
ENDBRANCH   3  12
ENDBRANCH   1   6
BRANCH   1  16
ATOM     16  C   UNL     1       7.610   4.890  17.887  0.00  0.00    +0.000 C 
BRANCH  16  17
ATOM     17  C   UNL     1       6.152   4.433  17.885  0.00  0.00    +0.000 C 
BRANCH  17  18
ATOM     18  C   UNL     1       5.730   3.861  16.531  0.00  0.00    +0.000 C 
BRANCH  18  19
ATOM     19  C   UNL     1       4.382   4.411  16.064  0.00  0.00    +0.000 C 
BRANCH  19  20
ATOM     20  C   UNL     1       3.535   4.818  17.271  0.00  0.00    +0.000 C 
BRANCH  20  21
ATOM     21  C   UNL     1       2.338   3.890  17.476  0.00  0.00    +0.000 C 
BRANCH  21  22
ATOM     22  C   UNL     1       2.273   3.405  18.904  0.00  0.00    +0.000 A 
ATOM     23  C   UNL     1       1.092   3.548  19.646  0.00  0.00    +0.000 A 
ATOM     24  C   UNL     1       1.045   3.149  20.983  0.00  0.00    +0.000 A 
ATOM     25  C   UNL     1       2.177   2.609  21.591  0.00  0.00    +0.000 A 
ATOM     26  C   UNL     1       3.355   2.461  20.862  0.00  0.00    +0.000 A 
ATOM     27  C   UNL     1       3.404   2.858  19.524  0.00  0.00    +0.000 A 
ENDBRANCH  21  22
ENDBRANCH  20  21
ENDBRANCH  19  20
ENDBRANCH  18  19
ENDBRANCH  17  18
ENDBRANCH  16  17
ENDBRANCH   1  16
TORSDOF 10
ENDMDL
MODEL 5
REMARK VINA RESULT:      -7.3      4.573      7.762
REMARK  Name = 
REMARK  11 active torsions:
REMARK  status: ('A' for Active; 'I' for Inactive)
REMARK    1  A    between atoms: C_1  and  O_2
REMARK    2  A    between atoms: O_2  and  C_3
REMARK    3  A    between atoms: C_7  and  C_8
REMARK    4  A    between atoms: C_11  and  C_12
REMARK    5  A    between atoms: C_12  and  C_14
REMARK    6  A    between atoms: C_14  and  C_15
REMARK    7  A    between atoms: C_15  and  C_16
REMARK    8  A    between atoms: C_16  and  C_17
REMARK    9  A    between atoms: C_17  and  C_18
REMARK   10  A    between atoms: C_18  and  C_19
REMARK   11  A    between atoms: C_19  and  C_20
REMARK                            x       y       z     vdW  Elec       q    Type
REMARK                         _______ _______ _______ _____ _____    ______ ____
ROOT
ATOM      1  C   UNL     1       1.792   4.616  20.970  0.00  0.00    +0.000 C 
ATOM      2  O   UNL     1       2.528   4.098  21.814  0.00  0.00    +0.000 OA
ENDROOT
BRANCH   1   6
ATOM      3  C   UNL     1       1.095   8.089  20.822  0.00  0.00    +0.000 A 
ATOM      4  C   UNL     1       2.087   7.958  19.873  0.00  0.00    +0.000 A 
ATOM      5  N   UNL     1       2.508   6.659  19.794  0.00  0.00    +0.000 NA
ATOM      6  C   UNL     1       1.759   6.034  20.683  0.00  0.00    +0.000 A 
ATOM      7  O   UNL     1       0.878   6.844  21.353  0.00  0.00    +0.000 OA
BRANCH   3  12
ATOM      8  C   UNL     1      -0.658  11.409  20.954  0.00  0.00    +0.000 A 
ATOM      9  C   UNL     1      -1.125  11.423  22.268  0.00  0.00    +0.000 A 
ATOM     10  C   UNL     1      -0.897  10.333  23.111  0.00  0.00    +0.000 A 
ATOM     11  C   UNL     1      -0.183   9.226  22.647  0.00  0.00    +0.000 A 
ATOM     12  C   UNL     1       0.308   9.200  21.336  0.00  0.00    +0.000 A 
ATOM     13  C   UNL     1       0.051  10.294  20.497  0.00  0.00    +0.000 A 
BRANCH   8  15
ATOM     14  C   UNL     1      -1.521  12.316  18.936  0.00  0.00    +0.000 C 
ATOM     15  O   UNL     1      -0.933  12.527  20.216  0.00  0.00    +0.000 OA
ENDBRANCH   8  15
ENDBRANCH   3  12
ENDBRANCH   1   6
BRANCH   1  16
ATOM     16  C   UNL     1       0.860   3.748  20.136  0.00  0.00    +0.000 C 
BRANCH  16  17
ATOM     17  C   UNL     1       1.608   2.920  19.092  0.00  0.00    +0.000 C 
BRANCH  17  18
ATOM     18  C   UNL     1       1.684   3.632  17.740  0.00  0.00    +0.000 C 
BRANCH  18  19
ATOM     19  C   UNL     1       2.891   3.183  16.916  0.00  0.00    +0.000 C 
BRANCH  19  20
ATOM     20  C   UNL     1       4.174   3.784  17.495  0.00  0.00    +0.000 C 
BRANCH  20  21
ATOM     21  C   UNL     1       4.364   5.244  17.084  0.00  0.00    +0.000 C 
BRANCH  21  22
ATOM     22  C   UNL     1       5.681   5.778  17.592  0.00  0.00    +0.000 A 
ATOM     23  C   UNL     1       6.308   5.180  18.695  0.00  0.00    +0.000 A 
ATOM     24  C   UNL     1       7.498   5.703  19.200  0.00  0.00    +0.000 A 
ATOM     25  C   UNL     1       8.072   6.829  18.613  0.00  0.00    +0.000 A 
ATOM     26  C   UNL     1       7.458   7.430  17.515  0.00  0.00    +0.000 A 
ATOM     27  C   UNL     1       6.267   6.908  17.007  0.00  0.00    +0.000 A 
ENDBRANCH  21  22
ENDBRANCH  20  21
ENDBRANCH  19  20
ENDBRANCH  18  19
ENDBRANCH  17  18
ENDBRANCH  16  17
ENDBRANCH   1  16
TORSDOF 10
ENDMDL
MODEL 6
REMARK VINA RESULT:      -7.2      3.520      8.570
REMARK  Name = 
REMARK  11 active torsions:
REMARK  status: ('A' for Active; 'I' for Inactive)
REMARK    1  A    between atoms: C_1  and  O_2
REMARK    2  A    between atoms: O_2  and  C_3
REMARK    3  A    between atoms: C_7  and  C_8
REMARK    4  A    between atoms: C_11  and  C_12
REMARK    5  A    between atoms: C_12  and  C_14
REMARK    6  A    between atoms: C_14  and  C_15
REMARK    7  A    between atoms: C_15  and  C_16
REMARK    8  A    between atoms: C_16  and  C_17
REMARK    9  A    between atoms: C_17  and  C_18
REMARK   10  A    between atoms: C_18  and  C_19
REMARK   11  A    between atoms: C_19  and  C_20
REMARK                            x       y       z     vdW  Elec       q    Type
REMARK                         _______ _______ _______ _____ _____    ______ ____
ROOT
ATOM      1  C   UNL     1       4.652   5.035  17.361  0.00  0.00    +0.000 C 
ATOM      2  O   UNL     1       4.750   3.839  17.076  0.00  0.00    +0.000 OA
ENDROOT
BRANCH   1   6
ATOM      3  C   UNL     1       2.440   7.018  19.296  0.00  0.00    +0.000 A 
ATOM      4  C   UNL     1       2.466   5.840  20.013  0.00  0.00    +0.000 A 
ATOM      5  N   UNL     1       3.274   4.922  19.400  0.00  0.00    +0.000 NA
ATOM      6  C   UNL     1       3.724   5.564  18.338  0.00  0.00    +0.000 A 
ATOM      7  O   UNL     1       3.252   6.845  18.207  0.00  0.00    +0.000 OA
BRANCH   3  12
ATOM      8  C   UNL     1       0.381   9.759  20.833  0.00  0.00    +0.000 A 
ATOM      9  C   UNL     1       0.360  10.699  19.804  0.00  0.00    +0.000 A 
ATOM     10  C   UNL     1       1.044  10.457  18.611  0.00  0.00    +0.000 A 
ATOM     11  C   UNL     1       1.743   9.260  18.435  0.00  0.00    +0.000 A 
ATOM     12  C   UNL     1       1.763   8.297  19.451  0.00  0.00    +0.000 A 
ATOM     13  C   UNL     1       1.088   8.566  20.650  0.00  0.00    +0.000 A 
BRANCH   8  15
ATOM     14  C   UNL     1       0.120   9.519  23.182  0.00  0.00    +0.000 C 
ATOM     15  O   UNL     1      -0.325  10.094  21.956  0.00  0.00    +0.000 OA
ENDBRANCH   8  15
ENDBRANCH   3  12
ENDBRANCH   1   6
BRANCH   1  16
ATOM     16  C   UNL     1       5.557   6.056  16.687  0.00  0.00    +0.000 C 
BRANCH  16  17
ATOM     17  C   UNL     1       7.022   5.899  17.093  0.00  0.00    +0.000 C 
BRANCH  17  18
ATOM     18  C   UNL     1       7.446   6.940  18.130  0.00  0.00    +0.000 C 
BRANCH  18  19
ATOM     19  C   UNL     1       7.944   8.233  17.485  0.00  0.00    +0.000 C 
BRANCH  19  20
ATOM     20  C   UNL     1       8.532   9.159  18.552  0.00  0.00    +0.000 C 
BRANCH  20  21
ATOM     21  C   UNL     1       8.623  10.608  18.073  0.00  0.00    +0.000 C 
BRANCH  21  22
ATOM     22  C   UNL     1       9.891  11.259  18.568  0.00  0.00    +0.000 A 
ATOM     23  C   UNL     1      10.827  11.769  17.657  0.00  0.00    +0.000 A 
ATOM     24  C   UNL     1      12.024  12.324  18.110  0.00  0.00    +0.000 A 
ATOM     25  C   UNL     1      12.301  12.370  19.475  0.00  0.00    +0.000 A 
ATOM     26  C   UNL     1      11.378  11.866  20.389  0.00  0.00    +0.000 A 
ATOM     27  C   UNL     1      10.178  11.312  19.939  0.00  0.00    +0.000 A 
ENDBRANCH  21  22
ENDBRANCH  20  21
ENDBRANCH  19  20
ENDBRANCH  18  19
ENDBRANCH  17  18
ENDBRANCH  16  17
ENDBRANCH   1  16
TORSDOF 10
ENDMDL
MODEL 7
REMARK VINA RESULT:      -7.2      4.567      8.093
REMARK  Name = 
REMARK  11 active torsions:
REMARK  status: ('A' for Active; 'I' for Inactive)
REMARK    1  A    between atoms: C_1  and  O_2
REMARK    2  A    between atoms: O_2  and  C_3
REMARK    3  A    between atoms: C_7  and  C_8
REMARK    4  A    between atoms: C_11  and  C_12
REMARK    5  A    between atoms: C_12  and  C_14
REMARK    6  A    between atoms: C_14  and  C_15
REMARK    7  A    between atoms: C_15  and  C_16
REMARK    8  A    between atoms: C_16  and  C_17
REMARK    9  A    between atoms: C_17  and  C_18
REMARK   10  A    between atoms: C_18  and  C_19
REMARK   11  A    between atoms: C_19  and  C_20
REMARK                            x       y       z     vdW  Elec       q    Type
REMARK                         _______ _______ _______ _____ _____    ______ ____
ROOT
ATOM      1  C   UNL     1       6.315   4.819  17.222  0.00  0.00    +0.000 C 
ATOM      2  O   UNL     1       7.081   4.425  18.106  0.00  0.00    +0.000 OA
ENDROOT
BRANCH   1   6
ATOM      3  C   UNL     1       6.511   4.140  13.748  0.00  0.00    +0.000 A 
ATOM      4  C   UNL     1       7.466   5.123  13.899  0.00  0.00    +0.000 A 
ATOM      5  N   UNL     1       7.529   5.536  15.201  0.00  0.00    +0.000 NA
ATOM      6  C   UNL     1       6.624   4.791  15.808  0.00  0.00    +0.000 A 
ATOM      7  O   UNL     1       5.959   3.920  14.982  0.00  0.00    +0.000 OA
BRANCH   3  12
ATOM      8  C   UNL     1       4.197   2.934  11.044  0.00  0.00    +0.000 A 
ATOM      9  C   UNL     1       4.922   1.866  10.516  0.00  0.00    +0.000 A 
ATOM     10  C   UNL     1       6.185   1.551  11.021  0.00  0.00    +0.000 A 
ATOM     11  C   UNL     1       6.726   2.297  12.071  0.00  0.00    +0.000 A 
ATOM     12  C   UNL     1       6.008   3.364  12.624  0.00  0.00    +0.000 A 
ATOM     13  C   UNL     1       4.749   3.678  12.091  0.00  0.00    +0.000 A 
BRANCH   8  15
ATOM     14  C   UNL     1       2.874   4.246   9.571  0.00  0.00    +0.000 C 
ATOM     15  O   UNL     1       2.970   3.153  10.481  0.00  0.00    +0.000 OA
ENDBRANCH   8  15
ENDBRANCH   3  12
ENDBRANCH   1   6
BRANCH   1  16
ATOM     16  C   UNL     1       4.938   5.354  17.589  0.00  0.00    +0.000 C 
BRANCH  16  17
ATOM     17  C   UNL     1       4.908   6.879  17.683  0.00  0.00    +0.000 C 
BRANCH  17  18
ATOM     18  C   UNL     1       3.480   7.425  17.731  0.00  0.00    +0.000 C 
BRANCH  18  19
ATOM     19  C   UNL     1       2.473   6.376  18.202  0.00  0.00    +0.000 C 
BRANCH  19  20
ATOM     20  C   UNL     1       2.341   6.424  19.726  0.00  0.00    +0.000 C 
BRANCH  20  21
ATOM     21  C   UNL     1       1.748   5.134  20.295  0.00  0.00    +0.000 C 
BRANCH  21  22
ATOM     22  C   UNL     1       2.360   3.925  19.631  0.00  0.00    +0.000 A 
ATOM     23  C   UNL     1       1.702   3.296  18.564  0.00  0.00    +0.000 A 
ATOM     24  C   UNL     1       2.238   2.146  17.982  0.00  0.00    +0.000 A 
ATOM     25  C   UNL     1       3.432   1.611  18.463  0.00  0.00    +0.000 A 
ATOM     26  C   UNL     1       4.094   2.229  19.523  0.00  0.00    +0.000 A 
ATOM     27  C   UNL     1       3.560   3.380  20.105  0.00  0.00    +0.000 A 
ENDBRANCH  21  22
ENDBRANCH  20  21
ENDBRANCH  19  20
ENDBRANCH  18  19
ENDBRANCH  17  18
ENDBRANCH  16  17
ENDBRANCH   1  16
TORSDOF 10
ENDMDL
MODEL 8
REMARK VINA RESULT:      -7.2      4.536      7.581
REMARK  Name = 
REMARK  11 active torsions:
REMARK  status: ('A' for Active; 'I' for Inactive)
REMARK    1  A    between atoms: C_1  and  O_2
REMARK    2  A    between atoms: O_2  and  C_3
REMARK    3  A    between atoms: C_7  and  C_8
REMARK    4  A    between atoms: C_11  and  C_12
REMARK    5  A    between atoms: C_12  and  C_14
REMARK    6  A    between atoms: C_14  and  C_15
REMARK    7  A    between atoms: C_15  and  C_16
REMARK    8  A    between atoms: C_16  and  C_17
REMARK    9  A    between atoms: C_17  and  C_18
REMARK   10  A    between atoms: C_18  and  C_19
REMARK   11  A    between atoms: C_19  and  C_20
REMARK                            x       y       z     vdW  Elec       q    Type
REMARK                         _______ _______ _______ _____ _____    ______ ____
ROOT
ATOM      1  C   UNL     1       2.835   4.988  19.944  0.00  0.00    +0.000 C 
ATOM      2  O   UNL     1       2.133   4.102  20.436  0.00  0.00    +0.000 OA
ENDROOT
BRANCH   1   6
ATOM      3  C   UNL     1       1.391   8.218  20.177  0.00  0.00    +0.000 A 
ATOM      4  C   UNL     1       1.991   8.265  18.935  0.00  0.00    +0.000 A 
ATOM      5  N   UNL     1       2.630   7.086  18.666  0.00  0.00    +0.000 NA
ATOM      6  C   UNL     1       2.394   6.353  19.738  0.00  0.00    +0.000 A 
ATOM      7  O   UNL     1       1.650   6.981  20.704  0.00  0.00    +0.000 OA
BRANCH   3  12
ATOM      8  C   UNL     1      -0.580  11.281  21.100  0.00  0.00    +0.000 A 
ATOM      9  C   UNL     1      -0.824  11.054  22.454  0.00  0.00    +0.000 A 
ATOM     10  C   UNL     1      -0.372   9.885  23.067  0.00  0.00    +0.000 A 
ATOM     11  C   UNL     1       0.343   8.938  22.331  0.00  0.00    +0.000 A 
ATOM     12  C   UNL     1       0.612   9.154  20.973  0.00  0.00    +0.000 A 
ATOM     13  C   UNL     1       0.132  10.325  20.369  0.00  0.00    +0.000 A 
BRANCH   8  15
ATOM     14  C   UNL     1      -2.220  12.994  21.235  0.00  0.00    +0.000 C 
ATOM     15  O   UNL     1      -1.062  12.459  20.600  0.00  0.00    +0.000 OA
ENDBRANCH   8  15
ENDBRANCH   3  12
ENDBRANCH   1   6
BRANCH   1  16
ATOM     16  C   UNL     1       4.268   4.686  19.533  0.00  0.00    +0.000 C 
BRANCH  16  17
ATOM     17  C   UNL     1       4.375   3.444  18.648  0.00  0.00    +0.000 C 
BRANCH  17  18
ATOM     18  C   UNL     1       3.724   3.654  17.280  0.00  0.00    +0.000 C 
BRANCH  18  19
ATOM     19  C   UNL     1       4.574   4.533  16.362  0.00  0.00    +0.000 C 
BRANCH  19  20
ATOM     20  C   UNL     1       5.655   3.690  15.683  0.00  0.00    +0.000 C 
BRANCH  20  21
ATOM     21  C   UNL     1       6.921   4.498  15.395  0.00  0.00    +0.000 C 
BRANCH  21  22
ATOM     22  C   UNL     1       7.331   5.303  16.603  0.00  0.00    +0.000 A 
ATOM     23  C   UNL     1       7.709   4.655  17.788  0.00  0.00    +0.000 A 
ATOM     24  C   UNL     1       8.038   5.396  18.924  0.00  0.00    +0.000 A 
ATOM     25  C   UNL     1       7.988   6.789  18.889  0.00  0.00    +0.000 A 
ATOM     26  C   UNL     1       7.614   7.442  17.716  0.00  0.00    +0.000 A 
ATOM     27  C   UNL     1       7.286   6.702  16.578  0.00  0.00    +0.000 A 
ENDBRANCH  21  22
ENDBRANCH  20  21
ENDBRANCH  19  20
ENDBRANCH  18  19
ENDBRANCH  17  18
ENDBRANCH  16  17
ENDBRANCH   1  16
TORSDOF 10
ENDMDL
MODEL 9
REMARK VINA RESULT:      -7.1      6.320      9.283
REMARK  Name = 
REMARK  11 active torsions:
REMARK  status: ('A' for Active; 'I' for Inactive)
REMARK    1  A    between atoms: C_1  and  O_2
REMARK    2  A    between atoms: O_2  and  C_3
REMARK    3  A    between atoms: C_7  and  C_8
REMARK    4  A    between atoms: C_11  and  C_12
REMARK    5  A    between atoms: C_12  and  C_14
REMARK    6  A    between atoms: C_14  and  C_15
REMARK    7  A    between atoms: C_15  and  C_16
REMARK    8  A    between atoms: C_16  and  C_17
REMARK    9  A    between atoms: C_17  and  C_18
REMARK   10  A    between atoms: C_18  and  C_19
REMARK   11  A    between atoms: C_19  and  C_20
REMARK                            x       y       z     vdW  Elec       q    Type
REMARK                         _______ _______ _______ _____ _____    ______ ____
ROOT
ATOM      1  C   UNL     1       0.782   9.227  21.630  0.00  0.00    +0.000 C 
ATOM      2  O   UNL     1       1.632   9.540  22.467  0.00  0.00    +0.000 OA
ENDROOT
BRANCH   1   6
ATOM      3  C   UNL     1      -1.390  10.921  19.398  0.00  0.00    +0.000 A 
ATOM      4  C   UNL     1      -1.092  11.912  20.310  0.00  0.00    +0.000 A 
ATOM      5  N   UNL     1      -0.258  11.434  21.284  0.00  0.00    +0.000 NA
ATOM      6  C   UNL     1      -0.062  10.176  20.935  0.00  0.00    +0.000 A 
ATOM      7  O   UNL     1      -0.726   9.791  19.798  0.00  0.00    +0.000 OA
BRANCH   3  12
ATOM      8  C   UNL     1      -4.219  11.569  17.012  0.00  0.00    +0.000 A 
ATOM      9  C   UNL     1      -3.904  10.700  15.968  0.00  0.00    +0.000 A 
ATOM     10  C   UNL     1      -2.749   9.917  16.024  0.00  0.00    +0.000 A 
ATOM     11  C   UNL     1      -1.906   9.989  17.135  0.00  0.00    +0.000 A 
ATOM     12  C   UNL     1      -2.213  10.845  18.201  0.00  0.00    +0.000 A 
ATOM     13  C   UNL     1      -3.366  11.639  18.118  0.00  0.00    +0.000 A 
BRANCH   8  15
ATOM     14  C   UNL     1      -6.156  12.488  18.033  0.00  0.00    +0.000 C 
ATOM     15  O   UNL     1      -5.374  12.285  16.859  0.00  0.00    +0.000 OA
ENDBRANCH   8  15
ENDBRANCH   3  12
ENDBRANCH   1   6
BRANCH   1  16
ATOM     16  C   UNL     1       0.586   7.765  21.253  0.00  0.00    +0.000 C 
BRANCH  16  17
ATOM     17  C   UNL     1       1.865   7.121  20.721  0.00  0.00    +0.000 C 
BRANCH  17  18
ATOM     18  C   UNL     1       2.312   7.738  19.395  0.00  0.00    +0.000 C 
BRANCH  18  19
ATOM     19  C   UNL     1       2.137   6.777  18.219  0.00  0.00    +0.000 C 
BRANCH  19  20
ATOM     20  C   UNL     1       3.502   6.266  17.753  0.00  0.00    +0.000 C 
BRANCH  20  21
ATOM     21  C   UNL     1       3.508   4.752  17.537  0.00  0.00    +0.000 C 
BRANCH  21  22
ATOM     22  C   UNL     1       2.754   4.050  18.640  0.00  0.00    +0.000 A 
ATOM     23  C   UNL     1       1.461   3.559  18.410  0.00  0.00    +0.000 A 
ATOM     24  C   UNL     1       0.740   2.957  19.442  0.00  0.00    +0.000 A 
ATOM     25  C   UNL     1       1.301   2.843  20.712  0.00  0.00    +0.000 A 
ATOM     26  C   UNL     1       2.586   3.327  20.951  0.00  0.00    +0.000 A 
ATOM     27  C   UNL     1       3.309   3.929  19.920  0.00  0.00    +0.000 A 
ENDBRANCH  21  22
ENDBRANCH  20  21
ENDBRANCH  19  20
ENDBRANCH  18  19
ENDBRANCH  17  18
ENDBRANCH  16  17
ENDBRANCH   1  16
TORSDOF 10
ENDMDL
