MODEL 1
REMARK VINA RESULT:      -6.8      0.000      0.000
REMARK  Name = 
REMARK  5 active torsions:
REMARK  status: ('A' for Active; 'I' for Inactive)
REMARK    1  A    between atoms: S_2  and  C_4
REMARK    2  A    between atoms: S_2  and  C_16
REMARK    3  A    between atoms: C_5  and  S_6
REMARK    4  A    between atoms: S_6  and  C_9
REMARK    5  A    between atoms: C_16  and  C_17
REMARK                            x       y       z     vdW  Elec       q    Type
REMARK                         _______ _______ _______ _____ _____    ______ ____
ROOT
ATOM      1  C   UNL     1       5.526   5.859  18.648  0.00  0.00    +0.000 C 
ATOM      2  C   UNL     1       4.377   6.102  18.002  0.00  0.00    +0.000 C 
ENDROOT
BRANCH   1   4
ATOM      3  O   UNL     1       6.812   7.129  16.808  0.00  0.00    +0.000 OA
ATOM      4  S   UNL     1       7.039   6.168  17.872  0.00  0.00    +0.000 S 
ATOM      5  O   UNL     1       8.027   6.457  18.897  0.00  0.00    +0.000 OA
BRANCH   4   6
ATOM      6  C   UNL     1       7.519   4.645  17.127  0.00  0.00    +0.000 C 
BRANCH   6   7
ATOM      7  C   UNL     1       7.108   4.565  15.702  0.00  0.00    +0.000 C 
ATOM      8  N   UNL     1       7.789   5.083  14.732  0.00  0.00    +0.000 NA
ATOM      9  C   UNL     1       7.031   4.963  13.468  0.00  0.00    +0.000 C 
ATOM     10  C   UNL     1       6.028   3.823  13.560  0.00  0.00    +0.000 C 
ATOM     11  S   UNL     1       5.578   3.827  15.304  0.00  0.00    +0.000 S 
ENDBRANCH   6   7
ENDBRANCH   4   6
ENDBRANCH   1   4
BRANCH   2  12
ATOM     12  S   UNL     1       2.896   5.762  18.831  0.00  0.00    +0.000 S 
ATOM     13  O   UNL     1       2.009   5.009  17.966  0.00  0.00    +0.000 OA
ATOM     14  O   UNL     1       3.208   5.288  20.164  0.00  0.00    +0.000 OA
BRANCH  12  15
ATOM     15  C   UNL     1       2.185   7.389  19.011  0.00  0.00    +0.000 A 
ATOM     16  C   UNL     1       2.122   8.239  17.902  0.00  0.00    +0.000 A 
ATOM     17  C   UNL     1       1.585   9.520  18.051  0.00  0.00    +0.000 A 
ATOM     18  C   UNL     1       1.108   9.934  19.295  0.00  0.00    +0.000 A 
ATOM     19 CL   UNL     1       0.477  11.524  19.482  0.00  0.00    +0.000 Cl
ATOM     20  C   UNL     1       1.145   9.072  20.393  0.00  0.00    +0.000 A 
ATOM     21  C   UNL     1       1.678   7.788  20.251  0.00  0.00    +0.000 A 
ENDBRANCH  12  15
ENDBRANCH   2  12
TORSDOF 5
ENDMDL
MODEL 2
REMARK VINA RESULT:      -6.7      0.631      1.233
REMARK  Name = 
REMARK  5 active torsions:
REMARK  status: ('A' for Active; 'I' for Inactive)
REMARK    1  A    between atoms: S_2  and  C_4
REMARK    2  A    between atoms: S_2  and  C_16
REMARK    3  A    between atoms: C_5  and  S_6
REMARK    4  A    between atoms: S_6  and  C_9
REMARK    5  A    between atoms: C_16  and  C_17
REMARK                            x       y       z     vdW  Elec       q    Type
REMARK                         _______ _______ _______ _____ _____    ______ ____
ROOT
ATOM      1  C   UNL     1       5.508   5.304  18.970  0.00  0.00    +0.000 C 
ATOM      2  C   UNL     1       4.576   6.231  18.708  0.00  0.00    +0.000 C 
ENDROOT
BRANCH   1   4
ATOM      3  O   UNL     1       7.256   6.902  17.948  0.00  0.00    +0.000 OA
ATOM      4  S   UNL     1       7.174   5.636  18.654  0.00  0.00    +0.000 S 
ATOM      5  O   UNL     1       7.917   5.457  19.889  0.00  0.00    +0.000 OA
BRANCH   4   6
ATOM      6  C   UNL     1       7.718   4.371  17.554  0.00  0.00    +0.000 C 
BRANCH   6   7
ATOM      7  C   UNL     1       7.098   4.495  16.209  0.00  0.00    +0.000 C 
ATOM      8  N   UNL     1       7.635   5.153  15.234  0.00  0.00    +0.000 NA
ATOM      9  C   UNL     1       6.696   5.211  14.093  0.00  0.00    +0.000 C 
ATOM     10  C   UNL     1       5.702   4.062  14.167  0.00  0.00    +0.000 C 
ATOM     11  S   UNL     1       5.516   3.809  15.941  0.00  0.00    +0.000 S 
ENDBRANCH   6   7
ENDBRANCH   4   6
ENDBRANCH   1   4
BRANCH   2  12
ATOM     12  S   UNL     1       2.925   5.833  19.037  0.00  0.00    +0.000 S 
ATOM     13  O   UNL     1       2.344   5.156  17.894  0.00  0.00    +0.000 OA
ATOM     14  O   UNL     1       2.842   5.251  20.362  0.00  0.00    +0.000 OA
BRANCH  12  15
ATOM     15  C   UNL     1       2.162   7.443  19.128  0.00  0.00    +0.000 A 
ATOM     16  C   UNL     1       1.643   7.892  20.347  0.00  0.00    +0.000 A 
ATOM     17  C   UNL     1       1.027   9.144  20.410  0.00  0.00    +0.000 A 
ATOM     18  C   UNL     1       0.944   9.936  19.265  0.00  0.00    +0.000 A 
ATOM     19 CL   UNL     1       0.155  11.464  19.340  0.00  0.00    +0.000 Cl
ATOM     20  C   UNL     1       1.488   9.499  18.056  0.00  0.00    +0.000 A 
ATOM     21  C   UNL     1       2.109   8.249  17.986  0.00  0.00    +0.000 A 
ENDBRANCH  12  15
ENDBRANCH   2  12
TORSDOF 5
ENDMDL
MODEL 3
REMARK VINA RESULT:      -6.7      1.049      1.175
REMARK  Name = 
REMARK  5 active torsions:
REMARK  status: ('A' for Active; 'I' for Inactive)
REMARK    1  A    between atoms: S_2  and  C_4
REMARK    2  A    between atoms: S_2  and  C_16
REMARK    3  A    between atoms: C_5  and  S_6
REMARK    4  A    between atoms: S_6  and  C_9
REMARK    5  A    between atoms: C_16  and  C_17
REMARK                            x       y       z     vdW  Elec       q    Type
REMARK                         _______ _______ _______ _____ _____    ______ ____
ROOT
ATOM      1  C   UNL     1       5.055   6.162  17.794  0.00  0.00    +0.000 C 
ATOM      2  C   UNL     1       3.799   5.743  17.586  0.00  0.00    +0.000 C 
ENDROOT
BRANCH   1   4
ATOM      3  O   UNL     1       5.285   6.917  15.339  0.00  0.00    +0.000 OA
ATOM      4  S   UNL     1       6.100   6.468  16.453  0.00  0.00    +0.000 S 
ATOM      5  O   UNL     1       7.201   7.298  16.912  0.00  0.00    +0.000 OA
BRANCH   4   6
ATOM      6  C   UNL     1       6.796   4.909  16.016  0.00  0.00    +0.000 C 
BRANCH   6   7
ATOM      7  C   UNL     1       6.985   4.773  14.549  0.00  0.00    +0.000 C 
ATOM      8  N   UNL     1       7.887   5.416  13.883  0.00  0.00    +0.000 NA
ATOM      9  C   UNL     1       7.707   5.175  12.435  0.00  0.00    +0.000 C 
ATOM     10  C   UNL     1       6.958   3.872  12.205  0.00  0.00    +0.000 C 
ATOM     11  S   UNL     1       5.878   3.774  13.643  0.00  0.00    +0.000 S 
ENDBRANCH   6   7
ENDBRANCH   4   6
ENDBRANCH   1   4
BRANCH   2  12
ATOM     12  S   UNL     1       2.806   5.445  18.971  0.00  0.00    +0.000 S 
ATOM     13  O   UNL     1       1.701   4.578  18.608  0.00  0.00    +0.000 OA
ATOM     14  O   UNL     1       3.662   5.122  20.095  0.00  0.00    +0.000 OA
BRANCH  12  15
ATOM     15  C   UNL     1       2.114   7.058  19.292  0.00  0.00    +0.000 A 
ATOM     16  C   UNL     1       2.036   7.993  18.254  0.00  0.00    +0.000 A 
ATOM     17  C   UNL     1       1.515   9.262  18.512  0.00  0.00    +0.000 A 
ATOM     18  C   UNL     1       1.067   9.582  19.795  0.00  0.00    +0.000 A 
ATOM     19 CL   UNL     1       0.455  11.157  20.117  0.00  0.00    +0.000 Cl
ATOM     20  C   UNL     1       1.119   8.637  20.822  0.00  0.00    +0.000 A 
ATOM     21  C   UNL     1       1.636   7.365  20.570  0.00  0.00    +0.000 A 
ENDBRANCH  12  15
ENDBRANCH   2  12
TORSDOF 5
ENDMDL
MODEL 4
REMARK VINA RESULT:      -6.6      1.016      1.570
REMARK  Name = 
REMARK  5 active torsions:
REMARK  status: ('A' for Active; 'I' for Inactive)
REMARK    1  A    between atoms: S_2  and  C_4
REMARK    2  A    between atoms: S_2  and  C_16
REMARK    3  A    between atoms: C_5  and  S_6
REMARK    4  A    between atoms: S_6  and  C_9
REMARK    5  A    between atoms: C_16  and  C_17
REMARK                            x       y       z     vdW  Elec       q    Type
REMARK                         _______ _______ _______ _____ _____    ______ ____
ROOT
ATOM      1  C   UNL     1       5.696   5.050  18.992  0.00  0.00    +0.000 C 
ATOM      2  C   UNL     1       4.585   5.574  18.455  0.00  0.00    +0.000 C 
ENDROOT
BRANCH   1   4
ATOM      3  O   UNL     1       8.002   6.178  19.231  0.00  0.00    +0.000 OA
ATOM      4  S   UNL     1       7.239   5.381  18.288  0.00  0.00    +0.000 S 
ATOM      5  O   UNL     1       7.793   4.133  17.795  0.00  0.00    +0.000 OA
BRANCH   4   6
ATOM      6  C   UNL     1       6.920   6.382  16.874  0.00  0.00    +0.000 C 
BRANCH   6   7
ATOM      7  C   UNL     1       6.833   5.578  15.628  0.00  0.00    +0.000 C 
ATOM      8  N   UNL     1       7.771   5.534  14.739  0.00  0.00    +0.000 NA
ATOM      9  C   UNL     1       7.308   4.773  13.559  0.00  0.00    +0.000 C 
ATOM     10  C   UNL     1       6.182   3.828  13.948  0.00  0.00    +0.000 C 
ATOM     11  S   UNL     1       5.355   4.719  15.277  0.00  0.00    +0.000 S 
ENDBRANCH   6   7
ENDBRANCH   4   6
ENDBRANCH   1   4
BRANCH   2  12
ATOM     12  S   UNL     1       3.070   5.196  19.201  0.00  0.00    +0.000 S 
ATOM     13  O   UNL     1       2.232   4.464  18.270  0.00  0.00    +0.000 OA
ATOM     14  O   UNL     1       3.323   4.680  20.530  0.00  0.00    +0.000 OA
BRANCH  12  15
ATOM     15  C   UNL     1       2.336   6.810  19.400  0.00  0.00    +0.000 A 
ATOM     16  C   UNL     1       1.820   7.183  20.645  0.00  0.00    +0.000 A 
ATOM     17  C   UNL     1       1.226   8.438  20.792  0.00  0.00    +0.000 A 
ATOM     18  C   UNL     1       1.163   9.309  19.705  0.00  0.00    +0.000 A 
ATOM     19 CL   UNL     1       0.402  10.843  19.882  0.00  0.00    +0.000 Cl
ATOM     20  C   UNL     1       1.706   8.946  18.470  0.00  0.00    +0.000 A 
ATOM     21  C   UNL     1       2.304   7.694  18.316  0.00  0.00    +0.000 A 
ENDBRANCH  12  15
ENDBRANCH   2  12
TORSDOF 5
ENDMDL
MODEL 5
REMARK VINA RESULT:      -6.6      1.164      1.309
REMARK  Name = 
REMARK  5 active torsions:
REMARK  status: ('A' for Active; 'I' for Inactive)
REMARK    1  A    between atoms: S_2  and  C_4
REMARK    2  A    between atoms: S_2  and  C_16
REMARK    3  A    between atoms: C_5  and  S_6
REMARK    4  A    between atoms: S_6  and  C_9
REMARK    5  A    between atoms: C_16  and  C_17
REMARK                            x       y       z     vdW  Elec       q    Type
REMARK                         _______ _______ _______ _____ _____    ______ ____
ROOT
ATOM      1  C   UNL     1       5.272   5.542  18.837  0.00  0.00    +0.000 C 
ATOM      2  C   UNL     1       4.755   4.409  19.334  0.00  0.00    +0.000 C 
ENDROOT
BRANCH   1   4
ATOM      3  O   UNL     1       7.254   6.986  18.038  0.00  0.00    +0.000 OA
ATOM      4  S   UNL     1       6.985   5.742  18.737  0.00  0.00    +0.000 S 
ATOM      5  O   UNL     1       7.547   5.529  20.059  0.00  0.00    +0.000 OA
BRANCH   4   6
ATOM      6  C   UNL     1       7.567   4.422  17.726  0.00  0.00    +0.000 C 
BRANCH   6   7
ATOM      7  C   UNL     1       7.071   4.526  16.329  0.00  0.00    +0.000 C 
ATOM      8  N   UNL     1       7.614   5.283  15.433  0.00  0.00    +0.000 NA
ATOM      9  C   UNL     1       6.791   5.275  14.205  0.00  0.00    +0.000 C 
ATOM     10  C   UNL     1       5.944   4.013  14.144  0.00  0.00    +0.000 C 
ATOM     11  S   UNL     1       5.619   3.667  15.882  0.00  0.00    +0.000 S 
ENDBRANCH   6   7
ENDBRANCH   4   6
ENDBRANCH   1   4
BRANCH   2  12
ATOM     12  S   UNL     1       3.031   4.276  19.416  0.00  0.00    +0.000 S 
ATOM     13  O   UNL     1       2.534   3.588  18.240  0.00  0.00    +0.000 OA
ATOM     14  O   UNL     1       2.663   3.831  20.745  0.00  0.00    +0.000 OA
BRANCH  12  15
ATOM     15  C   UNL     1       2.516   5.979  19.276  0.00  0.00    +0.000 A 
ATOM     16  C   UNL     1       2.542   6.606  18.025  0.00  0.00    +0.000 A 
ATOM     17  C   UNL     1       2.160   7.944  17.922  0.00  0.00    +0.000 A 
ATOM     18  C   UNL     1       1.745   8.639  19.059  0.00  0.00    +0.000 A 
ATOM     19 CL   UNL     1       1.305  10.298  18.933  0.00  0.00    +0.000 Cl
ATOM     20  C   UNL     1       1.691   8.002  20.301  0.00  0.00    +0.000 A 
ATOM     21  C   UNL     1       2.070   6.662  20.411  0.00  0.00    +0.000 A 
ENDBRANCH  12  15
ENDBRANCH   2  12
TORSDOF 5
ENDMDL
MODEL 6
REMARK VINA RESULT:      -6.5      1.512      1.722
REMARK  Name = 
REMARK  5 active torsions:
REMARK  status: ('A' for Active; 'I' for Inactive)
REMARK    1  A    between atoms: S_2  and  C_4
REMARK    2  A    between atoms: S_2  and  C_16
REMARK    3  A    between atoms: C_5  and  S_6
REMARK    4  A    between atoms: S_6  and  C_9
REMARK    5  A    between atoms: C_16  and  C_17
REMARK                            x       y       z     vdW  Elec       q    Type
REMARK                         _______ _______ _______ _____ _____    ______ ____
ROOT
ATOM      1  C   UNL     1       4.875   5.421  19.382  0.00  0.00    +0.000 C 
ATOM      2  C   UNL     1       4.100   4.336  19.515  0.00  0.00    +0.000 C 
ENDROOT
BRANCH   1   4
ATOM      3  O   UNL     1       7.339   5.710  20.087  0.00  0.00    +0.000 OA
ATOM      4  S   UNL     1       6.543   5.249  18.964  0.00  0.00    +0.000 S 
ATOM      5  O   UNL     1       6.747   3.907  18.447  0.00  0.00    +0.000 OA
BRANCH   4   6
ATOM      6  C   UNL     1       6.821   6.353  17.620  0.00  0.00    +0.000 C 
BRANCH   6   7
ATOM      7  C   UNL     1       6.621   5.693  16.304  0.00  0.00    +0.000 C 
ATOM      8  N   UNL     1       7.583   5.451  15.474  0.00  0.00    +0.000 NA
ATOM      9  C   UNL     1       7.029   4.933  14.204  0.00  0.00    +0.000 C 
ATOM     10  C   UNL     1       5.659   4.315  14.438  0.00  0.00    +0.000 C 
ATOM     11  S   UNL     1       4.999   5.307  15.789  0.00  0.00    +0.000 S 
ENDBRANCH   6   7
ENDBRANCH   4   6
ENDBRANCH   1   4
BRANCH   2  12
ATOM     12  S   UNL     1       2.441   4.576  19.945  0.00  0.00    +0.000 S 
ATOM     13  O   UNL     1       1.588   3.785  19.079  0.00  0.00    +0.000 OA
ATOM     14  O   UNL     1       2.317   4.488  21.386  0.00  0.00    +0.000 OA
BRANCH  12  15
ATOM     15  C   UNL     1       2.183   6.286  19.504  0.00  0.00    +0.000 A 
ATOM     16  C   UNL     1       2.391   6.695  18.183  0.00  0.00    +0.000 A 
ATOM     17  C   UNL     1       2.209   8.038  17.845  0.00  0.00    +0.000 A 
ATOM     18  C   UNL     1       1.813   8.953  18.821  0.00  0.00    +0.000 A 
ATOM     19 CL   UNL     1       1.621  10.612  18.408  0.00  0.00    +0.000 Cl
ATOM     20  C   UNL     1       1.577   8.536  20.133  0.00  0.00    +0.000 A 
ATOM     21  C   UNL     1       1.753   7.194  20.477  0.00  0.00    +0.000 A 
ENDBRANCH  12  15
ENDBRANCH   2  12
TORSDOF 5
ENDMDL
MODEL 7
REMARK VINA RESULT:      -6.4      1.580      1.857
REMARK  Name = 
REMARK  5 active torsions:
REMARK  status: ('A' for Active; 'I' for Inactive)
REMARK    1  A    between atoms: S_2  and  C_4
REMARK    2  A    between atoms: S_2  and  C_16
REMARK    3  A    between atoms: C_5  and  S_6
REMARK    4  A    between atoms: S_6  and  C_9
REMARK    5  A    between atoms: C_16  and  C_17
REMARK                            x       y       z     vdW  Elec       q    Type
REMARK                         _______ _______ _______ _____ _____    ______ ____
ROOT
ATOM      1  C   UNL     1       5.589   5.138  19.052  0.00  0.00    +0.000 C 
ATOM      2  C   UNL     1       4.956   4.020  18.669  0.00  0.00    +0.000 C 
ENDROOT
BRANCH   1   4
ATOM      3  O   UNL     1       7.891   6.149  19.625  0.00  0.00    +0.000 OA
ATOM      4  S   UNL     1       7.222   5.420  18.563  0.00  0.00    +0.000 S 
ATOM      5  O   UNL     1       7.782   4.164  18.095  0.00  0.00    +0.000 OA
BRANCH   4   6
ATOM      6  C   UNL     1       7.130   6.482  17.159  0.00  0.00    +0.000 C 
BRANCH   6   7
ATOM      7  C   UNL     1       6.811   5.736  15.914  0.00  0.00    +0.000 C 
ATOM      8  N   UNL     1       7.711   5.248  15.125  0.00  0.00    +0.000 NA
ATOM      9  C   UNL     1       7.069   4.707  13.907  0.00  0.00    +0.000 C 
ATOM     10  C   UNL     1       5.614   4.364  14.185  0.00  0.00    +0.000 C 
ATOM     11  S   UNL     1       5.144   5.587  15.421  0.00  0.00    +0.000 S 
ENDBRANCH   6   7
ENDBRANCH   4   6
ENDBRANCH   1   4
BRANCH   2  12
ATOM     12  S   UNL     1       3.325   3.793  19.200  0.00  0.00    +0.000 S 
ATOM     13  O   UNL     1       2.563   3.107  18.174  0.00  0.00    +0.000 OA
ATOM     14  O   UNL     1       3.344   3.297  20.562  0.00  0.00    +0.000 OA
BRANCH  12  15
ATOM     15  C   UNL     1       2.714   5.468  19.265  0.00  0.00    +0.000 A 
ATOM     16  C   UNL     1       2.733   6.253  18.108  0.00  0.00    +0.000 A 
ATOM     17  C   UNL     1       2.275   7.571  18.166  0.00  0.00    +0.000 A 
ATOM     18  C   UNL     1       1.794   8.087  19.370  0.00  0.00    +0.000 A 
ATOM     19 CL   UNL     1       1.260   9.721  19.446  0.00  0.00    +0.000 Cl
ATOM     20  C   UNL     1       1.748   7.292  20.517  0.00  0.00    +0.000 A 
ATOM     21  C   UNL     1       2.202   5.971  20.465  0.00  0.00    +0.000 A 
ENDBRANCH  12  15
ENDBRANCH   2  12
TORSDOF 5
ENDMDL
MODEL 8
REMARK VINA RESULT:      -6.4      3.891      6.857
REMARK  Name = 
REMARK  5 active torsions:
REMARK  status: ('A' for Active; 'I' for Inactive)
REMARK    1  A    between atoms: S_2  and  C_4
REMARK    2  A    between atoms: S_2  and  C_16
REMARK    3  A    between atoms: C_5  and  S_6
REMARK    4  A    between atoms: S_6  and  C_9
REMARK    5  A    between atoms: C_16  and  C_17
REMARK                            x       y       z     vdW  Elec       q    Type
REMARK                         _______ _______ _______ _____ _____    ______ ____
ROOT
ATOM      1  C   UNL     1       4.544   6.536  17.678  0.00  0.00    +0.000 C 
ATOM      2  C   UNL     1       5.478   5.746  18.227  0.00  0.00    +0.000 C 
ENDROOT
BRANCH   1   4
ATOM      3  O   UNL     1       3.120   6.564  19.828  0.00  0.00    +0.000 OA
ATOM      4  S   UNL     1       2.971   6.639  18.386  0.00  0.00    +0.000 S 
ATOM      5  O   UNL     1       2.279   7.772  17.797  0.00  0.00    +0.000 OA
BRANCH   4   6
ATOM      6  C   UNL     1       2.109   5.195  17.860  0.00  0.00    +0.000 C 
BRANCH   6   7
ATOM      7  C   UNL     1       2.212   4.091  18.848  0.00  0.00    +0.000 C 
ATOM      8  N   UNL     1       3.143   3.194  18.822  0.00  0.00    +0.000 NA
ATOM      9  C   UNL     1       2.869   2.159  19.842  0.00  0.00    +0.000 C 
ATOM     10  C   UNL     1       1.979   2.720  20.940  0.00  0.00    +0.000 C 
ATOM     11  S   UNL     1       0.965   3.919  20.056  0.00  0.00    +0.000 S 
ENDBRANCH   6   7
ENDBRANCH   4   6
ENDBRANCH   1   4
BRANCH   2  12
ATOM     12  S   UNL     1       7.030   5.680  17.464  0.00  0.00    +0.000 S 
ATOM     13  O   UNL     1       7.497   7.023  17.180  0.00  0.00    +0.000 OA
ATOM     14  O   UNL     1       7.865   4.744  18.189  0.00  0.00    +0.000 OA
BRANCH  12  15
ATOM     15  C   UNL     1       6.644   4.924  15.894  0.00  0.00    +0.000 A 
ATOM     16  C   UNL     1       7.415   5.239  14.770  0.00  0.00    +0.000 A 
ATOM     17  C   UNL     1       7.098   4.663  13.538  0.00  0.00    +0.000 A 
ATOM     18  C   UNL     1       6.027   3.774  13.442  0.00  0.00    +0.000 A 
ATOM     19 CL   UNL     1       5.619   3.091  11.916  0.00  0.00    +0.000 Cl
ATOM     20  C   UNL     1       5.277   3.439  14.571  0.00  0.00    +0.000 A 
ATOM     21  C   UNL     1       5.591   4.008  15.807  0.00  0.00    +0.000 A 
ENDBRANCH  12  15
ENDBRANCH   2  12
TORSDOF 5
ENDMDL
MODEL 9
REMARK VINA RESULT:      -6.4      3.984      7.031
REMARK  Name = 
REMARK  5 active torsions:
REMARK  status: ('A' for Active; 'I' for Inactive)
REMARK    1  A    between atoms: S_2  and  C_4
REMARK    2  A    between atoms: S_2  and  C_16
REMARK    3  A    between atoms: C_5  and  S_6
REMARK    4  A    between atoms: S_6  and  C_9
REMARK    5  A    between atoms: C_16  and  C_17
REMARK                            x       y       z     vdW  Elec       q    Type
REMARK                         _______ _______ _______ _____ _____    ______ ____
ROOT
ATOM      1  C   UNL     1       4.600   6.301  17.683  0.00  0.00    +0.000 C 
ATOM      2  C   UNL     1       5.585   5.757  18.411  0.00  0.00    +0.000 C 
ENDROOT
BRANCH   1   4
ATOM      3  O   UNL     1       2.681   7.873  18.389  0.00  0.00    +0.000 OA
ATOM      4  S   UNL     1       3.014   6.460  18.350  0.00  0.00    +0.000 S 
ATOM      5  O   UNL     1       2.132   5.537  17.658  0.00  0.00    +0.000 OA
BRANCH   4   6
ATOM      6  C   UNL     1       3.130   5.891  20.014  0.00  0.00    +0.000 C 
BRANCH   6   7
ATOM      7  C   UNL     1       2.494   4.561  20.195  0.00  0.00    +0.000 C 
ATOM      8  N   UNL     1       1.325   4.395  20.722  0.00  0.00    +0.000 NA
ATOM      9  C   UNL     1       1.056   2.951  20.898  0.00  0.00    +0.000 C 
ATOM     10  C   UNL     1       1.902   2.134  19.934  0.00  0.00    +0.000 C 
ATOM     11  S   UNL     1       3.396   3.128  19.773  0.00  0.00    +0.000 S 
ENDBRANCH   6   7
ENDBRANCH   4   6
ENDBRANCH   1   4
BRANCH   2  12
ATOM     12  S   UNL     1       7.147   5.617  17.681  0.00  0.00    +0.000 S 
ATOM     13  O   UNL     1       7.699   6.937  17.443  0.00  0.00    +0.000 OA
ATOM     14  O   UNL     1       7.908   4.616  18.400  0.00  0.00    +0.000 OA
BRANCH  12  15
ATOM     15  C   UNL     1       6.754   4.924  16.084  0.00  0.00    +0.000 A 
ATOM     16  C   UNL     1       5.811   3.895  15.993  0.00  0.00    +0.000 A 
ATOM     17  C   UNL     1       5.522   3.340  14.745  0.00  0.00    +0.000 A 
ATOM     18  C   UNL     1       6.164   3.822  13.604  0.00  0.00    +0.000 A 
ATOM     19 CL   UNL     1       5.829   3.113  12.072  0.00  0.00    +0.000 Cl
ATOM     20  C   UNL     1       7.083   4.869  13.694  0.00  0.00    +0.000 A 
ATOM     21  C   UNL     1       7.375   5.432  14.939  0.00  0.00    +0.000 A 
ENDBRANCH  12  15
ENDBRANCH   2  12
TORSDOF 5
ENDMDL
