MODEL 1
REMARK VINA RESULT:      -7.1      0.000      0.000
REMARK  Name = 
REMARK  5 active torsions:
REMARK  status: ('A' for Active; 'I' for Inactive)
REMARK    1  A    between atoms: C_1  and  C_2
REMARK    2  A    between atoms: C_9  and  N_10
REMARK    3  A    between atoms: N_14  and  C_15
REMARK    4  A    between atoms: C_16  and  C_17
REMARK    5  A    between atoms: N_20  and  C_21
REMARK                            x       y       z     vdW  Elec       q    Type
REMARK                         _______ _______ _______ _____ _____    ______ ____
ROOT
ATOM      1  C   UNL     1      11.932  15.385  17.227  0.00  0.00    +0.000 C 
ATOM      2  C   UNL     1      11.593  14.636  18.549  0.00  0.00    +0.000 C 
ATOM      3  O   UNL     1      11.185  15.304  19.788  0.00  0.00    +0.000 OA
ATOM      4  C   UNL     1      10.168  14.764  20.600  0.00  0.00    +0.000 A 
ATOM      5  C   UNL     1       9.169  15.688  20.911  0.00  0.00    +0.000 A 
ATOM      6  C   UNL     1       7.828  15.262  21.082  0.00  0.00    +0.000 A 
ATOM      7  C   UNL     1       7.639  13.897  21.266  0.00  0.00    +0.000 A 
ATOM      8  N   UNL     1       8.652  13.008  21.296  0.00  0.00    +0.000 NA
ATOM      9  C   UNL     1       9.897  13.439  20.941  0.00  0.00    +0.000 A 
ATOM     10  C   UNL     1       6.751  16.185  20.756  0.00  0.00    +0.000 A 
ATOM     11  C   UNL     1       6.722  17.135  19.687  0.00  0.00    +0.000 A 
ATOM     12  N   UNL     1       5.617  17.897  19.722  0.00  0.00    +0.000 NA
ATOM     13  N   UNL     1       4.871  17.342  20.680  0.00  0.00    +0.000 N 
ATOM     14  C   UNL     1       3.567  17.923  20.928  0.00  0.00    +0.000 C 
ATOM     15  C   UNL     1       5.454  16.267  21.283  0.00  0.00    +0.000 A 
ATOM     16  C   UNL     1       7.724  17.493  18.654  0.00  0.00    +0.000 C 
ATOM     17  N   UNL     1       8.777  16.530  18.282  0.00  0.00    +0.000 N 
ATOM     18  C   UNL     1       9.908  17.285  17.773  0.00  0.00    +0.000 C 
ATOM     19  C   UNL     1       8.384  15.193  17.893  0.00  0.00    +0.000 C 
ATOM     20  O   UNL     1       7.180  15.021  17.646  0.00  0.00    +0.000 OA
ATOM     21  C   UNL     1       9.241  13.863  17.874  0.00  0.00    +0.000 A 
ATOM     22  C   UNL     1       8.492  12.652  17.865  0.00  0.00    +0.000 A 
ATOM     23  C   UNL     1       9.081  11.358  17.914  0.00  0.00    +0.000 A 
ATOM     24  C   UNL     1      10.458  11.190  17.867  0.00  0.00    +0.000 A 
ATOM     25  C   UNL     1      11.225  12.334  17.901  0.00  0.00    +0.000 A 
ATOM     26  C   UNL     1      10.622  13.619  18.044  0.00  0.00    +0.000 A 
ENDROOT
BRANCH   9  27
ATOM     27  N   UNL     1      10.848  12.415  20.974  0.00  0.00    +0.000 N 
ATOM     28  H   UNL     1      11.149  12.331  20.005  0.00  0.00    +0.000 HD
ATOM     29  H   UNL     1      10.418  11.561  21.293  0.00  0.00    +0.000 HD
ENDBRANCH   9  27
BRANCH  15  30
ATOM     30  C   UNL     1       4.814  15.456  22.225  0.00  0.00    +0.000 C 
ATOM     31  N   UNL     1       4.235  14.819  23.019  0.00  0.00    +0.000 NA
ENDBRANCH  15  30
TORSDOF 2
ENDMDL
MODEL 2
REMARK VINA RESULT:      -6.5      9.879     13.653
REMARK  Name = 
REMARK  5 active torsions:
REMARK  status: ('A' for Active; 'I' for Inactive)
REMARK    1  A    between atoms: C_1  and  C_2
REMARK    2  A    between atoms: C_9  and  N_10
REMARK    3  A    between atoms: N_14  and  C_15
REMARK    4  A    between atoms: C_16  and  C_17
REMARK    5  A    between atoms: N_20  and  C_21
REMARK                            x       y       z     vdW  Elec       q    Type
REMARK                         _______ _______ _______ _____ _____    ______ ____
ROOT
ATOM      1  C   UNL     1      -4.193  16.437  24.983  0.00  0.00    +0.000 C 
ATOM      2  C   UNL     1      -4.716  16.193  23.537  0.00  0.00    +0.000 C 
ATOM      3  O   UNL     1      -3.867  16.219  22.343  0.00  0.00    +0.000 OA
ATOM      4  C   UNL     1      -4.048  15.283  21.306  0.00  0.00    +0.000 A 
ATOM      5  C   UNL     1      -2.869  14.627  20.950  0.00  0.00    +0.000 A 
ATOM      6  C   UNL     1      -2.905  13.285  20.497  0.00  0.00    +0.000 A 
ATOM      7  C   UNL     1      -4.150  12.803  20.109  0.00  0.00    +0.000 A 
ATOM      8  N   UNL     1      -5.273  13.549  20.140  0.00  0.00    +0.000 NA
ATOM      9  C   UNL     1      -5.221  14.765  20.756  0.00  0.00    +0.000 A 
ATOM     10  C   UNL     1      -1.756  12.427  20.749  0.00  0.00    +0.000 A 
ATOM     11  C   UNL     1      -0.921  12.422  21.911  0.00  0.00    +0.000 A 
ATOM     12  N   UNL     1       0.110  11.571  21.785  0.00  0.00    +0.000 NA
ATOM     13  N   UNL     1      -0.147  10.917  20.650  0.00  0.00    +0.000 N 
ATOM     14  C   UNL     1       0.779   9.874  20.259  0.00  0.00    +0.000 C 
ATOM     15  C   UNL     1      -1.288  11.324  20.023  0.00  0.00    +0.000 A 
ATOM     16  C   UNL     1      -0.928  13.255  23.138  0.00  0.00    +0.000 C 
ATOM     17  N   UNL     1      -2.165  13.939  23.558  0.00  0.00    +0.000 N 
ATOM     18  C   UNL     1      -1.782  15.098  24.347  0.00  0.00    +0.000 C 
ATOM     19  C   UNL     1      -3.374  13.158  23.699  0.00  0.00    +0.000 C 
ATOM     20  O   UNL     1      -3.235  11.925  23.712  0.00  0.00    +0.000 OA
ATOM     21  C   UNL     1      -4.882  13.637  23.693  0.00  0.00    +0.000 A 
ATOM     22  C   UNL     1      -5.844  12.625  23.418  0.00  0.00    +0.000 A 
ATOM     23  C   UNL     1      -7.241  12.872  23.304  0.00  0.00    +0.000 A 
ATOM     24  C   UNL     1      -7.775  14.125  23.565  0.00  0.00    +0.000 A 
ATOM     25  C   UNL     1      -6.879  15.143  23.810  0.00  0.00    +0.000 A 
ATOM     26  C   UNL     1      -5.473  14.919  23.733  0.00  0.00    +0.000 A 
ENDROOT
BRANCH   9  27
ATOM     27  N   UNL     1      -6.457  15.418  20.755  0.00  0.00    +0.000 N 
ATOM     28  H   UNL     1      -6.568  15.726  19.791  0.00  0.00    +0.000 HD
ATOM     29  H   UNL     1      -6.427  16.206  21.383  0.00  0.00    +0.000 HD
ENDBRANCH   9  27
BRANCH  15  30
ATOM     30  C   UNL     1      -1.820  10.703  18.888  0.00  0.00    +0.000 C 
ATOM     31  N   UNL     1      -2.259  10.130  17.966  0.00  0.00    +0.000 NA
ENDBRANCH  15  30
TORSDOF 2
ENDMDL
MODEL 3
REMARK VINA RESULT:      -5.9      1.695      4.181
REMARK  Name = 
REMARK  5 active torsions:
REMARK  status: ('A' for Active; 'I' for Inactive)
REMARK    1  A    between atoms: C_1  and  C_2
REMARK    2  A    between atoms: C_9  and  N_10
REMARK    3  A    between atoms: N_14  and  C_15
REMARK    4  A    between atoms: C_16  and  C_17
REMARK    5  A    between atoms: N_20  and  C_21
REMARK                            x       y       z     vdW  Elec       q    Type
REMARK                         _______ _______ _______ _____ _____    ______ ____
ROOT
ATOM      1  C   UNL     1      10.918  11.709  17.870  0.00  0.00    +0.000 C 
ATOM      2  C   UNL     1      10.121  13.011  17.564  0.00  0.00    +0.000 C 
ATOM      3  O   UNL     1       8.685  13.170  17.810  0.00  0.00    +0.000 OA
ATOM      4  C   UNL     1       8.170  14.375  18.326  0.00  0.00    +0.000 A 
ATOM      5  C   UNL     1       7.360  14.188  19.447  0.00  0.00    +0.000 A 
ATOM      6  C   UNL     1       7.313  15.169  20.469  0.00  0.00    +0.000 A 
ATOM      7  C   UNL     1       7.818  16.421  20.138  0.00  0.00    +0.000 A 
ATOM      8  N   UNL     1       8.318  16.719  18.922  0.00  0.00    +0.000 NA
ATOM      9  C   UNL     1       8.513  15.697  18.038  0.00  0.00    +0.000 A 
ATOM     10  C   UNL     1       7.047  14.747  21.836  0.00  0.00    +0.000 A 
ATOM     11  C   UNL     1       7.496  13.546  22.472  0.00  0.00    +0.000 A 
ATOM     12  N   UNL     1       6.996  13.417  23.712  0.00  0.00    +0.000 NA
ATOM     13  N   UNL     1       6.384  14.581  23.937  0.00  0.00    +0.000 N 
ATOM     14  C   UNL     1       5.774  14.772  25.237  0.00  0.00    +0.000 C 
ATOM     15  C   UNL     1       6.445  15.451  22.888  0.00  0.00    +0.000 A 
ATOM     16  C   UNL     1       8.292  12.399  21.971  0.00  0.00    +0.000 C 
ATOM     17  N   UNL     1       9.179  12.570  20.806  0.00  0.00    +0.000 N 
ATOM     18  C   UNL     1       9.335  11.271  20.175  0.00  0.00    +0.000 C 
ATOM     19  C   UNL     1      10.148  13.644  20.826  0.00  0.00    +0.000 C 
ATOM     20  O   UNL     1      10.348  14.186  21.923  0.00  0.00    +0.000 OA
ATOM     21  C   UNL     1      10.896  14.341  19.617  0.00  0.00    +0.000 A 
ATOM     22  C   UNL     1      11.445  15.624  19.896  0.00  0.00    +0.000 A 
ATOM     23  C   UNL     1      12.094  16.435  18.923  0.00  0.00    +0.000 A 
ATOM     24  C   UNL     1      12.332  15.967  17.638  0.00  0.00    +0.000 A 
ATOM     25  C   UNL     1      11.795  14.739  17.315  0.00  0.00    +0.000 A 
ATOM     26  C   UNL     1      10.984  14.024  18.243  0.00  0.00    +0.000 A 
ENDROOT
BRANCH   9  27
ATOM     27  N   UNL     1       9.071  16.130  16.833  0.00  0.00    +0.000 N 
ATOM     28  H   UNL     1       8.488  16.920  16.564  0.00  0.00    +0.000 HD
ATOM     29  H   UNL     1       9.018  15.393  16.148  0.00  0.00    +0.000 HD
ENDBRANCH   9  27
BRANCH  15  30
ATOM     30  C   UNL     1       5.982  16.770  22.938  0.00  0.00    +0.000 C 
ATOM     31  N   UNL     1       5.631  17.887  22.933  0.00  0.00    +0.000 NA
ENDBRANCH  15  30
TORSDOF 2
ENDMDL
MODEL 4
REMARK VINA RESULT:      -5.9      8.027      9.988
REMARK  Name = 
REMARK  5 active torsions:
REMARK  status: ('A' for Active; 'I' for Inactive)
REMARK    1  A    between atoms: C_1  and  C_2
REMARK    2  A    between atoms: C_9  and  N_10
REMARK    3  A    between atoms: N_14  and  C_15
REMARK    4  A    between atoms: C_16  and  C_17
REMARK    5  A    between atoms: N_20  and  C_21
REMARK                            x       y       z     vdW  Elec       q    Type
REMARK                         _______ _______ _______ _____ _____    ______ ____
ROOT
ATOM      1  C   UNL     1      -2.700  10.429  17.800  0.00  0.00    +0.000 C 
ATOM      2  C   UNL     1      -1.335  11.177  17.789  0.00  0.00    +0.000 C 
ATOM      3  O   UNL     1      -1.200  12.637  17.813  0.00  0.00    +0.000 OA
ATOM      4  C   UNL     1      -0.200  13.257  18.586  0.00  0.00    +0.000 A 
ATOM      5  C   UNL     1      -0.697  14.256  19.425  0.00  0.00    +0.000 A 
ATOM      6  C   UNL     1      -0.090  14.504  20.681  0.00  0.00    +0.000 A 
ATOM      7  C   UNL     1       1.179  13.968  20.864  0.00  0.00    +0.000 A 
ATOM      8  N   UNL     1       1.825  13.259  19.916  0.00  0.00    +0.000 NA
ATOM      9  C   UNL     1       1.129  12.889  18.802  0.00  0.00    +0.000 A 
ATOM     10  C   UNL     1      -0.912  15.009  21.771  0.00  0.00    +0.000 A 
ATOM     11  C   UNL     1      -2.271  14.665  22.058  0.00  0.00    +0.000 A 
ATOM     12  N   UNL     1      -2.765  15.381  23.082  0.00  0.00    +0.000 NA
ATOM     13  N   UNL     1      -1.707  16.042  23.554  0.00  0.00    +0.000 N 
ATOM     14  C   UNL     1      -1.912  16.883  24.716  0.00  0.00    +0.000 C 
ATOM     15  C   UNL     1      -0.553  15.805  22.868  0.00  0.00    +0.000 A 
ATOM     16  C   UNL     1      -3.233  13.771  21.368  0.00  0.00    +0.000 C 
ATOM     17  N   UNL     1      -2.740  12.689  20.496  0.00  0.00    +0.000 N 
ATOM     18  C   UNL     1      -3.778  12.399  19.522  0.00  0.00    +0.000 C 
ATOM     19  C   UNL     1      -1.771  11.758  21.031  0.00  0.00    +0.000 C 
ATOM     20  O   UNL     1      -1.614  11.771  22.262  0.00  0.00    +0.000 OA
ATOM     21  C   UNL     1      -0.761  10.813  20.263  0.00  0.00    +0.000 A 
ATOM     22  C   UNL     1       0.343  10.345  21.030  0.00  0.00    +0.000 A 
ATOM     23  C   UNL     1       1.392   9.542  20.500  0.00  0.00    +0.000 A 
ATOM     24  C   UNL     1       1.346   9.066  19.197  0.00  0.00    +0.000 A 
ATOM     25  C   UNL     1       0.309   9.514  18.408  0.00  0.00    +0.000 A 
ATOM     26  C   UNL     1      -0.628  10.470  18.899  0.00  0.00    +0.000 A 
ENDROOT
BRANCH   9  27
ATOM     27  N   UNL     1       1.897  12.127  17.918  0.00  0.00    +0.000 N 
ATOM     28  H   UNL     1       1.235  11.849  17.197  0.00  0.00    +0.000 HD
ATOM     29  H   UNL     1       2.269  11.321  18.397  0.00  0.00    +0.000 HD
ENDBRANCH   9  27
BRANCH  15  30
ATOM     30  C   UNL     1       0.701  16.290  23.253  0.00  0.00    +0.000 C 
ATOM     31  N   UNL     1       1.752  16.653  23.618  0.00  0.00    +0.000 NA
ENDBRANCH  15  30
TORSDOF 2
ENDMDL
MODEL 5
REMARK VINA RESULT:      -5.9      8.251     11.808
REMARK  Name = 
REMARK  5 active torsions:
REMARK  status: ('A' for Active; 'I' for Inactive)
REMARK    1  A    between atoms: C_1  and  C_2
REMARK    2  A    between atoms: C_9  and  N_10
REMARK    3  A    between atoms: N_14  and  C_15
REMARK    4  A    between atoms: C_16  and  C_17
REMARK    5  A    between atoms: N_20  and  C_21
REMARK                            x       y       z     vdW  Elec       q    Type
REMARK                         _______ _______ _______ _____ _____    ______ ____
ROOT
ATOM      1  C   UNL     1      -0.922  16.311  23.990  0.00  0.00    +0.000 C 
ATOM      2  C   UNL     1      -2.056  15.943  22.989  0.00  0.00    +0.000 C 
ATOM      3  O   UNL     1      -1.886  15.907  21.534  0.00  0.00    +0.000 OA
ATOM      4  C   UNL     1      -2.480  14.890  20.762  0.00  0.00    +0.000 A 
ATOM      5  C   UNL     1      -1.576  14.247  19.915  0.00  0.00    +0.000 A 
ATOM      6  C   UNL     1      -1.738  12.874  19.604  0.00  0.00    +0.000 A 
ATOM      7  C   UNL     1      -2.982  12.325  19.889  0.00  0.00    +0.000 A 
ATOM      8  N   UNL     1      -3.999  13.034  20.419  0.00  0.00    +0.000 NA
ATOM      9  C   UNL     1      -3.737  14.295  20.872  0.00  0.00    +0.000 A 
ATOM     10  C   UNL     1      -0.556  12.076  19.314  0.00  0.00    +0.000 A 
ATOM     11  C   UNL     1       0.732  12.185  19.928  0.00  0.00    +0.000 A 
ATOM     12  N   UNL     1       1.629  11.360  19.365  0.00  0.00    +0.000 NA
ATOM     13  N   UNL     1       0.903  10.615  18.529  0.00  0.00    +0.000 N 
ATOM     14  C   UNL     1       1.594   9.576  17.792  0.00  0.00    +0.000 C 
ATOM     15  C   UNL     1      -0.422  10.936  18.508  0.00  0.00    +0.000 A 
ATOM     16  C   UNL     1       1.259  13.107  20.963  0.00  0.00    +0.000 C 
ATOM     17  N   UNL     1       0.334  13.781  21.892  0.00  0.00    +0.000 N 
ATOM     18  C   UNL     1       0.971  15.007  22.340  0.00  0.00    +0.000 C 
ATOM     19  C   UNL     1      -0.608  12.973  22.637  0.00  0.00    +0.000 C 
ATOM     20  O   UNL     1      -0.401  11.750  22.644  0.00  0.00    +0.000 OA
ATOM     21  C   UNL     1      -1.962  13.402  23.334  0.00  0.00    +0.000 A 
ATOM     22  C   UNL     1      -2.871  12.341  23.608  0.00  0.00    +0.000 A 
ATOM     23  C   UNL     1      -4.165  12.534  24.169  0.00  0.00    +0.000 A 
ATOM     24  C   UNL     1      -4.588  13.786  24.592  0.00  0.00    +0.000 A 
ATOM     25  C   UNL     1      -3.752  14.848  24.323  0.00  0.00    +0.000 A 
ATOM     26  C   UNL     1      -2.543  14.664  23.590  0.00  0.00    +0.000 A 
ENDROOT
BRANCH   9  27
ATOM     27  N   UNL     1      -4.862  14.906  21.433  0.00  0.00    +0.000 N 
ATOM     28  H   UNL     1      -5.607  14.229  21.282  0.00  0.00    +0.000 HD
ATOM     29  H   UNL     1      -5.056  15.770  20.952  0.00  0.00    +0.000 HD
ENDBRANCH   9  27
BRANCH  15  30
ATOM     30  C   UNL     1      -1.391  10.215  17.804  0.00  0.00    +0.000 C 
ATOM     31  N   UNL     1      -2.242   9.624  17.258  0.00  0.00    +0.000 NA
ENDBRANCH  15  30
TORSDOF 2
ENDMDL
MODEL 6
REMARK VINA RESULT:      -5.7      1.532      1.713
REMARK  Name = 
REMARK  5 active torsions:
REMARK  status: ('A' for Active; 'I' for Inactive)
REMARK    1  A    between atoms: C_1  and  C_2
REMARK    2  A    between atoms: C_9  and  N_10
REMARK    3  A    between atoms: N_14  and  C_15
REMARK    4  A    between atoms: C_16  and  C_17
REMARK    5  A    between atoms: N_20  and  C_21
REMARK                            x       y       z     vdW  Elec       q    Type
REMARK                         _______ _______ _______ _____ _____    ______ ____
ROOT
ATOM      1  C   UNL     1      11.513  16.604  17.978  0.00  0.00    +0.000 C 
ATOM      2  C   UNL     1      11.439  15.403  18.965  0.00  0.00    +0.000 C 
ATOM      3  O   UNL     1      11.322  15.543  20.420  0.00  0.00    +0.000 OA
ATOM      4  C   UNL     1      10.484  14.689  21.163  0.00  0.00    +0.000 A 
ATOM      5  C   UNL     1       9.601  15.379  21.995  0.00  0.00    +0.000 A 
ATOM      6  C   UNL     1       8.315  14.850  22.269  0.00  0.00    +0.000 A 
ATOM      7  C   UNL     1       8.129  13.506  21.966  0.00  0.00    +0.000 A 
ATOM      8  N   UNL     1       9.099  12.723  21.453  0.00  0.00    +0.000 NA
ATOM      9  C   UNL     1      10.253  13.319  21.034  0.00  0.00    +0.000 A 
ATOM     10  C   UNL     1       7.220  15.770  22.541  0.00  0.00    +0.000 A 
ATOM     11  C   UNL     1       6.994  17.046  21.933  0.00  0.00    +0.000 A 
ATOM     12  N   UNL     1       5.943  17.682  22.477  0.00  0.00    +0.000 NA
ATOM     13  N   UNL     1       5.401  16.773  23.291  0.00  0.00    +0.000 N 
ATOM     14  C   UNL     1       4.196  17.152  24.001  0.00  0.00    +0.000 C 
ATOM     15  C   UNL     1       6.067  15.584  23.316  0.00  0.00    +0.000 A 
ATOM     16  C   UNL     1       7.765  17.812  20.924  0.00  0.00    +0.000 C 
ATOM     17  N   UNL     1       8.686  17.111  20.011  0.00  0.00    +0.000 N 
ATOM     18  C   UNL     1       9.706  18.060  19.598  0.00  0.00    +0.000 C 
ATOM     19  C   UNL     1       8.181  15.994  19.243  0.00  0.00    +0.000 C 
ATOM     20  O   UNL     1       6.948  15.864  19.204  0.00  0.00    +0.000 OA
ATOM     21  C   UNL     1       8.976  14.813  18.553  0.00  0.00    +0.000 A 
ATOM     22  C   UNL     1       8.207  13.654  18.249  0.00  0.00    +0.000 A 
ATOM     23  C   UNL     1       8.755  12.465  17.690  0.00  0.00    +0.000 A 
ATOM     24  C   UNL     1      10.085  12.399  17.299  0.00  0.00    +0.000 A 
ATOM     25  C   UNL     1      10.875  13.488  17.599  0.00  0.00    +0.000 A 
ATOM     26  C   UNL     1      10.354  14.595  18.330  0.00  0.00    +0.000 A 
ENDROOT
BRANCH   9  27
ATOM     27  N   UNL     1      11.159  12.407  20.486  0.00  0.00    +0.000 N 
ATOM     28  H   UNL     1      11.906  12.363  21.176  0.00  0.00    +0.000 HD
ATOM     29  H   UNL     1      11.501  12.754  19.604  0.00  0.00    +0.000 HD
ENDBRANCH   9  27
BRANCH  15  30
ATOM     30  C   UNL     1       5.617  14.450  23.999  0.00  0.00    +0.000 C 
ATOM     31  N   UNL     1       5.238  13.533  24.621  0.00  0.00    +0.000 NA
ENDBRANCH  15  30
TORSDOF 2
ENDMDL
MODEL 7
REMARK VINA RESULT:      -5.6      6.775     10.452
REMARK  Name = 
REMARK  5 active torsions:
REMARK  status: ('A' for Active; 'I' for Inactive)
REMARK    1  A    between atoms: C_1  and  C_2
REMARK    2  A    between atoms: C_9  and  N_10
REMARK    3  A    between atoms: N_14  and  C_15
REMARK    4  A    between atoms: C_16  and  C_17
REMARK    5  A    between atoms: N_20  and  C_21
REMARK                            x       y       z     vdW  Elec       q    Type
REMARK                         _______ _______ _______ _____ _____    ______ ____
ROOT
ATOM      1  C   UNL     1      -1.187  10.536  23.016  0.00  0.00    +0.000 C 
ATOM      2  C   UNL     1      -1.447  12.056  23.227  0.00  0.00    +0.000 C 
ATOM      3  O   UNL     1      -0.387  13.059  23.362  0.00  0.00    +0.000 OA
ATOM      4  C   UNL     1      -0.504  14.322  22.750  0.00  0.00    +0.000 A 
ATOM      5  C   UNL     1       0.606  14.658  21.973  0.00  0.00    +0.000 A 
ATOM      6  C   UNL     1       0.452  15.451  20.809  0.00  0.00    +0.000 A 
ATOM      7  C   UNL     1      -0.752  16.135  20.690  0.00  0.00    +0.000 A 
ATOM      8  N   UNL     1      -1.730  16.077  21.616  0.00  0.00    +0.000 NA
ATOM      9  C   UNL     1      -1.612  15.159  22.619  0.00  0.00    +0.000 A 
ATOM     10  C   UNL     1       1.382  15.266  19.705  0.00  0.00    +0.000 A 
ATOM     11  C   UNL     1       1.963  14.035  19.262  0.00  0.00    +0.000 A 
ATOM     12  N   UNL     1       2.854  14.226  18.276  0.00  0.00    +0.000 NA
ATOM     13  N   UNL     1       2.726  15.520  17.970  0.00  0.00    +0.000 N 
ATOM     14  C   UNL     1       3.539  16.030  16.885  0.00  0.00    +0.000 C 
ATOM     15  C   UNL     1       1.808  16.181  18.732  0.00  0.00    +0.000 A 
ATOM     16  C   UNL     1       1.844  12.647  19.769  0.00  0.00    +0.000 C 
ATOM     17  N   UNL     1       0.670  12.251  20.568  0.00  0.00    +0.000 N 
ATOM     18  C   UNL     1       1.065  11.135  21.410  0.00  0.00    +0.000 C 
ATOM     19  C   UNL     1      -0.649  12.506  20.033  0.00  0.00    +0.000 C 
ATOM     20  O   UNL     1      -0.708  12.801  18.830  0.00  0.00    +0.000 OA
ATOM     21  C   UNL     1      -2.034  12.611  20.791  0.00  0.00    +0.000 A 
ATOM     22  C   UNL     1      -3.069  13.287  20.084  0.00  0.00    +0.000 A 
ATOM     23  C   UNL     1      -4.361  13.540  20.625  0.00  0.00    +0.000 A 
ATOM     24  C   UNL     1      -4.735  13.038  21.863  0.00  0.00    +0.000 A 
ATOM     25  C   UNL     1      -3.758  12.400  22.596  0.00  0.00    +0.000 A 
ATOM     26  C   UNL     1      -2.416  12.322  22.120  0.00  0.00    +0.000 A 
ENDROOT
BRANCH   9  27
ATOM     27  N   UNL     1      -2.707  15.173  23.488  0.00  0.00    +0.000 N 
ATOM     28  H   UNL     1      -3.512  15.144  22.865  0.00  0.00    +0.000 HD
ATOM     29  H   UNL     1      -2.702  16.022  24.031  0.00  0.00    +0.000 HD
ENDBRANCH   9  27
BRANCH  15  30
ATOM     30  C   UNL     1       1.419  17.506  18.513  0.00  0.00    +0.000 C 
ATOM     31  N   UNL     1       1.151  18.630  18.321  0.00  0.00    +0.000 NA
ENDBRANCH  15  30
TORSDOF 2
ENDMDL
MODEL 8
REMARK VINA RESULT:      -5.6      2.843      4.129
REMARK  Name = 
REMARK  5 active torsions:
REMARK  status: ('A' for Active; 'I' for Inactive)
REMARK    1  A    between atoms: C_1  and  C_2
REMARK    2  A    between atoms: C_9  and  N_10
REMARK    3  A    between atoms: N_14  and  C_15
REMARK    4  A    between atoms: C_16  and  C_17
REMARK    5  A    between atoms: N_20  and  C_21
REMARK                            x       y       z     vdW  Elec       q    Type
REMARK                         _______ _______ _______ _____ _____    ______ ____
ROOT
ATOM      1  C   UNL     1       7.734  13.146  17.445  0.00  0.00    +0.000 C 
ATOM      2  C   UNL     1       9.099  13.889  17.527  0.00  0.00    +0.000 C 
ATOM      3  O   UNL     1       9.236  15.332  17.744  0.00  0.00    +0.000 OA
ATOM      4  C   UNL     1      10.240  15.844  18.589  0.00  0.00    +0.000 A 
ATOM      5  C   UNL     1       9.747  16.721  19.556  0.00  0.00    +0.000 A 
ATOM      6  C   UNL     1      10.360  16.800  20.831  0.00  0.00    +0.000 A 
ATOM      7  C   UNL     1      11.630  16.244  20.934  0.00  0.00    +0.000 A 
ATOM      8  N   UNL     1      12.271  15.667  19.898  0.00  0.00    +0.000 NA
ATOM      9  C   UNL     1      11.569  15.450  18.748  0.00  0.00    +0.000 A 
ATOM     10  C   UNL     1       9.544  17.155  21.982  0.00  0.00    +0.000 A 
ATOM     11  C   UNL     1       8.185  16.776  22.227  0.00  0.00    +0.000 A 
ATOM     12  N   UNL     1       7.697  17.350  23.339  0.00  0.00    +0.000 NA
ATOM     13  N   UNL     1       8.758  17.943  23.891  0.00  0.00    +0.000 N 
ATOM     14  C   UNL     1       8.559  18.621  25.155  0.00  0.00    +0.000 C 
ATOM     15  C   UNL     1       9.909  17.798  23.173  0.00  0.00    +0.000 A 
ATOM     16  C   UNL     1       7.220  15.984  21.428  0.00  0.00    +0.000 C 
ATOM     17  N   UNL     1       7.708  15.027  20.418  0.00  0.00    +0.000 N 
ATOM     18  C   UNL     1       6.666  14.870  19.419  0.00  0.00    +0.000 C 
ATOM     19  C   UNL     1       8.679  14.033  20.820  0.00  0.00    +0.000 C 
ATOM     20  O   UNL     1       8.841  13.881  22.040  0.00  0.00    +0.000 OA
ATOM     21  C   UNL     1       9.685  13.198  19.928  0.00  0.00    +0.000 A 
ATOM     22  C   UNL     1      10.792  12.632  20.621  0.00  0.00    +0.000 A 
ATOM     23  C   UNL     1      11.837  11.906  19.983  0.00  0.00    +0.000 A 
ATOM     24  C   UNL     1      11.785  11.608  18.629  0.00  0.00    +0.000 A 
ATOM     25  C   UNL     1      10.744  12.157  17.912  0.00  0.00    +0.000 A 
ATOM     26  C   UNL     1       9.811  13.040  18.530  0.00  0.00    +0.000 A 
ENDROOT
BRANCH   9  27
ATOM     27  N   UNL     1      12.333  14.811  17.767  0.00  0.00    +0.000 N 
ATOM     28  H   UNL     1      12.870  14.121  18.288  0.00  0.00    +0.000 HD
ATOM     29  H   UNL     1      12.942  15.479  17.320  0.00  0.00    +0.000 HD
ENDBRANCH   9  27
BRANCH  15  30
ATOM     30  C   UNL     1      11.165  18.227  23.614  0.00  0.00    +0.000 C 
ATOM     31  N   UNL     1      12.216  18.627  23.938  0.00  0.00    +0.000 NA
ENDBRANCH  15  30
TORSDOF 2
ENDMDL
MODEL 9
REMARK VINA RESULT:      -5.6      8.376     13.008
REMARK  Name = 
REMARK  5 active torsions:
REMARK  status: ('A' for Active; 'I' for Inactive)
REMARK    1  A    between atoms: C_1  and  C_2
REMARK    2  A    between atoms: C_9  and  N_10
REMARK    3  A    between atoms: N_14  and  C_15
REMARK    4  A    between atoms: C_16  and  C_17
REMARK    5  A    between atoms: N_20  and  C_21
REMARK                            x       y       z     vdW  Elec       q    Type
REMARK                         _______ _______ _______ _____ _____    ______ ____
ROOT
ATOM      1  C   UNL     1      -7.057  13.479  22.608  0.00  0.00    +0.000 C 
ATOM      2  C   UNL     1      -5.848  13.605  23.581  0.00  0.00    +0.000 C 
ATOM      3  O   UNL     1      -4.764  12.624  23.673  0.00  0.00    +0.000 OA
ATOM      4  C   UNL     1      -3.426  13.037  23.830  0.00  0.00    +0.000 A 
ATOM      5  C   UNL     1      -2.563  12.467  22.893  0.00  0.00    +0.000 A 
ATOM      6  C   UNL     1      -1.435  13.187  22.427  0.00  0.00    +0.000 A 
ATOM      7  C   UNL     1      -1.060  14.292  23.183  0.00  0.00    +0.000 A 
ATOM      8  N   UNL     1      -1.704  14.673  24.305  0.00  0.00    +0.000 NA
ATOM      9  C   UNL     1      -2.888  14.065  24.606  0.00  0.00    +0.000 A 
ATOM     10  C   UNL     1      -0.949  12.935  21.079  0.00  0.00    +0.000 A 
ATOM     11  C   UNL     1      -1.734  12.650  19.917  0.00  0.00    +0.000 A 
ATOM     12  N   UNL     1      -0.968  12.375  18.848  0.00  0.00    +0.000 NA
ATOM     13  N   UNL     1       0.272  12.644  19.261  0.00  0.00    +0.000 N 
ATOM     14  C   UNL     1       1.342  12.487  18.297  0.00  0.00    +0.000 C 
ATOM     15  C   UNL     1       0.347  13.059  20.558  0.00  0.00    +0.000 A 
ATOM     16  C   UNL     1      -3.196  12.493  19.725  0.00  0.00    +0.000 C 
ATOM     17  N   UNL     1      -4.136  13.106  20.681  0.00  0.00    +0.000 N 
ATOM     18  C   UNL     1      -5.368  12.338  20.644  0.00  0.00    +0.000 C 
ATOM     19  C   UNL     1      -4.004  14.517  20.972  0.00  0.00    +0.000 C 
ATOM     20  O   UNL     1      -3.282  15.174  20.206  0.00  0.00    +0.000 OA
ATOM     21  C   UNL     1      -4.532  15.336  22.220  0.00  0.00    +0.000 A 
ATOM     22  C   UNL     1      -3.893  16.588  22.444  0.00  0.00    +0.000 A 
ATOM     23  C   UNL     1      -4.181  17.436  23.550  0.00  0.00    +0.000 A 
ATOM     24  C   UNL     1      -5.202  17.137  24.440  0.00  0.00    +0.000 A 
ATOM     25  C   UNL     1      -5.831  15.921  24.279  0.00  0.00    +0.000 A 
ATOM     26  C   UNL     1      -5.401  14.999  23.280  0.00  0.00    +0.000 A 
ENDROOT
BRANCH   9  27
ATOM     27  N   UNL     1      -3.472  14.576  25.767  0.00  0.00    +0.000 N 
ATOM     28  H   UNL     1      -2.735  14.500  26.465  0.00  0.00    +0.000 HD
ATOM     29  H   UNL     1      -4.270  14.016  26.023  0.00  0.00    +0.000 HD
ENDBRANCH   9  27
BRANCH  15  30
ATOM     30  C   UNL     1       1.521  13.511  21.168  0.00  0.00    +0.000 C 
ATOM     31  N   UNL     1       2.531  13.837  21.664  0.00  0.00    +0.000 NA
ENDBRANCH  15  30
TORSDOF 2
ENDMDL
