MODEL 1
REMARK VINA RESULT:      -7.5      0.000      0.000
REMARK  Name = 
REMARK  11 active torsions:
REMARK  status: ('A' for Active; 'I' for Inactive)
REMARK    1  A    between atoms: C_1  and  O_2
REMARK    2  A    between atoms: O_2  and  C_3
REMARK    3  A    between atoms: C_5  and  C_6
REMARK    4  A    between atoms: C_9  and  C_10
REMARK    5  A    between atoms: C_10  and  C_11
REMARK    6  A    between atoms: C_11  and  C_12
REMARK    7  A    between atoms: N_14  and  C_15
REMARK    8  A    between atoms: C_22  and  O_23
REMARK    9  A    between atoms: O_23  and  C_24
REMARK   10  A    between atoms: C_25  and  O_26
REMARK   11  A    between atoms: O_26  and  C_27
REMARK                            x       y       z     vdW  Elec       q    Type
REMARK                         _______ _______ _______ _____ _____    ______ ____
ROOT
ATOM      1  C   UNL     1       8.561   9.004  18.271  0.00  0.00    +0.000 A 
ATOM      2  N   UNL     1       7.674   8.976  17.260  0.00  0.00    +0.000 NA
ATOM      3  O   UNL     1       7.180   7.673  17.294  0.00  0.00    +0.000 OA
ATOM      4  C   UNL     1       7.817   7.043  18.323  0.00  0.00    +0.000 A 
ATOM      5  N   UNL     1       8.688   7.805  18.936  0.00  0.00    +0.000 NA
ENDROOT
BRANCH   1   8
ATOM      6  C   UNL     1       9.845  11.673  20.598  0.00  0.00    +0.000 A 
ATOM      7  C   UNL     1       9.021  10.670  20.059  0.00  0.00    +0.000 A 
ATOM      8  C   UNL     1       9.212  10.215  18.756  0.00  0.00    +0.000 A 
ATOM      9  C   UNL     1      10.139  10.872  17.953  0.00  0.00    +0.000 A 
ATOM     10  C   UNL     1      10.909  11.940  18.437  0.00  0.00    +0.000 A 
ATOM     11  C   UNL     1      10.773  12.356  19.781  0.00  0.00    +0.000 A 
BRANCH   6  13
ATOM     12  C   UNL     1       8.657  12.862  22.264  0.00  0.00    +0.000 C 
ATOM     13  O   UNL     1       9.737  11.984  21.932  0.00  0.00    +0.000 OA
ENDBRANCH   6  13
BRANCH  10  14
ATOM     14  O   UNL     1      11.755  12.408  17.463  0.00  0.00    +0.000 OA
ATOM     15  C   UNL     1      11.333  13.455  16.607  0.00  0.00    +0.000 C 
ENDBRANCH  10  14
BRANCH  11  16
ATOM     16  O   UNL     1      11.571  13.398  20.156  0.00  0.00    +0.000 OA
ATOM     17  C   UNL     1      11.099  14.734  20.098  0.00  0.00    +0.000 C 
ENDBRANCH  11  16
ENDBRANCH   1   8
BRANCH   4  18
ATOM     18  C   UNL     1       7.428   5.642  18.599  0.00  0.00    +0.000 C 
BRANCH  18  19
ATOM     19  C   UNL     1       7.563   4.756  17.366  0.00  0.00    +0.000 C 
BRANCH  19  20
ATOM     20  C   UNL     1       6.196   4.387  16.835  0.00  0.00    +0.000 C 
ATOM     21  O   UNL     1       5.908   4.432  15.644  0.00  0.00    +0.000 OA
ATOM     22  N   UNL     1       5.304   4.001  17.814  0.00  0.00    +0.000 N 
ATOM     23  H   UNL     1       5.656   3.811  18.743  0.00  0.00    +0.000 HD
BRANCH  22  24
ATOM     24  C   UNL     1       3.979   3.532  17.464  0.00  0.00    +0.000 C 
ATOM     25  C   UNL     1       3.552   2.312  18.274  0.00  0.00    +0.000 C 
ATOM     26  C   UNL     1       2.038   2.271  18.093  0.00  0.00    +0.000 C 
ATOM     27  C   UNL     1       1.605   3.716  17.850  0.00  0.00    +0.000 C 
ATOM     28  C   UNL     1       2.885   4.545  17.780  0.00  0.00    +0.000 C 
ENDBRANCH  22  24
ENDBRANCH  19  20
ENDBRANCH  18  19
ENDBRANCH   4  18
TORSDOF 8
ENDMDL
MODEL 2
REMARK VINA RESULT:      -7.2      5.769      9.607
REMARK  Name = 
REMARK  11 active torsions:
REMARK  status: ('A' for Active; 'I' for Inactive)
REMARK    1  A    between atoms: C_1  and  O_2
REMARK    2  A    between atoms: O_2  and  C_3
REMARK    3  A    between atoms: C_5  and  C_6
REMARK    4  A    between atoms: C_9  and  C_10
REMARK    5  A    between atoms: C_10  and  C_11
REMARK    6  A    between atoms: C_11  and  C_12
REMARK    7  A    between atoms: N_14  and  C_15
REMARK    8  A    between atoms: C_22  and  O_23
REMARK    9  A    between atoms: O_23  and  C_24
REMARK   10  A    between atoms: C_25  and  O_26
REMARK   11  A    between atoms: O_26  and  C_27
REMARK                            x       y       z     vdW  Elec       q    Type
REMARK                         _______ _______ _______ _____ _____    ______ ____
ROOT
ATOM      1  C   UNL     1       2.440   7.042  19.235  0.00  0.00    +0.000 A 
ATOM      2  N   UNL     1       1.899   6.509  20.345  0.00  0.00    +0.000 NA
ATOM      3  O   UNL     1       1.126   7.547  20.863  0.00  0.00    +0.000 OA
ATOM      4  C   UNL     1       1.276   8.604  20.014  0.00  0.00    +0.000 A 
ATOM      5  N   UNL     1       2.087   8.355  19.017  0.00  0.00    +0.000 NA
ENDROOT
BRANCH   1   8
ATOM      6  C   UNL     1       5.144   6.023  16.820  0.00  0.00    +0.000 A 
ATOM      7  C   UNL     1       4.275   6.834  17.570  0.00  0.00    +0.000 A 
ATOM      8  C   UNL     1       3.187   6.281  18.241  0.00  0.00    +0.000 A 
ATOM      9  C   UNL     1       2.896   4.935  18.038  0.00  0.00    +0.000 A 
ATOM     10  C   UNL     1       3.693   4.123  17.217  0.00  0.00    +0.000 A 
ATOM     11  C   UNL     1       4.842   4.662  16.594  0.00  0.00    +0.000 A 
BRANCH   6  13
ATOM     12  C   UNL     1       7.339   6.794  17.260  0.00  0.00    +0.000 C 
ATOM     13  O   UNL     1       6.295   6.571  16.306  0.00  0.00    +0.000 OA
ENDBRANCH   6  13
BRANCH  10  14
ATOM     14  O   UNL     1       3.209   2.840  17.188  0.00  0.00    +0.000 OA
ATOM     15  C   UNL     1       3.336   2.013  18.332  0.00  0.00    +0.000 C 
ENDBRANCH  10  14
BRANCH  11  16
ATOM     16  O   UNL     1       5.554   3.791  15.822  0.00  0.00    +0.000 OA
ATOM     17  C   UNL     1       5.764   4.045  14.443  0.00  0.00    +0.000 C 
ENDBRANCH  11  16
ENDBRANCH   1   8
BRANCH   4  18
ATOM     18  C   UNL     1       0.508   9.831  20.324  0.00  0.00    +0.000 C 
BRANCH  18  19
ATOM     19  C   UNL     1       0.891  10.992  19.413  0.00  0.00    +0.000 C 
BRANCH  19  20
ATOM     20  C   UNL     1      -0.349  11.624  18.821  0.00  0.00    +0.000 C 
ATOM     21  O   UNL     1      -0.715  12.762  19.097  0.00  0.00    +0.000 OA
ATOM     22  N   UNL     1      -1.031  10.801  17.950  0.00  0.00    +0.000 N 
ATOM     23  H   UNL     1      -0.579   9.954  17.629  0.00  0.00    +0.000 HD
BRANCH  22  24
ATOM     24  C   UNL     1      -2.191  11.285  17.230  0.00  0.00    +0.000 C 
ATOM     25  C   UNL     1      -2.500  10.458  15.986  0.00  0.00    +0.000 C 
ATOM     26  C   UNL     1      -3.943  10.827  15.657  0.00  0.00    +0.000 C 
ATOM     27  C   UNL     1      -4.590  11.216  16.987  0.00  0.00    +0.000 C 
ATOM     28  C   UNL     1      -3.480  11.176  18.034  0.00  0.00    +0.000 C 
ENDBRANCH  22  24
ENDBRANCH  19  20
ENDBRANCH  18  19
ENDBRANCH   4  18
TORSDOF 8
ENDMDL
MODEL 3
REMARK VINA RESULT:      -7.2      1.407      2.839
REMARK  Name = 
REMARK  11 active torsions:
REMARK  status: ('A' for Active; 'I' for Inactive)
REMARK    1  A    between atoms: C_1  and  O_2
REMARK    2  A    between atoms: O_2  and  C_3
REMARK    3  A    between atoms: C_5  and  C_6
REMARK    4  A    between atoms: C_9  and  C_10
REMARK    5  A    between atoms: C_10  and  C_11
REMARK    6  A    between atoms: C_11  and  C_12
REMARK    7  A    between atoms: N_14  and  C_15
REMARK    8  A    between atoms: C_22  and  O_23
REMARK    9  A    between atoms: O_23  and  C_24
REMARK   10  A    between atoms: C_25  and  O_26
REMARK   11  A    between atoms: O_26  and  C_27
REMARK                            x       y       z     vdW  Elec       q    Type
REMARK                         _______ _______ _______ _____ _____    ______ ____
ROOT
ATOM      1  C   UNL     1       8.691   9.426  18.335  0.00  0.00    +0.000 A 
ATOM      2  N   UNL     1       7.741   9.598  17.399  0.00  0.00    +0.000 NA
ATOM      3  O   UNL     1       7.145   8.341  17.302  0.00  0.00    +0.000 OA
ATOM      4  C   UNL     1       7.794   7.535  18.191  0.00  0.00    +0.000 A 
ATOM      5  N   UNL     1       8.762   8.142  18.829  0.00  0.00    +0.000 NA
ENDROOT
BRANCH   1   8
ATOM      6  C   UNL     1      11.018  12.368  18.669  0.00  0.00    +0.000 A 
ATOM      7  C   UNL     1      10.462  11.166  18.199  0.00  0.00    +0.000 A 
ATOM      8  C   UNL     1       9.468  10.511  18.922  0.00  0.00    +0.000 A 
ATOM      9  C   UNL     1       9.139  10.992  20.186  0.00  0.00    +0.000 A 
ATOM     10  C   UNL     1       9.748  12.137  20.721  0.00  0.00    +0.000 A 
ATOM     11  C   UNL     1      10.702  12.850  19.959  0.00  0.00    +0.000 A 
BRANCH   6  13
ATOM     12  C   UNL     1      11.241  13.865  16.849  0.00  0.00    +0.000 C 
ATOM     13  O   UNL     1      11.875  13.073  17.858  0.00  0.00    +0.000 OA
ENDBRANCH   6  13
BRANCH  10  14
ATOM     14  O   UNL     1       9.248  12.415  21.968  0.00  0.00    +0.000 OA
ATOM     15  C   UNL     1       8.208  11.615  22.504  0.00  0.00    +0.000 C 
ENDBRANCH  10  14
BRANCH  11  16
ATOM     16  O   UNL     1      11.231  13.952  20.565  0.00  0.00    +0.000 OA
ATOM     17  C   UNL     1      10.656  15.235  20.374  0.00  0.00    +0.000 C 
ENDBRANCH  11  16
ENDBRANCH   1   8
BRANCH   4  18
ATOM     18  C   UNL     1       7.310   6.141  18.313  0.00  0.00    +0.000 C 
BRANCH  18  19
ATOM     19  C   UNL     1       5.872   5.989  17.831  0.00  0.00    +0.000 C 
BRANCH  19  20
ATOM     20  C   UNL     1       5.181   4.878  18.589  0.00  0.00    +0.000 C 
ATOM     21  O   UNL     1       5.785   4.061  19.275  0.00  0.00    +0.000 OA
ATOM     22  N   UNL     1       3.810   4.867  18.432  0.00  0.00    +0.000 N 
ATOM     23  H   UNL     1       3.364   5.670  18.007  0.00  0.00    +0.000 HD
BRANCH  22  24
ATOM     24  C   UNL     1       2.990   3.921  19.160  0.00  0.00    +0.000 C 
ATOM     25  C   UNL     1       2.341   4.533  20.397  0.00  0.00    +0.000 C 
ATOM     26  C   UNL     1       1.216   3.560  20.734  0.00  0.00    +0.000 C 
ATOM     27  C   UNL     1       0.814   2.908  19.410  0.00  0.00    +0.000 C 
ATOM     28  C   UNL     1       1.790   3.431  18.359  0.00  0.00    +0.000 C 
ENDBRANCH  22  24
ENDBRANCH  19  20
ENDBRANCH  18  19
ENDBRANCH   4  18
TORSDOF 8
ENDMDL
MODEL 4
REMARK VINA RESULT:      -7.1      6.684     10.145
REMARK  Name = 
REMARK  11 active torsions:
REMARK  status: ('A' for Active; 'I' for Inactive)
REMARK    1  A    between atoms: C_1  and  O_2
REMARK    2  A    between atoms: O_2  and  C_3
REMARK    3  A    between atoms: C_5  and  C_6
REMARK    4  A    between atoms: C_9  and  C_10
REMARK    5  A    between atoms: C_10  and  C_11
REMARK    6  A    between atoms: C_11  and  C_12
REMARK    7  A    between atoms: N_14  and  C_15
REMARK    8  A    between atoms: C_22  and  O_23
REMARK    9  A    between atoms: O_23  and  C_24
REMARK   10  A    between atoms: C_25  and  O_26
REMARK   11  A    between atoms: O_26  and  C_27
REMARK                            x       y       z     vdW  Elec       q    Type
REMARK                         _______ _______ _______ _____ _____    ______ ____
ROOT
ATOM      1  C   UNL     1       2.490   7.393  18.656  0.00  0.00    +0.000 A 
ATOM      2  N   UNL     1       2.056   8.494  18.018  0.00  0.00    +0.000 NA
ATOM      3  O   UNL     1       1.385   9.206  19.012  0.00  0.00    +0.000 OA
ATOM      4  C   UNL     1       1.483   8.464  20.153  0.00  0.00    +0.000 A 
ATOM      5  N   UNL     1       2.127   7.337  19.984  0.00  0.00    +0.000 NA
ENDROOT
BRANCH   1   8
ATOM      6  C   UNL     1       3.833   4.204  17.170  0.00  0.00    +0.000 A 
ATOM      7  C   UNL     1       3.063   5.076  17.959  0.00  0.00    +0.000 A 
ATOM      8  C   UNL     1       3.409   6.420  18.078  0.00  0.00    +0.000 A 
ATOM      9  C   UNL     1       4.609   6.849  17.519  0.00  0.00    +0.000 A 
ATOM     10  C   UNL     1       5.445   5.976  16.807  0.00  0.00    +0.000 A 
ATOM     11  C   UNL     1       5.061   4.629  16.618  0.00  0.00    +0.000 A 
BRANCH   6  13
ATOM     12  C   UNL     1       3.485   2.037  18.058  0.00  0.00    +0.000 C 
ATOM     13  O   UNL     1       3.377   2.927  16.942  0.00  0.00    +0.000 OA
ENDBRANCH   6  13
BRANCH  10  14
ATOM     14  O   UNL     1       6.555   6.637  16.346  0.00  0.00    +0.000 OA
ATOM     15  C   UNL     1       7.482   7.186  17.266  0.00  0.00    +0.000 C 
ENDBRANCH  10  14
BRANCH  11  16
ATOM     16  O   UNL     1       5.939   3.863  15.907  0.00  0.00    +0.000 OA
ATOM     17  C   UNL     1       5.958   3.904  14.489  0.00  0.00    +0.000 C 
ENDBRANCH  11  16
ENDBRANCH   1   8
BRANCH   4  18
ATOM     18  C   UNL     1       0.883   9.034  21.380  0.00  0.00    +0.000 C 
BRANCH  18  19
ATOM     19  C   UNL     1       0.024  10.259  21.083  0.00  0.00    +0.000 C 
BRANCH  19  20
ATOM     20  C   UNL     1      -0.586  10.792  22.360  0.00  0.00    +0.000 C 
ATOM     21  O   UNL     1      -0.221  10.435  23.475  0.00  0.00    +0.000 OA
ATOM     22  N   UNL     1      -1.595  11.710  22.152  0.00  0.00    +0.000 N 
ATOM     23  H   UNL     1      -1.719  12.093  21.224  0.00  0.00    +0.000 HD
BRANCH  22  24
ATOM     24  C   UNL     1      -2.224  12.382  23.270  0.00  0.00    +0.000 C 
ATOM     25  C   UNL     1      -1.629  13.760  23.541  0.00  0.00    +0.000 C 
ATOM     26  C   UNL     1      -2.685  14.446  24.403  0.00  0.00    +0.000 C 
ATOM     27  C   UNL     1      -4.020  13.810  24.016  0.00  0.00    +0.000 C 
ATOM     28  C   UNL     1      -3.696  12.694  23.027  0.00  0.00    +0.000 C 
ENDBRANCH  22  24
ENDBRANCH  19  20
ENDBRANCH  18  19
ENDBRANCH   4  18
TORSDOF 8
ENDMDL
MODEL 5
REMARK VINA RESULT:      -7.0      5.804      9.278
REMARK  Name = 
REMARK  11 active torsions:
REMARK  status: ('A' for Active; 'I' for Inactive)
REMARK    1  A    between atoms: C_1  and  O_2
REMARK    2  A    between atoms: O_2  and  C_3
REMARK    3  A    between atoms: C_5  and  C_6
REMARK    4  A    between atoms: C_9  and  C_10
REMARK    5  A    between atoms: C_10  and  C_11
REMARK    6  A    between atoms: C_11  and  C_12
REMARK    7  A    between atoms: N_14  and  C_15
REMARK    8  A    between atoms: C_22  and  O_23
REMARK    9  A    between atoms: O_23  and  C_24
REMARK   10  A    between atoms: C_25  and  O_26
REMARK   11  A    between atoms: O_26  and  C_27
REMARK                            x       y       z     vdW  Elec       q    Type
REMARK                         _______ _______ _______ _____ _____    ______ ____
ROOT
ATOM      1  C   UNL     1       2.413   7.894  18.203  0.00  0.00    +0.000 A 
ATOM      2  N   UNL     1       1.957   8.807  17.327  0.00  0.00    +0.000 NA
ATOM      3  O   UNL     1       1.266   9.714  18.129  0.00  0.00    +0.000 OA
ATOM      4  C   UNL     1       1.374   9.259  19.411  0.00  0.00    +0.000 A 
ATOM      5  N   UNL     1       2.044   8.138  19.507  0.00  0.00    +0.000 NA
ENDROOT
BRANCH   1   8
ATOM      6  C   UNL     1       3.806   4.503  17.339  0.00  0.00    +0.000 A 
ATOM      7  C   UNL     1       2.989   5.492  17.913  0.00  0.00    +0.000 A 
ATOM      8  C   UNL     1       3.357   6.835  17.865  0.00  0.00    +0.000 A 
ATOM      9  C   UNL     1       4.614   7.162  17.368  0.00  0.00    +0.000 A 
ATOM     10  C   UNL     1       5.490   6.183  16.876  0.00  0.00    +0.000 A 
ATOM     11  C   UNL     1       5.092   4.827  16.851  0.00  0.00    +0.000 A 
BRANCH   6  13
ATOM     12  C   UNL     1       1.970   3.038  17.634  0.00  0.00    +0.000 C 
ATOM     13  O   UNL     1       3.341   3.212  17.259  0.00  0.00    +0.000 OA
ENDBRANCH   6  13
BRANCH  10  14
ATOM     14  O   UNL     1       6.656   6.755  16.432  0.00  0.00    +0.000 OA
ATOM     15  C   UNL     1       7.500   7.435  17.344  0.00  0.00    +0.000 C 
ENDBRANCH  10  14
BRANCH  11  16
ATOM     16  O   UNL     1       6.012   3.954  16.349  0.00  0.00    +0.000 OA
ATOM     17  C   UNL     1       6.125   3.740  14.951  0.00  0.00    +0.000 C 
ENDBRANCH  11  16
ENDBRANCH   1   8
BRANCH   4  18
ATOM     18  C   UNL     1       0.755  10.084  20.473  0.00  0.00    +0.000 C 
BRANCH  18  19
ATOM     19  C   UNL     1      -0.764   9.951  20.490  0.00  0.00    +0.000 C 
BRANCH  19  20
ATOM     20  C   UNL     1      -1.376  10.813  19.408  0.00  0.00    +0.000 C 
ATOM     21  O   UNL     1      -1.399  12.038  19.463  0.00  0.00    +0.000 OA
ATOM     22  N   UNL     1      -1.912  10.093  18.361  0.00  0.00    +0.000 N 
ATOM     23  H   UNL     1      -1.698   9.106  18.290  0.00  0.00    +0.000 HD
BRANCH  22  24
ATOM     24  C   UNL     1      -2.459  10.769  17.202  0.00  0.00    +0.000 C 
ATOM     25  C   UNL     1      -2.369   9.928  15.932  0.00  0.00    +0.000 C 
ATOM     26  C   UNL     1      -3.364  10.595  14.988  0.00  0.00    +0.000 C 
ATOM     27  C   UNL     1      -4.421  11.244  15.881  0.00  0.00    +0.000 C 
ATOM     28  C   UNL     1      -3.954  11.040  17.320  0.00  0.00    +0.000 C 
ENDBRANCH  22  24
ENDBRANCH  19  20
ENDBRANCH  18  19
ENDBRANCH   4  18
TORSDOF 8
ENDMDL
MODEL 6
REMARK VINA RESULT:      -6.9      6.746     10.082
REMARK  Name = 
REMARK  11 active torsions:
REMARK  status: ('A' for Active; 'I' for Inactive)
REMARK    1  A    between atoms: C_1  and  O_2
REMARK    2  A    between atoms: O_2  and  C_3
REMARK    3  A    between atoms: C_5  and  C_6
REMARK    4  A    between atoms: C_9  and  C_10
REMARK    5  A    between atoms: C_10  and  C_11
REMARK    6  A    between atoms: C_11  and  C_12
REMARK    7  A    between atoms: N_14  and  C_15
REMARK    8  A    between atoms: C_22  and  O_23
REMARK    9  A    between atoms: O_23  and  C_24
REMARK   10  A    between atoms: C_25  and  O_26
REMARK   11  A    between atoms: O_26  and  C_27
REMARK                            x       y       z     vdW  Elec       q    Type
REMARK                         _______ _______ _______ _____ _____    ______ ____
ROOT
ATOM      1  C   UNL     1       1.841   8.146  19.131  0.00  0.00    +0.000 A 
ATOM      2  N   UNL     1       1.780   8.977  18.076  0.00  0.00    +0.000 NA
ATOM      3  O   UNL     1       1.286  10.162  18.621  0.00  0.00    +0.000 OA
ATOM      4  C   UNL     1       1.099   9.928  19.952  0.00  0.00    +0.000 A 
ATOM      5  N   UNL     1       1.400   8.705  20.310  0.00  0.00    +0.000 NA
ENDROOT
BRANCH   1   8
ATOM      6  C   UNL     1       4.257   5.368  18.334  0.00  0.00    +0.000 A 
ATOM      7  C   UNL     1       3.477   6.528  18.186  0.00  0.00    +0.000 A 
ATOM      8  C   UNL     1       2.473   6.832  19.103  0.00  0.00    +0.000 A 
ATOM      9  C   UNL     1       2.164   5.895  20.084  0.00  0.00    +0.000 A 
ATOM     10  C   UNL     1       2.865   4.684  20.195  0.00  0.00    +0.000 A 
ATOM     11  C   UNL     1       3.934   4.405  19.315  0.00  0.00    +0.000 A 
BRANCH   6  13
ATOM     12  C   UNL     1       5.063   4.475  16.295  0.00  0.00    +0.000 C 
ATOM     13  O   UNL     1       5.341   5.181  17.509  0.00  0.00    +0.000 OA
ENDBRANCH   6  13
BRANCH  10  14
ATOM     14  O   UNL     1       2.384   3.940  21.243  0.00  0.00    +0.000 OA
ATOM     15  C   UNL     1       1.210   3.165  21.077  0.00  0.00    +0.000 C 
ENDBRANCH  10  14
BRANCH  11  16
ATOM     16  O   UNL     1       4.556   3.205  19.509  0.00  0.00    +0.000 OA
ATOM     17  C   UNL     1       3.995   2.005  19.003  0.00  0.00    +0.000 C 
ENDBRANCH  11  16
ENDBRANCH   1   8
BRANCH   4  18
ATOM     18  C   UNL     1       0.618  11.061  20.773  0.00  0.00    +0.000 C 
BRANCH  18  19
ATOM     19  C   UNL     1      -0.902  11.176  20.758  0.00  0.00    +0.000 C 
BRANCH  19  20
ATOM     20  C   UNL     1      -1.375  11.687  19.416  0.00  0.00    +0.000 C 
ATOM     21  O   UNL     1      -1.285  12.863  19.079  0.00  0.00    +0.000 OA
ATOM     22  N   UNL     1      -1.923  10.711  18.610  0.00  0.00    +0.000 N 
ATOM     23  H   UNL     1      -1.800   9.740  18.872  0.00  0.00    +0.000 HD
BRANCH  22  24
ATOM     24  C   UNL     1      -2.345  11.016  17.259  0.00  0.00    +0.000 C 
ATOM     25  C   UNL     1      -2.193   9.831  16.311  0.00  0.00    +0.000 C 
ATOM     26  C   UNL     1      -3.078  10.202  15.125  0.00  0.00    +0.000 C 
ATOM     27  C   UNL     1      -4.171  11.111  15.686  0.00  0.00    +0.000 C 
ATOM     28  C   UNL     1      -3.830  11.340  17.156  0.00  0.00    +0.000 C 
ENDBRANCH  22  24
ENDBRANCH  19  20
ENDBRANCH  18  19
ENDBRANCH   4  18
TORSDOF 8
ENDMDL
MODEL 7
REMARK VINA RESULT:      -6.9      2.576     10.202
REMARK  Name = 
REMARK  11 active torsions:
REMARK  status: ('A' for Active; 'I' for Inactive)
REMARK    1  A    between atoms: C_1  and  O_2
REMARK    2  A    between atoms: O_2  and  C_3
REMARK    3  A    between atoms: C_5  and  C_6
REMARK    4  A    between atoms: C_9  and  C_10
REMARK    5  A    between atoms: C_10  and  C_11
REMARK    6  A    between atoms: C_11  and  C_12
REMARK    7  A    between atoms: N_14  and  C_15
REMARK    8  A    between atoms: C_22  and  O_23
REMARK    9  A    between atoms: O_23  and  C_24
REMARK   10  A    between atoms: C_25  and  O_26
REMARK   11  A    between atoms: O_26  and  C_27
REMARK                            x       y       z     vdW  Elec       q    Type
REMARK                         _______ _______ _______ _____ _____    ______ ____
ROOT
ATOM      1  C   UNL     1       5.744   6.379  17.112  0.00  0.00    +0.000 A 
ATOM      2  N   UNL     1       6.615   5.982  16.167  0.00  0.00    +0.000 NA
ATOM      3  O   UNL     1       7.733   6.785  16.393  0.00  0.00    +0.000 OA
ATOM      4  C   UNL     1       7.425   7.587  17.453  0.00  0.00    +0.000 A 
ATOM      5  N   UNL     1       6.215   7.396  17.913  0.00  0.00    +0.000 NA
ENDROOT
BRANCH   1   8
ATOM      6  C   UNL     1       3.192   3.652  17.592  0.00  0.00    +0.000 A 
ATOM      7  C   UNL     1       4.290   4.362  17.078  0.00  0.00    +0.000 A 
ATOM      8  C   UNL     1       4.486   5.703  17.403  0.00  0.00    +0.000 A 
ATOM      9  C   UNL     1       3.497   6.362  18.127  0.00  0.00    +0.000 A 
ATOM     10  C   UNL     1       2.343   5.700  18.571  0.00  0.00    +0.000 A 
ATOM     11  C   UNL     1       2.176   4.321  18.311  0.00  0.00    +0.000 A 
BRANCH   6  13
ATOM     12  C   UNL     1       3.699   1.492  18.419  0.00  0.00    +0.000 C 
ATOM     13  O   UNL     1       3.116   2.295  17.387  0.00  0.00    +0.000 OA
ENDBRANCH   6  13
BRANCH  10  14
ATOM     14  O   UNL     1       1.532   6.557  19.271  0.00  0.00    +0.000 OA
ATOM     15  C   UNL     1       1.816   6.847  20.628  0.00  0.00    +0.000 C 
ENDBRANCH  10  14
BRANCH  11  16
ATOM     16  O   UNL     1       1.024   3.768  18.790  0.00  0.00    +0.000 OA
ATOM     17  C   UNL     1       0.960   3.244  20.106  0.00  0.00    +0.000 C 
ENDBRANCH  11  16
ENDBRANCH   1   8
BRANCH   4  18
ATOM     18  C   UNL     1       8.480   8.512  17.926  0.00  0.00    +0.000 C 
BRANCH  18  19
ATOM     19  C   UNL     1       8.031   9.968  17.875  0.00  0.00    +0.000 C 
BRANCH  19  20
ATOM     20  C   UNL     1       9.139  10.875  18.361  0.00  0.00    +0.000 C 
ATOM     21  O   UNL     1       9.940  10.545  19.228  0.00  0.00    +0.000 OA
ATOM     22  N   UNL     1       9.160  12.108  17.743  0.00  0.00    +0.000 N 
ATOM     23  H   UNL     1       8.593  12.246  16.916  0.00  0.00    +0.000 HD
BRANCH  22  24
ATOM     24  C   UNL     1      10.211  13.062  18.030  0.00  0.00    +0.000 C 
ATOM     25  C   UNL     1      11.332  13.035  16.996  0.00  0.00    +0.000 C 
ATOM     26  C   UNL     1      12.057  14.359  17.216  0.00  0.00    +0.000 C 
ATOM     27  C   UNL     1      11.011  15.323  17.773  0.00  0.00    +0.000 C 
ATOM     28  C   UNL     1       9.736  14.508  17.973  0.00  0.00    +0.000 C 
ENDBRANCH  22  24
ENDBRANCH  19  20
ENDBRANCH  18  19
ENDBRANCH   4  18
TORSDOF 8
ENDMDL
MODEL 8
REMARK VINA RESULT:      -6.9      1.218      1.227
REMARK  Name = 
REMARK  11 active torsions:
REMARK  status: ('A' for Active; 'I' for Inactive)
REMARK    1  A    between atoms: C_1  and  O_2
REMARK    2  A    between atoms: O_2  and  C_3
REMARK    3  A    between atoms: C_5  and  C_6
REMARK    4  A    between atoms: C_9  and  C_10
REMARK    5  A    between atoms: C_10  and  C_11
REMARK    6  A    between atoms: C_11  and  C_12
REMARK    7  A    between atoms: N_14  and  C_15
REMARK    8  A    between atoms: C_22  and  O_23
REMARK    9  A    between atoms: O_23  and  C_24
REMARK   10  A    between atoms: C_25  and  O_26
REMARK   11  A    between atoms: O_26  and  C_27
REMARK                            x       y       z     vdW  Elec       q    Type
REMARK                         _______ _______ _______ _____ _____    ______ ____
ROOT
ATOM      1  C   UNL     1       8.471   9.031  18.223  0.00  0.00    +0.000 A 
ATOM      2  N   UNL     1       7.743   8.829  17.111  0.00  0.00    +0.000 NA
ATOM      3  O   UNL     1       7.392   7.482  17.189  0.00  0.00    +0.000 OA
ATOM      4  C   UNL     1       7.943   7.004  18.342  0.00  0.00    +0.000 A 
ATOM      5  N   UNL     1       8.632   7.904  18.998  0.00  0.00    +0.000 NA
ENDROOT
BRANCH   1   8
ATOM      6  C   UNL     1       9.727  11.780  20.470  0.00  0.00    +0.000 A 
ATOM      7  C   UNL     1       9.057  10.622  20.043  0.00  0.00    +0.000 A 
ATOM      8  C   UNL     1       8.913  10.341  18.686  0.00  0.00    +0.000 A 
ATOM      9  C   UNL     1       9.319  11.300  17.764  0.00  0.00    +0.000 A 
ATOM     10  C   UNL     1       9.906  12.509  18.166  0.00  0.00    +0.000 A 
ATOM     11  C   UNL     1      10.123  12.766  19.539  0.00  0.00    +0.000 A 
BRANCH   6  13
ATOM     12  C   UNL     1       8.956  12.587  22.558  0.00  0.00    +0.000 C 
ATOM     13  O   UNL     1       9.994  11.946  21.808  0.00  0.00    +0.000 OA
ENDBRANCH   6  13
BRANCH  10  14
ATOM     14  O   UNL     1      10.230  13.277  17.076  0.00  0.00    +0.000 OA
ATOM     15  C   UNL     1      11.535  13.210  16.530  0.00  0.00    +0.000 C 
ENDBRANCH  10  14
BRANCH  11  16
ATOM     16  O   UNL     1      10.705  13.966  19.827  0.00  0.00    +0.000 OA
ATOM     17  C   UNL     1      12.116  14.109  19.833  0.00  0.00    +0.000 C 
ENDBRANCH  11  16
ENDBRANCH   1   8
BRANCH   4  18
ATOM     18  C   UNL     1       7.672   5.590  18.682  0.00  0.00    +0.000 C 
BRANCH  18  19
ATOM     19  C   UNL     1       7.254   4.777  17.462  0.00  0.00    +0.000 C 
BRANCH  19  20
ATOM     20  C   UNL     1       5.804   4.365  17.578  0.00  0.00    +0.000 C 
ATOM     21  O   UNL     1       5.202   3.780  16.684  0.00  0.00    +0.000 OA
ATOM     22  N   UNL     1       5.221   4.716  18.778  0.00  0.00    +0.000 N 
ATOM     23  H   UNL     1       5.817   5.028  19.534  0.00  0.00    +0.000 HD
BRANCH  22  24
ATOM     24  C   UNL     1       3.862   4.318  19.085  0.00  0.00    +0.000 C 
ATOM     25  C   UNL     1       3.793   3.023  19.887  0.00  0.00    +0.000 C 
ATOM     26  C   UNL     1       2.384   3.035  20.470  0.00  0.00    +0.000 C 
ATOM     27  C   UNL     1       1.996   4.508  20.602  0.00  0.00    +0.000 C 
ATOM     28  C   UNL     1       3.139   5.311  19.987  0.00  0.00    +0.000 C 
ENDBRANCH  22  24
ENDBRANCH  19  20
ENDBRANCH  18  19
ENDBRANCH   4  18
TORSDOF 8
ENDMDL
MODEL 9
REMARK VINA RESULT:      -6.9      4.880      7.966
REMARK  Name = 
REMARK  11 active torsions:
REMARK  status: ('A' for Active; 'I' for Inactive)
REMARK    1  A    between atoms: C_1  and  O_2
REMARK    2  A    between atoms: O_2  and  C_3
REMARK    3  A    between atoms: C_5  and  C_6
REMARK    4  A    between atoms: C_9  and  C_10
REMARK    5  A    between atoms: C_10  and  C_11
REMARK    6  A    between atoms: C_11  and  C_12
REMARK    7  A    between atoms: N_14  and  C_15
REMARK    8  A    between atoms: C_22  and  O_23
REMARK    9  A    between atoms: O_23  and  C_24
REMARK   10  A    between atoms: C_25  and  O_26
REMARK   11  A    between atoms: O_26  and  C_27
REMARK                            x       y       z     vdW  Elec       q    Type
REMARK                         _______ _______ _______ _____ _____    ______ ____
ROOT
ATOM      1  C   UNL     1       4.083   3.323  17.572  0.00  0.00    +0.000 A 
ATOM      2  N   UNL     1       2.904   2.833  17.151  0.00  0.00    +0.000 NA
ATOM      3  O   UNL     1       2.260   2.466  18.332  0.00  0.00    +0.000 OA
ATOM      4  C   UNL     1       3.115   2.772  19.350  0.00  0.00    +0.000 A 
ATOM      5  N   UNL     1       4.252   3.275  18.938  0.00  0.00    +0.000 NA
ENDROOT
BRANCH   1   8
ATOM      6  C   UNL     1       6.929   5.518  16.446  0.00  0.00    +0.000 A 
ATOM      7  C   UNL     1       5.837   5.046  17.193  0.00  0.00    +0.000 A 
ATOM      8  C   UNL     1       5.040   4.009  16.712  0.00  0.00    +0.000 A 
ATOM      9  C   UNL     1       5.260   3.549  15.417  0.00  0.00    +0.000 A 
ATOM     10  C   UNL     1       6.284   4.070  14.613  0.00  0.00    +0.000 A 
ATOM     11  C   UNL     1       7.143   5.069  15.124  0.00  0.00    +0.000 A 
BRANCH   6  13
ATOM     12  C   UNL     1       7.181   7.648  17.447  0.00  0.00    +0.000 C 
ATOM     13  O   UNL     1       7.789   6.426  17.016  0.00  0.00    +0.000 OA
ENDBRANCH   6  13
BRANCH  10  14
ATOM     14  O   UNL     1       6.305   3.447  13.391  0.00  0.00    +0.000 OA
ATOM     15  C   UNL     1       5.134   3.417  12.594  0.00  0.00    +0.000 C 
ENDBRANCH  10  14
BRANCH  11  16
ATOM     16  O   UNL     1       8.111   5.505  14.266  0.00  0.00    +0.000 OA
ATOM     17  C   UNL     1       7.891   5.518  12.865  0.00  0.00    +0.000 C 
ENDBRANCH  11  16
ENDBRANCH   1   8
BRANCH   4  18
ATOM     18  C   UNL     1       2.639   2.517  20.728  0.00  0.00    +0.000 C 
BRANCH  18  19
ATOM     19  C   UNL     1       2.542   3.800  21.548  0.00  0.00    +0.000 C 
BRANCH  19  20
ATOM     20  C   UNL     1       1.666   4.808  20.839  0.00  0.00    +0.000 C 
ATOM     21  O   UNL     1       0.600   4.512  20.310  0.00  0.00    +0.000 OA
ATOM     22  N   UNL     1       2.179   6.088  20.839  0.00  0.00    +0.000 N 
ATOM     23  H   UNL     1       2.962   6.297  21.446  0.00  0.00    +0.000 HD
BRANCH  22  24
ATOM     24  C   UNL     1       1.423   7.189  20.279  0.00  0.00    +0.000 C 
ATOM     25  C   UNL     1       1.288   8.363  21.244  0.00  0.00    +0.000 C 
ATOM     26  C   UNL     1       0.886   9.526  20.343  0.00  0.00    +0.000 C 
ATOM     27  C   UNL     1       1.473   9.213  18.966  0.00  0.00    +0.000 C 
ATOM     28  C   UNL     1       2.099   7.824  19.071  0.00  0.00    +0.000 C 
ENDBRANCH  22  24
ENDBRANCH  19  20
ENDBRANCH  18  19
ENDBRANCH   4  18
TORSDOF 8
ENDMDL
