MODEL 1
REMARK VINA RESULT:      -6.7      0.000      0.000
REMARK  Name = 
REMARK  8 active torsions:
REMARK  status: ('A' for Active; 'I' for Inactive)
REMARK    1  A    between atoms: C_1  and  N_2
REMARK    2  A    between atoms: N_2  and  C_3
REMARK    3  A    between atoms: N_2  and  S_4
REMARK    4  A    between atoms: S_4  and  N_7
REMARK    5  A    between atoms: N_7  and  C_8
REMARK    6  A    between atoms: C_8  and  C_9
REMARK    7  A    between atoms: C_9  and  N_10
REMARK    8  A    between atoms: N_10  and  C_11
REMARK                            x       y       z     vdW  Elec       q    Type
REMARK                         _______ _______ _______ _____ _____    ______ ____
ROOT
ATOM      1  C   UNL     1       4.277   3.455  17.108  0.00  0.00    +0.000 C 
ENDROOT
BRANCH   1   2
ATOM      2  N   UNL     1       5.731   3.569  16.984  0.00  0.00    +0.000 N 
ATOM      3  H   UNL     1       6.066   3.291  16.065  0.00  0.00    +0.000 HD
BRANCH   2   4
ATOM      4  C   UNL     1       6.313   4.757  17.434  0.00  0.00    +0.000 A 
ATOM      5  N   UNL     1       7.029   4.731  18.586  0.00  0.00    +0.000 NA
ATOM      6  C   UNL     1       7.719   5.841  18.939  0.00  0.00    +0.000 A 
ATOM      7  C   UNL     1       7.729   7.009  18.198  0.00  0.00    +0.000 A 
ATOM      8 CL   UNL     1       8.657   8.361  18.699  0.00  0.00    +0.000 Cl
ATOM      9  C   UNL     1       6.975   7.055  17.033  0.00  0.00    +0.000 A 
ATOM     10  C   UNL     1       6.261   5.921  16.645  0.00  0.00    +0.000 A 
ATOM     11 CL   UNL     1       5.332   5.993  15.190  0.00  0.00    +0.000 Cl
ENDBRANCH   2   4
ENDBRANCH   1   2
BRANCH   1  12
ATOM     12  C   UNL     1       3.882   2.479  18.225  0.00  0.00    +0.000 C 
BRANCH  12  13
ATOM     13  N   UNL     1       2.502   1.904  18.066  0.00  0.00    +0.000 NA
ATOM     14  H   UNL     1       2.339   1.707  17.077  0.00  0.00    +0.000 HD
BRANCH  13  15
ATOM     15  S   UNL     1       1.260   2.931  18.554  0.00  0.00    +0.000 S 
ATOM     16  O   UNL     1       0.137   2.090  18.885  0.00  0.00    +0.000 OA
ATOM     17  O   UNL     1       1.155   4.033  17.632  0.00  0.00    +0.000 OA
BRANCH  15  19
ATOM     18  C   UNL     1       1.815   4.986  20.171  0.00  0.00    +0.000 C 
ATOM     19  N   UNL     1       1.938   3.520  19.988  0.00  0.00    +0.000 NA
ATOM     20  C   UNL     1       1.417   2.794  21.174  0.00  0.00    +0.000 C 
ENDBRANCH  15  19
ENDBRANCH  13  15
ENDBRANCH  12  13
ENDBRANCH   1  12
TORSDOF 6
ENDMDL
MODEL 2
REMARK VINA RESULT:      -6.6      2.083      3.536
REMARK  Name = 
REMARK  8 active torsions:
REMARK  status: ('A' for Active; 'I' for Inactive)
REMARK    1  A    between atoms: C_1  and  N_2
REMARK    2  A    between atoms: N_2  and  C_3
REMARK    3  A    between atoms: N_2  and  S_4
REMARK    4  A    between atoms: S_4  and  N_7
REMARK    5  A    between atoms: N_7  and  C_8
REMARK    6  A    between atoms: C_8  and  C_9
REMARK    7  A    between atoms: C_9  and  N_10
REMARK    8  A    between atoms: N_10  and  C_11
REMARK                            x       y       z     vdW  Elec       q    Type
REMARK                         _______ _______ _______ _____ _____    ______ ____
ROOT
ATOM      1  C   UNL     1       3.559   6.320  19.322  0.00  0.00    +0.000 C 
ENDROOT
BRANCH   1   2
ATOM      2  N   UNL     1       4.717   5.426  19.329  0.00  0.00    +0.000 N 
ATOM      3  H   UNL     1       4.564   4.596  19.895  0.00  0.00    +0.000 HD
BRANCH   2   4
ATOM      4  C   UNL     1       5.300   5.135  18.092  0.00  0.00    +0.000 A 
ATOM      5  N   UNL     1       4.502   4.697  17.088  0.00  0.00    +0.000 NA
ATOM      6  C   UNL     1       5.039   4.564  15.851  0.00  0.00    +0.000 A 
ATOM      7  C   UNL     1       6.361   4.839  15.553  0.00  0.00    +0.000 A 
ATOM      8 CL   UNL     1       6.954   4.676  13.953  0.00  0.00    +0.000 Cl
ATOM      9  C   UNL     1       7.193   5.260  16.581  0.00  0.00    +0.000 A 
ATOM     10  C   UNL     1       6.661   5.411  17.863  0.00  0.00    +0.000 A 
ATOM     11 CL   UNL     1       7.709   5.940  19.130  0.00  0.00    +0.000 Cl
ENDBRANCH   2   4
ENDBRANCH   1   2
BRANCH   1  12
ATOM     12  C   UNL     1       2.287   5.597  19.786  0.00  0.00    +0.000 C 
BRANCH  12  13
ATOM     13  N   UNL     1       2.450   4.867  21.092  0.00  0.00    +0.000 NA
ATOM     14  H   UNL     1       3.421   4.948  21.395  0.00  0.00    +0.000 HD
BRANCH  13  15
ATOM     15  S   UNL     1       2.115   3.218  21.012  0.00  0.00    +0.000 S 
ATOM     16  O   UNL     1       0.756   3.097  20.545  0.00  0.00    +0.000 OA
ATOM     17  O   UNL     1       2.580   2.573  22.212  0.00  0.00    +0.000 OA
BRANCH  15  19
ATOM     18  C   UNL     1       4.388   2.077  20.191  0.00  0.00    +0.000 C 
ATOM     19  N   UNL     1       3.161   2.786  19.754  0.00  0.00    +0.000 NA
ATOM     20  C   UNL     1       2.454   2.018  18.698  0.00  0.00    +0.000 C 
ENDBRANCH  15  19
ENDBRANCH  13  15
ENDBRANCH  12  13
ENDBRANCH   1  12
TORSDOF 6
ENDMDL
MODEL 3
REMARK VINA RESULT:      -6.4      4.053      6.265
REMARK  Name = 
REMARK  8 active torsions:
REMARK  status: ('A' for Active; 'I' for Inactive)
REMARK    1  A    between atoms: C_1  and  N_2
REMARK    2  A    between atoms: N_2  and  C_3
REMARK    3  A    between atoms: N_2  and  S_4
REMARK    4  A    between atoms: S_4  and  N_7
REMARK    5  A    between atoms: N_7  and  C_8
REMARK    6  A    between atoms: C_8  and  C_9
REMARK    7  A    between atoms: C_9  and  N_10
REMARK    8  A    between atoms: N_10  and  C_11
REMARK                            x       y       z     vdW  Elec       q    Type
REMARK                         _______ _______ _______ _____ _____    ______ ____
ROOT
ATOM      1  C   UNL     1       3.866   6.608  17.205  0.00  0.00    +0.000 C 
ENDROOT
BRANCH   1   2
ATOM      2  N   UNL     1       4.285   6.273  18.567  0.00  0.00    +0.000 N 
ATOM      3  H   UNL     1       4.513   7.097  19.118  0.00  0.00    +0.000 HD
BRANCH   2   4
ATOM      4  C   UNL     1       3.492   5.360  19.267  0.00  0.00    +0.000 A 
ATOM      5  N   UNL     1       3.858   4.054  19.270  0.00  0.00    +0.000 NA
ATOM      6  C   UNL     1       3.181   3.198  20.072  0.00  0.00    +0.000 A 
ATOM      7  C   UNL     1       2.127   3.575  20.883  0.00  0.00    +0.000 A 
ATOM      8 CL   UNL     1       1.343   2.434  21.894  0.00  0.00    +0.000 Cl
ATOM      9  C   UNL     1       1.725   4.904  20.865  0.00  0.00    +0.000 A 
ATOM     10  C   UNL     1       2.413   5.807  20.051  0.00  0.00    +0.000 A 
ATOM     11 CL   UNL     1       1.904   7.458  20.043  0.00  0.00    +0.000 Cl
ENDBRANCH   2   4
ENDBRANCH   1   2
BRANCH   1  12
ATOM     12  C   UNL     1       4.862   6.079  16.164  0.00  0.00    +0.000 C 
BRANCH  12  13
ATOM     13  N   UNL     1       5.712   4.942  16.663  0.00  0.00    +0.000 NA
ATOM     14  H   UNL     1       5.398   4.683  17.599  0.00  0.00    +0.000 HD
BRANCH  13  15
ATOM     15  S   UNL     1       7.350   5.307  16.798  0.00  0.00    +0.000 S 
ATOM     16  O   UNL     1       7.702   6.058  15.619  0.00  0.00    +0.000 OA
ATOM     17  O   UNL     1       8.074   4.131  17.209  0.00  0.00    +0.000 OA
BRANCH  15  19
ATOM     18  C   UNL     1       7.911   5.839  19.356  0.00  0.00    +0.000 C 
ATOM     19  N   UNL     1       7.289   6.364  18.117  0.00  0.00    +0.000 NA
ATOM     20  C   UNL     1       7.844   7.698  17.772  0.00  0.00    +0.000 C 
ENDBRANCH  15  19
ENDBRANCH  13  15
ENDBRANCH  12  13
ENDBRANCH   1  12
TORSDOF 6
ENDMDL
MODEL 4
REMARK VINA RESULT:      -6.4      3.591      6.128
REMARK  Name = 
REMARK  8 active torsions:
REMARK  status: ('A' for Active; 'I' for Inactive)
REMARK    1  A    between atoms: C_1  and  N_2
REMARK    2  A    between atoms: N_2  and  C_3
REMARK    3  A    between atoms: N_2  and  S_4
REMARK    4  A    between atoms: S_4  and  N_7
REMARK    5  A    between atoms: N_7  and  C_8
REMARK    6  A    between atoms: C_8  and  C_9
REMARK    7  A    between atoms: C_9  and  N_10
REMARK    8  A    between atoms: N_10  and  C_11
REMARK                            x       y       z     vdW  Elec       q    Type
REMARK                         _______ _______ _______ _____ _____    ______ ____
ROOT
ATOM      1  C   UNL     1       7.352   4.852  18.386  0.00  0.00    +0.000 C 
ENDROOT
BRANCH   1   2
ATOM      2  N   UNL     1       6.234   5.168  19.275  0.00  0.00    +0.000 N 
ATOM      3  H   UNL     1       6.087   6.169  19.376  0.00  0.00    +0.000 HD
BRANCH   2   4
ATOM      4  C   UNL     1       5.043   4.466  19.069  0.00  0.00    +0.000 A 
ATOM      5  N   UNL     1       4.948   3.199  19.543  0.00  0.00    +0.000 NA
ATOM      6  C   UNL     1       3.747   2.577  19.480  0.00  0.00    +0.000 A 
ATOM      7  C   UNL     1       2.609   3.155  18.948  0.00  0.00    +0.000 A 
ATOM      8 CL   UNL     1       1.117   2.311  18.936  0.00  0.00    +0.000 Cl
ATOM      9  C   UNL     1       2.703   4.441  18.433  0.00  0.00    +0.000 A 
ATOM     10  C   UNL     1       3.930   5.105  18.493  0.00  0.00    +0.000 A 
ATOM     11 CL   UNL     1       4.029   6.706  17.851  0.00  0.00    +0.000 Cl
ENDBRANCH   2   4
ENDBRANCH   1   2
BRANCH   1  12
ATOM     12  C   UNL     1       7.403   5.808  17.185  0.00  0.00    +0.000 C 
BRANCH  12  13
ATOM     13  N   UNL     1       7.593   5.111  15.866  0.00  0.00    +0.000 NA
ATOM     14  H   UNL     1       8.070   5.745  15.224  0.00  0.00    +0.000 HD
BRANCH  13  15
ATOM     15  S   UNL     1       6.159   4.660  15.106  0.00  0.00    +0.000 S 
ATOM     16  O   UNL     1       5.428   5.876  14.853  0.00  0.00    +0.000 OA
ATOM     17  O   UNL     1       5.578   3.540  15.800  0.00  0.00    +0.000 OA
BRANCH  15  19
ATOM     18  C   UNL     1       5.773   3.596  12.685  0.00  0.00    +0.000 C 
ATOM     19  N   UNL     1       6.790   4.091  13.643  0.00  0.00    +0.000 NA
ATOM     20  C   UNL     1       7.672   5.099  13.002  0.00  0.00    +0.000 C 
ENDBRANCH  15  19
ENDBRANCH  13  15
ENDBRANCH  12  13
ENDBRANCH   1  12
TORSDOF 6
ENDMDL
MODEL 5
REMARK VINA RESULT:      -6.3      3.769      6.223
REMARK  Name = 
REMARK  8 active torsions:
REMARK  status: ('A' for Active; 'I' for Inactive)
REMARK    1  A    between atoms: C_1  and  N_2
REMARK    2  A    between atoms: N_2  and  C_3
REMARK    3  A    between atoms: N_2  and  S_4
REMARK    4  A    between atoms: S_4  and  N_7
REMARK    5  A    between atoms: N_7  and  C_8
REMARK    6  A    between atoms: C_8  and  C_9
REMARK    7  A    between atoms: C_9  and  N_10
REMARK    8  A    between atoms: N_10  and  C_11
REMARK                            x       y       z     vdW  Elec       q    Type
REMARK                         _______ _______ _______ _____ _____    ______ ____
ROOT
ATOM      1  C   UNL     1       6.437   5.293  18.601  0.00  0.00    +0.000 C 
ENDROOT
BRANCH   1   2
ATOM      2  N   UNL     1       5.938   3.929  18.425  0.00  0.00    +0.000 N 
ATOM      3  H   UNL     1       6.673   3.231  18.513  0.00  0.00    +0.000 HD
BRANCH   2   4
ATOM      4  C   UNL     1       4.779   3.583  19.124  0.00  0.00    +0.000 A 
ATOM      5  N   UNL     1       4.837   2.552  20.003  0.00  0.00    +0.000 NA
ATOM      6  C   UNL     1       3.761   2.317  20.791  0.00  0.00    +0.000 A 
ATOM      7  C   UNL     1       2.597   3.062  20.745  0.00  0.00    +0.000 A 
ATOM      8 CL   UNL     1       1.291   2.719  21.801  0.00  0.00    +0.000 Cl
ATOM      9  C   UNL     1       2.517   4.101  19.827  0.00  0.00    +0.000 A 
ATOM     10  C   UNL     1       3.616   4.366  19.009  0.00  0.00    +0.000 A 
ATOM     11 CL   UNL     1       3.501   5.665  17.876  0.00  0.00    +0.000 Cl
ENDBRANCH   2   4
ENDBRANCH   1   2
BRANCH   1  12
ATOM     12  C   UNL     1       7.360   5.709  17.447  0.00  0.00    +0.000 C 
BRANCH  12  13
ATOM     13  N   UNL     1       7.413   4.708  16.325  0.00  0.00    +0.000 NA
ATOM     14  H   UNL     1       8.274   4.852  15.796  0.00  0.00    +0.000 HD
BRANCH  13  15
ATOM     15  S   UNL     1       6.150   4.837  15.219  0.00  0.00    +0.000 S 
ATOM     16  O   UNL     1       5.905   6.247  15.038  0.00  0.00    +0.000 OA
ATOM     17  O   UNL     1       5.105   3.911  15.570  0.00  0.00    +0.000 OA
BRANCH  15  19
ATOM     18  C   UNL     1       6.030   3.587  12.860  0.00  0.00    +0.000 C 
ATOM     19  N   UNL     1       6.929   4.241  13.841  0.00  0.00    +0.000 NA
ATOM     20  C   UNL     1       7.754   5.287  13.186  0.00  0.00    +0.000 C 
ENDBRANCH  15  19
ENDBRANCH  13  15
ENDBRANCH  12  13
ENDBRANCH   1  12
TORSDOF 6
ENDMDL
MODEL 6
REMARK VINA RESULT:      -6.3      0.852      1.228
REMARK  Name = 
REMARK  8 active torsions:
REMARK  status: ('A' for Active; 'I' for Inactive)
REMARK    1  A    between atoms: C_1  and  N_2
REMARK    2  A    between atoms: N_2  and  C_3
REMARK    3  A    between atoms: N_2  and  S_4
REMARK    4  A    between atoms: S_4  and  N_7
REMARK    5  A    between atoms: N_7  and  C_8
REMARK    6  A    between atoms: C_8  and  C_9
REMARK    7  A    between atoms: C_9  and  N_10
REMARK    8  A    between atoms: N_10  and  C_11
REMARK                            x       y       z     vdW  Elec       q    Type
REMARK                         _______ _______ _______ _____ _____    ______ ____
ROOT
ATOM      1  C   UNL     1       4.634   3.335  17.001  0.00  0.00    +0.000 C 
ENDROOT
BRANCH   1   2
ATOM      2  N   UNL     1       6.047   3.632  16.757  0.00  0.00    +0.000 N 
ATOM      3  H   UNL     1       6.312   3.491  15.785  0.00  0.00    +0.000 HD
BRANCH   2   4
ATOM      4  C   UNL     1       6.542   4.829  17.283  0.00  0.00    +0.000 A 
ATOM      5  N   UNL     1       7.351   4.772  18.369  0.00  0.00    +0.000 NA
ATOM      6  C   UNL     1       7.953   5.913  18.783  0.00  0.00    +0.000 A 
ATOM      7  C   UNL     1       7.782   7.140  18.168  0.00  0.00    +0.000 A 
ATOM      8 CL   UNL     1       8.607   8.531  18.735  0.00  0.00    +0.000 Cl
ATOM      9  C   UNL     1       6.931   7.213  17.072  0.00  0.00    +0.000 A 
ATOM     10  C   UNL     1       6.305   6.049  16.624  0.00  0.00    +0.000 A 
ATOM     11 CL   UNL     1       5.254   6.157  15.257  0.00  0.00    +0.000 Cl
ENDBRANCH   2   4
ENDBRANCH   1   2
BRANCH   1  12
ATOM     12  C   UNL     1       4.262   3.544  18.475  0.00  0.00    +0.000 C 
BRANCH  12  13
ATOM     13  N   UNL     1       2.915   4.183  18.674  0.00  0.00    +0.000 NA
ATOM     14  H   UNL     1       2.956   4.789  19.494  0.00  0.00    +0.000 HD
BRANCH  13  15
ATOM     15  S   UNL     1       1.663   3.092  18.954  0.00  0.00    +0.000 S 
ATOM     16  O   UNL     1       2.277   1.801  19.142  0.00  0.00    +0.000 OA
ATOM     17  O   UNL     1       0.608   3.313  17.998  0.00  0.00    +0.000 OA
BRANCH  15  19
ATOM     18  C   UNL     1       1.412   2.758  21.593  0.00  0.00    +0.000 C 
ATOM     19  N   UNL     1       1.130   3.664  20.454  0.00  0.00    +0.000 NA
ATOM     20  C   UNL     1       1.639   5.031  20.728  0.00  0.00    +0.000 C 
ENDBRANCH  15  19
ENDBRANCH  13  15
ENDBRANCH  12  13
ENDBRANCH   1  12
TORSDOF 6
ENDMDL
MODEL 7
REMARK VINA RESULT:      -6.2      4.170      5.873
REMARK  Name = 
REMARK  8 active torsions:
REMARK  status: ('A' for Active; 'I' for Inactive)
REMARK    1  A    between atoms: C_1  and  N_2
REMARK    2  A    between atoms: N_2  and  C_3
REMARK    3  A    between atoms: N_2  and  S_4
REMARK    4  A    between atoms: S_4  and  N_7
REMARK    5  A    between atoms: N_7  and  C_8
REMARK    6  A    between atoms: C_8  and  C_9
REMARK    7  A    between atoms: C_9  and  N_10
REMARK    8  A    between atoms: N_10  and  C_11
REMARK                            x       y       z     vdW  Elec       q    Type
REMARK                         _______ _______ _______ _____ _____    ______ ____
ROOT
ATOM      1  C   UNL     1       3.474   3.694  16.991  0.00  0.00    +0.000 C 
ENDROOT
BRANCH   1   2
ATOM      2  N   UNL     1       3.655   3.682  18.443  0.00  0.00    +0.000 N 
ATOM      3  H   UNL     1       4.615   3.485  18.714  0.00  0.00    +0.000 HD
BRANCH   2   4
ATOM      4  C   UNL     1       3.100   4.746  19.160  0.00  0.00    +0.000 A 
ATOM      5  N   UNL     1       3.186   5.993  18.635  0.00  0.00    +0.000 NA
ATOM      6  C   UNL     1       2.516   6.997  19.250  0.00  0.00    +0.000 A 
ATOM      7  C   UNL     1       1.756   6.827  20.393  0.00  0.00    +0.000 A 
ATOM      8 CL   UNL     1       0.912   8.145  21.092  0.00  0.00    +0.000 Cl
ATOM      9  C   UNL     1       1.687   5.559  20.954  0.00  0.00    +0.000 A 
ATOM     10  C   UNL     1       2.363   4.507  20.334  0.00  0.00    +0.000 A 
ATOM     11 CL   UNL     1       2.263   2.935  21.043  0.00  0.00    +0.000 Cl
ENDBRANCH   2   4
ENDBRANCH   1   2
BRANCH   1  12
ATOM     12  C   UNL     1       4.679   4.325  16.279  0.00  0.00    +0.000 C 
BRANCH  12  13
ATOM     13  N   UNL     1       5.993   3.681  16.629  0.00  0.00    +0.000 NA
ATOM     14  H   UNL     1       5.910   3.240  17.545  0.00  0.00    +0.000 HD
BRANCH  13  15
ATOM     15  S   UNL     1       7.286   4.755  16.736  0.00  0.00    +0.000 S 
ATOM     16  O   UNL     1       7.425   5.360  15.435  0.00  0.00    +0.000 OA
ATOM     17  O   UNL     1       8.386   4.119  17.414  0.00  0.00    +0.000 OA
BRANCH  15  19
ATOM     18  C   UNL     1       6.739   5.544  19.230  0.00  0.00    +0.000 C 
ATOM     19  N   UNL     1       6.613   5.891  17.794  0.00  0.00    +0.000 NA
ATOM     20  C   UNL     1       7.137   7.255  17.532  0.00  0.00    +0.000 C 
ENDBRANCH  15  19
ENDBRANCH  13  15
ENDBRANCH  12  13
ENDBRANCH   1  12
TORSDOF 6
ENDMDL
MODEL 8
REMARK VINA RESULT:      -6.2      1.808      2.880
REMARK  Name = 
REMARK  8 active torsions:
REMARK  status: ('A' for Active; 'I' for Inactive)
REMARK    1  A    between atoms: C_1  and  N_2
REMARK    2  A    between atoms: N_2  and  C_3
REMARK    3  A    between atoms: N_2  and  S_4
REMARK    4  A    between atoms: S_4  and  N_7
REMARK    5  A    between atoms: N_7  and  C_8
REMARK    6  A    between atoms: C_8  and  C_9
REMARK    7  A    between atoms: C_9  and  N_10
REMARK    8  A    between atoms: N_10  and  C_11
REMARK                            x       y       z     vdW  Elec       q    Type
REMARK                         _______ _______ _______ _____ _____    ______ ____
ROOT
ATOM      1  C   UNL     1       4.744   2.986  18.800  0.00  0.00    +0.000 C 
ENDROOT
BRANCH   1   2
ATOM      2  N   UNL     1       4.740   4.274  18.105  0.00  0.00    +0.000 N 
ATOM      3  H   UNL     1       4.919   5.055  18.732  0.00  0.00    +0.000 HD
BRANCH   2   4
ATOM      4  C   UNL     1       5.476   4.355  16.919  0.00  0.00    +0.000 A 
ATOM      5  N   UNL     1       4.824   4.189  15.742  0.00  0.00    +0.000 NA
ATOM      6  C   UNL     1       5.503   4.420  14.593  0.00  0.00    +0.000 A 
ATOM      7  C   UNL     1       6.830   4.807  14.549  0.00  0.00    +0.000 A 
ATOM      8 CL   UNL     1       7.608   5.112  13.052  0.00  0.00    +0.000 Cl
ATOM      9  C   UNL     1       7.514   4.951  15.749  0.00  0.00    +0.000 A 
ATOM     10  C   UNL     1       6.833   4.725  16.946  0.00  0.00    +0.000 A 
ATOM     11 CL   UNL     1       7.697   4.913  18.431  0.00  0.00    +0.000 Cl
ENDBRANCH   2   4
ENDBRANCH   1   2
BRANCH   1  12
ATOM     12  C   UNL     1       3.681   2.036  18.230  0.00  0.00    +0.000 C 
BRANCH  12  13
ATOM     13  N   UNL     1       2.495   1.843  19.135  0.00  0.00    +0.000 NA
ATOM     14  H   UNL     1       2.116   0.907  18.987  0.00  0.00    +0.000 HD
BRANCH  13  15
ATOM     15  S   UNL     1       1.227   2.917  18.857  0.00  0.00    +0.000 S 
ATOM     16  O   UNL     1       0.069   2.114  18.549  0.00  0.00    +0.000 OA
ATOM     17  O   UNL     1       1.677   3.983  18.001  0.00  0.00    +0.000 OA
BRANCH  15  19
ATOM     18  C   UNL     1       1.566   2.668  21.496  0.00  0.00    +0.000 C 
ATOM     19  N   UNL     1       1.051   3.546  20.418  0.00  0.00    +0.000 NA
ATOM     20  C   UNL     1       1.632   4.908  20.524  0.00  0.00    +0.000 C 
ENDBRANCH  15  19
ENDBRANCH  13  15
ENDBRANCH  12  13
ENDBRANCH   1  12
TORSDOF 6
ENDMDL
MODEL 9
REMARK VINA RESULT:      -6.2      3.761      5.749
REMARK  Name = 
REMARK  8 active torsions:
REMARK  status: ('A' for Active; 'I' for Inactive)
REMARK    1  A    between atoms: C_1  and  N_2
REMARK    2  A    between atoms: N_2  and  C_3
REMARK    3  A    between atoms: N_2  and  S_4
REMARK    4  A    between atoms: S_4  and  N_7
REMARK    5  A    between atoms: N_7  and  C_8
REMARK    6  A    between atoms: C_8  and  C_9
REMARK    7  A    between atoms: C_9  and  N_10
REMARK    8  A    between atoms: N_10  and  C_11
REMARK                            x       y       z     vdW  Elec       q    Type
REMARK                         _______ _______ _______ _____ _____    ______ ____
ROOT
ATOM      1  C   UNL     1       3.857   3.105  17.668  0.00  0.00    +0.000 C 
ENDROOT
BRANCH   1   2
ATOM      2  N   UNL     1       2.574   3.808  17.675  0.00  0.00    +0.000 N 
ATOM      3  H   UNL     1       1.781   3.171  17.671  0.00  0.00    +0.000 HD
BRANCH   2   4
ATOM      4  C   UNL     1       2.426   4.848  18.598  0.00  0.00    +0.000 A 
ATOM      5  N   UNL     1       2.814   6.095  18.234  0.00  0.00    +0.000 NA
ATOM      6  C   UNL     1       2.530   7.125  19.067  0.00  0.00    +0.000 A 
ATOM      7  C   UNL     1       1.874   6.978  20.276  0.00  0.00    +0.000 A 
ATOM      8 CL   UNL     1       1.523   8.339  21.257  0.00  0.00    +0.000 Cl
ATOM      9  C   UNL     1       1.500   5.700  20.670  0.00  0.00    +0.000 A 
ATOM     10  C   UNL     1       1.776   4.624  19.825  0.00  0.00    +0.000 A 
ATOM     11 CL   UNL     1       1.299   3.042  20.329  0.00  0.00    +0.000 Cl
ENDBRANCH   2   4
ENDBRANCH   1   2
BRANCH   1  12
ATOM     12  C   UNL     1       4.736   3.549  16.490  0.00  0.00    +0.000 C 
BRANCH  12  13
ATOM     13  N   UNL     1       6.059   4.129  16.908  0.00  0.00    +0.000 NA
ATOM     14  H   UNL     1       6.084   4.191  17.926  0.00  0.00    +0.000 HD
BRANCH  13  15
ATOM     15  S   UNL     1       6.349   5.684  16.331  0.00  0.00    +0.000 S 
ATOM     16  O   UNL     1       5.121   6.132  15.723  0.00  0.00    +0.000 OA
ATOM     17  O   UNL     1       7.610   5.714  15.637  0.00  0.00    +0.000 OA
BRANCH  15  19
ATOM     18  C   UNL     1       6.664   5.599  18.984  0.00  0.00    +0.000 C 
ATOM     19  N   UNL     1       6.550   6.491  17.805  0.00  0.00    +0.000 NA
ATOM     20  C   UNL     1       7.687   7.445  17.753  0.00  0.00    +0.000 C 
ENDBRANCH  15  19
ENDBRANCH  13  15
ENDBRANCH  12  13
ENDBRANCH   1  12
TORSDOF 6
ENDMDL
