MODEL 1
REMARK VINA RESULT:      -7.2      0.000      0.000
REMARK  Name = 
REMARK  10 active torsions:
REMARK  status: ('A' for Active; 'I' for Inactive)
REMARK    1  A    between atoms: C_1  and  C_2
REMARK    2  A    between atoms: C_2  and  O_3
REMARK    3  A    between atoms: O_3  and  C_4
REMARK    4  A    between atoms: C_4  and  C_6
REMARK    5  A    between atoms: C_9  and  N_10
REMARK    6  A    between atoms: C_14  and  C_15
REMARK    7  A    between atoms: C_17  and  C_18
REMARK    8  A    between atoms: N_19  and  C_20
REMARK    9  A    between atoms: C_26  and  C_27
REMARK   10  A    between atoms: N_30  and  C_31
REMARK                            x       y       z     vdW  Elec       q    Type
REMARK                         _______ _______ _______ _____ _____    ______ ____
ROOT
ATOM      1  N   UNL     1      -0.295  11.147  22.570  0.00  0.00    +0.000 NA
ATOM      2  C   UNL     1      -0.045  10.751  21.370  0.00  0.00    +0.000 C 
ATOM      3  S   UNL     1       1.004   9.335  21.238  0.00  0.00    +0.000 S 
ATOM      4  C   UNL     1       0.809   9.246  19.540  0.00  0.00    +0.000 C 
ATOM      5  C   UNL     1       1.355   8.408  18.646  0.00  0.00    +0.000 C 
ATOM      6  C   UNL     1      -0.054  10.323  19.074  0.00  0.00    +0.000 C 
ATOM      7  O   UNL     1      -0.388  10.458  17.895  0.00  0.00    +0.000 OA
ATOM      8  N   UNL     1      -0.433  11.152  20.105  0.00  0.00    +0.000 N 
ATOM      9  C   UNL     1      -1.179  12.333  19.706  0.00  0.00    +0.000 C 
ENDROOT
BRANCH   5  10
ATOM     10  C   UNL     1       2.233   7.312  18.867  0.00  0.00    +0.000 A 
ATOM     11  C   UNL     1       2.033   6.219  19.716  0.00  0.00    +0.000 A 
ATOM     12  C   UNL     1       3.136   5.402  19.623  0.00  0.00    +0.000 A 
ATOM     13  C   UNL     1       3.371   4.197  20.472  0.00  0.00    +0.000 C 
ATOM     14  N   UNL     1       4.023   5.959  18.692  0.00  0.00    +0.000 N 
ATOM     15  C   UNL     1       3.429   7.123  18.188  0.00  0.00    +0.000 A 
ATOM     16  C   UNL     1       3.949   7.967  17.061  0.00  0.00    +0.000 C 
BRANCH  14  17
ATOM     17  C   UNL     1       5.296   5.425  18.327  0.00  0.00    +0.000 A 
ATOM     18  C   UNL     1       5.497   4.792  17.099  0.00  0.00    +0.000 A 
ATOM     19  C   UNL     1       6.747   4.279  16.778  0.00  0.00    +0.000 A 
ATOM     20  C   UNL     1       7.780   4.448  17.682  0.00  0.00    +0.000 A 
ATOM     21  N   UNL     1       7.629   5.054  18.879  0.00  0.00    +0.000 NA
ATOM     22  C   UNL     1       6.389   5.510  19.179  0.00  0.00    +0.000 A 
ENDBRANCH  14  17
ENDBRANCH   5  10
BRANCH   1  26
ATOM     23  C   UNL     1      -3.022  14.075  23.825  0.00  0.00    +0.000 A 
ATOM     24  C   UNL     1      -3.431  12.758  23.665  0.00  0.00    +0.000 A 
ATOM     25  C   UNL     1      -2.494  11.789  23.386  0.00  0.00    +0.000 A 
ATOM     26  C   UNL     1      -1.204  12.128  22.963  0.00  0.00    +0.000 A 
ATOM     27  C   UNL     1      -0.798  13.458  23.096  0.00  0.00    +0.000 A 
ATOM     28  C   UNL     1      -1.694  14.433  23.569  0.00  0.00    +0.000 A 
BRANCH  23  29
ATOM     29  C   UNL     1      -4.059  15.006  24.324  0.00  0.00    +0.000 C 
ATOM     30  O   UNL     1      -3.822  15.917  25.098  0.00  0.00    +0.000 OA
BRANCH  29  31
ATOM     31  O   UNL     1      -5.258  14.643  23.839  0.00  0.00    +0.000 OA
BRANCH  31  33
ATOM     32  C   UNL     1      -7.047  16.115  23.342  0.00  0.00    +0.000 C 
ATOM     33  C   UNL     1      -5.747  15.529  22.823  0.00  0.00    +0.000 C 
ENDBRANCH  31  33
ENDBRANCH  29  31
ENDBRANCH  23  29
ENDBRANCH   1  26
TORSDOF 6
ENDMDL
MODEL 2
REMARK VINA RESULT:      -6.9      1.473      2.137
REMARK  Name = 
REMARK  10 active torsions:
REMARK  status: ('A' for Active; 'I' for Inactive)
REMARK    1  A    between atoms: C_1  and  C_2
REMARK    2  A    between atoms: C_2  and  O_3
REMARK    3  A    between atoms: O_3  and  C_4
REMARK    4  A    between atoms: C_4  and  C_6
REMARK    5  A    between atoms: C_9  and  N_10
REMARK    6  A    between atoms: C_14  and  C_15
REMARK    7  A    between atoms: C_17  and  C_18
REMARK    8  A    between atoms: N_19  and  C_20
REMARK    9  A    between atoms: C_26  and  C_27
REMARK   10  A    between atoms: N_30  and  C_31
REMARK                            x       y       z     vdW  Elec       q    Type
REMARK                         _______ _______ _______ _____ _____    ______ ____
ROOT
ATOM      1  N   UNL     1       0.246  10.930  21.941  0.00  0.00    +0.000 NA
ATOM      2  C   UNL     1       0.331  10.537  20.717  0.00  0.00    +0.000 C 
ATOM      3  S   UNL     1       1.509   9.257  20.408  0.00  0.00    +0.000 S 
ATOM      4  C   UNL     1       1.035   9.101  18.771  0.00  0.00    +0.000 C 
ATOM      5  C   UNL     1       1.517   8.314  17.798  0.00  0.00    +0.000 C 
ATOM      6  C   UNL     1      -0.024  10.053  18.460  0.00  0.00    +0.000 C 
ATOM      7  O   UNL     1      -0.572  10.115  17.358  0.00  0.00    +0.000 OA
ATOM      8  N   UNL     1      -0.318  10.855  19.538  0.00  0.00    +0.000 N 
ATOM      9  C   UNL     1      -1.264  11.925  19.272  0.00  0.00    +0.000 C 
ENDROOT
BRANCH   5  10
ATOM     10  C   UNL     1       2.550   7.339  17.866  0.00  0.00    +0.000 A 
ATOM     11  C   UNL     1       3.891   7.493  17.504  0.00  0.00    +0.000 A 
ATOM     12  C   UNL     1       4.532   6.298  17.730  0.00  0.00    +0.000 A 
ATOM     13  C   UNL     1       5.946   6.009  17.349  0.00  0.00    +0.000 C 
ATOM     14  N   UNL     1       3.606   5.392  18.266  0.00  0.00    +0.000 N 
ATOM     15  C   UNL     1       2.384   6.066  18.393  0.00  0.00    +0.000 A 
ATOM     16  C   UNL     1       1.146   5.537  19.057  0.00  0.00    +0.000 C 
BRANCH  14  17
ATOM     17  C   UNL     1       3.871   4.034  18.617  0.00  0.00    +0.000 A 
ATOM     18  C   UNL     1       3.412   2.975  17.832  0.00  0.00    +0.000 A 
ATOM     19  C   UNL     1       3.684   1.664  18.205  0.00  0.00    +0.000 A 
ATOM     20  C   UNL     1       4.445   1.447  19.339  0.00  0.00    +0.000 A 
ATOM     21  N   UNL     1       4.909   2.443  20.126  0.00  0.00    +0.000 NA
ATOM     22  C   UNL     1       4.596   3.708  19.756  0.00  0.00    +0.000 A 
ENDBRANCH  14  17
ENDBRANCH   5  10
BRANCH   1  26
ATOM     23  C   UNL     1      -2.563  13.536  23.645  0.00  0.00    +0.000 A 
ATOM     24  C   UNL     1      -2.804  12.170  23.612  0.00  0.00    +0.000 A 
ATOM     25  C   UNL     1      -1.814  11.320  23.175  0.00  0.00    +0.000 A 
ATOM     26  C   UNL     1      -0.697  11.803  22.484  0.00  0.00    +0.000 A 
ATOM     27  C   UNL     1      -0.466  13.180  22.489  0.00  0.00    +0.000 A 
ATOM     28  C   UNL     1      -1.379  14.053  23.109  0.00  0.00    +0.000 A 
BRANCH  23  29
ATOM     29  C   UNL     1      -3.602  14.348  24.319  0.00  0.00    +0.000 C 
ATOM     30  O   UNL     1      -3.350  15.163  25.190  0.00  0.00    +0.000 OA
BRANCH  29  31
ATOM     31  O   UNL     1      -4.814  13.996  23.861  0.00  0.00    +0.000 OA
BRANCH  31  33
ATOM     32  C   UNL     1      -5.138  15.614  22.161  0.00  0.00    +0.000 C 
ATOM     33  C   UNL     1      -5.632  15.120  23.509  0.00  0.00    +0.000 C 
ENDBRANCH  31  33
ENDBRANCH  29  31
ENDBRANCH  23  29
ENDBRANCH   1  26
TORSDOF 6
ENDMDL
MODEL 3
REMARK VINA RESULT:      -6.8      1.586      2.414
REMARK  Name = 
REMARK  10 active torsions:
REMARK  status: ('A' for Active; 'I' for Inactive)
REMARK    1  A    between atoms: C_1  and  C_2
REMARK    2  A    between atoms: C_2  and  O_3
REMARK    3  A    between atoms: O_3  and  C_4
REMARK    4  A    between atoms: C_4  and  C_6
REMARK    5  A    between atoms: C_9  and  N_10
REMARK    6  A    between atoms: C_14  and  C_15
REMARK    7  A    between atoms: C_17  and  C_18
REMARK    8  A    between atoms: N_19  and  C_20
REMARK    9  A    between atoms: C_26  and  C_27
REMARK   10  A    between atoms: N_30  and  C_31
REMARK                            x       y       z     vdW  Elec       q    Type
REMARK                         _______ _______ _______ _____ _____    ______ ____
ROOT
ATOM      1  N   UNL     1       0.234  10.874  21.949  0.00  0.00    +0.000 NA
ATOM      2  C   UNL     1       0.330  10.479  20.727  0.00  0.00    +0.000 C 
ATOM      3  S   UNL     1       1.506   9.193  20.433  0.00  0.00    +0.000 S 
ATOM      4  C   UNL     1       1.048   9.036  18.792  0.00  0.00    +0.000 C 
ATOM      5  C   UNL     1       1.537   8.245  17.825  0.00  0.00    +0.000 C 
ATOM      6  C   UNL     1      -0.004   9.992  18.467  0.00  0.00    +0.000 C 
ATOM      7  O   UNL     1      -0.540  10.054  17.359  0.00  0.00    +0.000 OA
ATOM      8  N   UNL     1      -0.305  10.797  19.541  0.00  0.00    +0.000 N 
ATOM      9  C   UNL     1      -1.244  11.871  19.263  0.00  0.00    +0.000 C 
ENDROOT
BRANCH   5  10
ATOM     10  C   UNL     1       2.565   7.266  17.905  0.00  0.00    +0.000 A 
ATOM     11  C   UNL     1       3.914   7.419  17.574  0.00  0.00    +0.000 A 
ATOM     12  C   UNL     1       4.546   6.219  17.802  0.00  0.00    +0.000 A 
ATOM     13  C   UNL     1       5.967   5.928  17.449  0.00  0.00    +0.000 C 
ATOM     14  N   UNL     1       3.605   5.311  18.308  0.00  0.00    +0.000 N 
ATOM     15  C   UNL     1       2.384   5.989  18.416  0.00  0.00    +0.000 A 
ATOM     16  C   UNL     1       1.129   5.457  19.048  0.00  0.00    +0.000 C 
BRANCH  14  17
ATOM     17  C   UNL     1       3.858   3.949  18.651  0.00  0.00    +0.000 A 
ATOM     18  C   UNL     1       3.437   2.900  17.833  0.00  0.00    +0.000 A 
ATOM     19  C   UNL     1       3.695   1.585  18.198  0.00  0.00    +0.000 A 
ATOM     20  C   UNL     1       4.406   1.353  19.361  0.00  0.00    +0.000 A 
ATOM     21  N   UNL     1       4.834   2.338  20.181  0.00  0.00    +0.000 NA
ATOM     22  C   UNL     1       4.533   3.608  19.816  0.00  0.00    +0.000 A 
ENDBRANCH  14  17
ENDBRANCH   5  10
BRANCH   1  26
ATOM     23  C   UNL     1      -2.586  13.491  23.619  0.00  0.00    +0.000 A 
ATOM     24  C   UNL     1      -2.870  12.138  23.497  0.00  0.00    +0.000 A 
ATOM     25  C   UNL     1      -1.884  11.276  23.075  0.00  0.00    +0.000 A 
ATOM     26  C   UNL     1      -0.710  11.752  22.481  0.00  0.00    +0.000 A 
ATOM     27  C   UNL     1      -0.434  13.118  22.576  0.00  0.00    +0.000 A 
ATOM     28  C   UNL     1      -1.353  13.990  23.185  0.00  0.00    +0.000 A 
BRANCH  23  29
ATOM     29  C   UNL     1      -3.636  14.305  24.272  0.00  0.00    +0.000 C 
ATOM     30  O   UNL     1      -4.819  14.218  23.991  0.00  0.00    +0.000 OA
BRANCH  29  31
ATOM     31  O   UNL     1      -3.068  15.157  25.141  0.00  0.00    +0.000 OA
BRANCH  31  33
ATOM     32  C   UNL     1      -2.446  17.324  24.414  0.00  0.00    +0.000 C 
ATOM     33  C   UNL     1      -3.564  16.497  25.022  0.00  0.00    +0.000 C 
ENDBRANCH  31  33
ENDBRANCH  29  31
ENDBRANCH  23  29
ENDBRANCH   1  26
TORSDOF 6
ENDMDL
MODEL 4
REMARK VINA RESULT:      -6.8      0.825      1.367
REMARK  Name = 
REMARK  10 active torsions:
REMARK  status: ('A' for Active; 'I' for Inactive)
REMARK    1  A    between atoms: C_1  and  C_2
REMARK    2  A    between atoms: C_2  and  O_3
REMARK    3  A    between atoms: O_3  and  C_4
REMARK    4  A    between atoms: C_4  and  C_6
REMARK    5  A    between atoms: C_9  and  N_10
REMARK    6  A    between atoms: C_14  and  C_15
REMARK    7  A    between atoms: C_17  and  C_18
REMARK    8  A    between atoms: N_19  and  C_20
REMARK    9  A    between atoms: C_26  and  C_27
REMARK   10  A    between atoms: N_30  and  C_31
REMARK                            x       y       z     vdW  Elec       q    Type
REMARK                         _______ _______ _______ _____ _____    ______ ____
ROOT
ATOM      1  N   UNL     1      -0.134  11.089  22.227  0.00  0.00    +0.000 NA
ATOM      2  C   UNL     1       0.085  10.646  21.038  0.00  0.00    +0.000 C 
ATOM      3  S   UNL     1       1.131   9.225  20.935  0.00  0.00    +0.000 S 
ATOM      4  C   UNL     1       0.893   9.069  19.247  0.00  0.00    +0.000 C 
ATOM      5  C   UNL     1       1.416   8.197  18.373  0.00  0.00    +0.000 C 
ATOM      6  C   UNL     1       0.017  10.128  18.761  0.00  0.00    +0.000 C 
ATOM      7  O   UNL     1      -0.347  10.216  17.587  0.00  0.00    +0.000 OA
ATOM      8  N   UNL     1      -0.335  10.997  19.768  0.00  0.00    +0.000 N 
ATOM      9  C   UNL     1      -1.092  12.162  19.343  0.00  0.00    +0.000 C 
ENDROOT
BRANCH   5  10
ATOM     10  C   UNL     1       2.299   7.110  18.615  0.00  0.00    +0.000 A 
ATOM     11  C   UNL     1       2.044   5.955  19.360  0.00  0.00    +0.000 A 
ATOM     12  C   UNL     1       3.176   5.174  19.334  0.00  0.00    +0.000 A 
ATOM     13  C   UNL     1       3.357   3.917  20.120  0.00  0.00    +0.000 C 
ATOM     14  N   UNL     1       4.140   5.817  18.546  0.00  0.00    +0.000 N 
ATOM     15  C   UNL     1       3.567   6.999  18.060  0.00  0.00    +0.000 A 
ATOM     16  C   UNL     1       4.179   7.933  17.057  0.00  0.00    +0.000 C 
BRANCH  14  17
ATOM     17  C   UNL     1       5.462   5.342  18.288  0.00  0.00    +0.000 A 
ATOM     18  C   UNL     1       5.802   4.760  17.066  0.00  0.00    +0.000 A 
ATOM     19  C   UNL     1       7.097   4.304  16.849  0.00  0.00    +0.000 A 
ATOM     20  C   UNL     1       8.032   4.477  17.853  0.00  0.00    +0.000 A 
ATOM     21  N   UNL     1       7.745   5.034  19.049  0.00  0.00    +0.000 NA
ATOM     22  C   UNL     1       6.465   5.435  19.244  0.00  0.00    +0.000 A 
ENDBRANCH  14  17
ENDBRANCH   5  10
BRANCH   1  26
ATOM     23  C   UNL     1      -2.825  14.069  23.437  0.00  0.00    +0.000 A 
ATOM     24  C   UNL     1      -3.213  12.737  23.425  0.00  0.00    +0.000 A 
ATOM     25  C   UNL     1      -2.278  11.763  23.158  0.00  0.00    +0.000 A 
ATOM     26  C   UNL     1      -1.033  12.085  22.605  0.00  0.00    +0.000 A 
ATOM     27  C   UNL     1      -0.650  13.428  22.588  0.00  0.00    +0.000 A 
ATOM     28  C   UNL     1      -1.530  14.426  23.045  0.00  0.00    +0.000 A 
BRANCH  23  29
ATOM     29  C   UNL     1      -3.842  15.023  23.933  0.00  0.00    +0.000 C 
ATOM     30  O   UNL     1      -4.999  14.710  24.154  0.00  0.00    +0.000 OA
BRANCH  29  31
ATOM     31  O   UNL     1      -3.299  16.247  24.032  0.00  0.00    +0.000 OA
BRANCH  31  33
ATOM     32  C   UNL     1      -1.846  16.887  25.791  0.00  0.00    +0.000 C 
ATOM     33  C   UNL     1      -3.299  16.758  25.373  0.00  0.00    +0.000 C 
ENDBRANCH  31  33
ENDBRANCH  29  31
ENDBRANCH  23  29
ENDBRANCH   1  26
TORSDOF 6
ENDMDL
MODEL 5
REMARK VINA RESULT:      -6.8      3.107      4.090
REMARK  Name = 
REMARK  10 active torsions:
REMARK  status: ('A' for Active; 'I' for Inactive)
REMARK    1  A    between atoms: C_1  and  C_2
REMARK    2  A    between atoms: C_2  and  O_3
REMARK    3  A    between atoms: O_3  and  C_4
REMARK    4  A    between atoms: C_4  and  C_6
REMARK    5  A    between atoms: C_9  and  N_10
REMARK    6  A    between atoms: C_14  and  C_15
REMARK    7  A    between atoms: C_17  and  C_18
REMARK    8  A    between atoms: N_19  and  C_20
REMARK    9  A    between atoms: C_26  and  C_27
REMARK   10  A    between atoms: N_30  and  C_31
REMARK                            x       y       z     vdW  Elec       q    Type
REMARK                         _______ _______ _______ _____ _____    ______ ____
ROOT
ATOM      1  N   UNL     1       0.559  11.380  18.458  0.00  0.00    +0.000 NA
ATOM      2  C   UNL     1       0.835  10.355  19.186  0.00  0.00    +0.000 C 
ATOM      3  S   UNL     1       1.509   8.967  18.324  0.00  0.00    +0.000 S 
ATOM      4  C   UNL     1       1.782   8.096  19.770  0.00  0.00    +0.000 C 
ATOM      5  C   UNL     1       2.266   6.858  19.961  0.00  0.00    +0.000 C 
ATOM      6  C   UNL     1       1.335   8.872  20.920  0.00  0.00    +0.000 C 
ATOM      7  O   UNL     1       1.460   8.486  22.084  0.00  0.00    +0.000 OA
ATOM      8  N   UNL     1       0.765  10.064  20.536  0.00  0.00    +0.000 N 
ATOM      9  C   UNL     1       0.166  10.836  21.611  0.00  0.00    +0.000 C 
ENDROOT
BRANCH   5  10
ATOM     10  C   UNL     1       2.735   5.924  18.999  0.00  0.00    +0.000 A 
ATOM     11  C   UNL     1       2.165   4.694  18.657  0.00  0.00    +0.000 A 
ATOM     12  C   UNL     1       2.948   4.118  17.684  0.00  0.00    +0.000 A 
ATOM     13  C   UNL     1       2.753   2.740  17.145  0.00  0.00    +0.000 C 
ATOM     14  N   UNL     1       3.999   4.996  17.384  0.00  0.00    +0.000 N 
ATOM     15  C   UNL     1       3.829   6.141  18.173  0.00  0.00    +0.000 A 
ATOM     16  C   UNL     1       4.632   7.406  18.082  0.00  0.00    +0.000 C 
BRANCH  14  17
ATOM     17  C   UNL     1       5.044   4.757  16.440  0.00  0.00    +0.000 A 
ATOM     18  C   UNL     1       4.775   4.593  15.081  0.00  0.00    +0.000 A 
ATOM     19  C   UNL     1       5.815   4.358  14.190  0.00  0.00    +0.000 A 
ATOM     20  C   UNL     1       7.107   4.331  14.680  0.00  0.00    +0.000 A 
ATOM     21  N   UNL     1       7.411   4.485  15.987  0.00  0.00    +0.000 NA
ATOM     22  C   UNL     1       6.372   4.676  16.836  0.00  0.00    +0.000 A 
ENDBRANCH  14  17
ENDBRANCH   5  10
BRANCH   1  26
ATOM     23  C   UNL     1      -0.617  15.210  19.699  0.00  0.00    +0.000 A 
ATOM     24  C   UNL     1       0.700  14.964  19.336  0.00  0.00    +0.000 A 
ATOM     25  C   UNL     1       1.036  13.741  18.802  0.00  0.00    +0.000 A 
ATOM     26  C   UNL     1       0.169  12.646  18.895  0.00  0.00    +0.000 A 
ATOM     27  C   UNL     1      -1.150  12.885  19.287  0.00  0.00    +0.000 A 
ATOM     28  C   UNL     1      -1.562  14.180  19.651  0.00  0.00    +0.000 A 
BRANCH  23  29
ATOM     29  C   UNL     1      -0.923  16.611  20.067  0.00  0.00    +0.000 C 
ATOM     30  O   UNL     1      -1.703  16.912  20.955  0.00  0.00    +0.000 OA
BRANCH  29  31
ATOM     31  O   UNL     1      -0.266  17.445  19.245  0.00  0.00    +0.000 OA
BRANCH  31  33
ATOM     32  C   UNL     1      -0.189  18.185  16.996  0.00  0.00    +0.000 C 
ATOM     33  C   UNL     1      -1.092  17.969  18.196  0.00  0.00    +0.000 C 
ENDBRANCH  31  33
ENDBRANCH  29  31
ENDBRANCH  23  29
ENDBRANCH   1  26
TORSDOF 6
ENDMDL
MODEL 6
REMARK VINA RESULT:      -6.8      2.300      3.191
REMARK  Name = 
REMARK  10 active torsions:
REMARK  status: ('A' for Active; 'I' for Inactive)
REMARK    1  A    between atoms: C_1  and  C_2
REMARK    2  A    between atoms: C_2  and  O_3
REMARK    3  A    between atoms: O_3  and  C_4
REMARK    4  A    between atoms: C_4  and  C_6
REMARK    5  A    between atoms: C_9  and  N_10
REMARK    6  A    between atoms: C_14  and  C_15
REMARK    7  A    between atoms: C_17  and  C_18
REMARK    8  A    between atoms: N_19  and  C_20
REMARK    9  A    between atoms: C_26  and  C_27
REMARK   10  A    between atoms: N_30  and  C_31
REMARK                            x       y       z     vdW  Elec       q    Type
REMARK                         _______ _______ _______ _____ _____    ______ ____
ROOT
ATOM      1  N   UNL     1      -1.638  12.067  19.857  0.00  0.00    +0.000 NA
ATOM      2  C   UNL     1      -1.012  11.181  20.551  0.00  0.00    +0.000 C 
ATOM      3  S   UNL     1      -0.061  10.018  19.621  0.00  0.00    +0.000 S 
ATOM      4  C   UNL     1       0.590   9.298  21.030  0.00  0.00    +0.000 C 
ATOM      5  C   UNL     1       1.420   8.253  21.167  0.00  0.00    +0.000 C 
ATOM      6  C   UNL     1       0.056   9.946  22.221  0.00  0.00    +0.000 C 
ATOM      7  O   UNL     1       0.400   9.643  23.365  0.00  0.00    +0.000 OA
ATOM      8  N   UNL     1      -0.863  10.918  21.900  0.00  0.00    +0.000 N 
ATOM      9  C   UNL     1      -1.548  11.518  23.032  0.00  0.00    +0.000 C 
ENDROOT
BRANCH   5  10
ATOM     10  C   UNL     1       2.038   7.463  20.159  0.00  0.00    +0.000 A 
ATOM     11  C   UNL     1       2.724   7.913  19.027  0.00  0.00    +0.000 A 
ATOM     12  C   UNL     1       3.154   6.810  18.326  0.00  0.00    +0.000 A 
ATOM     13  C   UNL     1       3.813   6.862  16.987  0.00  0.00    +0.000 C 
ATOM     14  N   UNL     1       2.768   5.660  19.027  0.00  0.00    +0.000 N 
ATOM     15  C   UNL     1       2.117   6.078  20.195  0.00  0.00    +0.000 A 
ATOM     16  C   UNL     1       1.662   5.195  21.321  0.00  0.00    +0.000 C 
BRANCH  14  17
ATOM     17  C   UNL     1       3.005   4.313  18.619  0.00  0.00    +0.000 A 
ATOM     18  C   UNL     1       2.182   3.677  17.689  0.00  0.00    +0.000 A 
ATOM     19  C   UNL     1       2.438   2.363  17.316  0.00  0.00    +0.000 A 
ATOM     20  C   UNL     1       3.540   1.729  17.859  0.00  0.00    +0.000 A 
ATOM     21  N   UNL     1       4.363   2.307  18.761  0.00  0.00    +0.000 NA
ATOM     22  C   UNL     1       4.065   3.576  19.132  0.00  0.00    +0.000 A 
ENDBRANCH  14  17
ENDBRANCH   5  10
BRANCH   1  26
ATOM     23  C   UNL     1      -3.715  15.386  21.363  0.00  0.00    +0.000 A 
ATOM     24  C   UNL     1      -4.407  14.266  20.921  0.00  0.00    +0.000 A 
ATOM     25  C   UNL     1      -3.707  13.138  20.560  0.00  0.00    +0.000 A 
ATOM     26  C   UNL     1      -2.326  13.182  20.335  0.00  0.00    +0.000 A 
ATOM     27  C   UNL     1      -1.629  14.319  20.752  0.00  0.00    +0.000 A 
ATOM     28  C   UNL     1      -2.317  15.412  21.309  0.00  0.00    +0.000 A 
BRANCH  23  29
ATOM     29  C   UNL     1      -4.552  16.471  21.922  0.00  0.00    +0.000 C 
ATOM     30  O   UNL     1      -4.536  17.613  21.496  0.00  0.00    +0.000 OA
BRANCH  29  31
ATOM     31  O   UNL     1      -5.250  16.004  22.970  0.00  0.00    +0.000 OA
BRANCH  31  33
ATOM     32  C   UNL     1      -4.963  17.266  24.954  0.00  0.00    +0.000 C 
ATOM     33  C   UNL     1      -4.509  16.031  24.198  0.00  0.00    +0.000 C 
ENDBRANCH  31  33
ENDBRANCH  29  31
ENDBRANCH  23  29
ENDBRANCH   1  26
TORSDOF 6
ENDMDL
MODEL 7
REMARK VINA RESULT:      -6.7      2.375      3.499
REMARK  Name = 
REMARK  10 active torsions:
REMARK  status: ('A' for Active; 'I' for Inactive)
REMARK    1  A    between atoms: C_1  and  C_2
REMARK    2  A    between atoms: C_2  and  O_3
REMARK    3  A    between atoms: O_3  and  C_4
REMARK    4  A    between atoms: C_4  and  C_6
REMARK    5  A    between atoms: C_9  and  N_10
REMARK    6  A    between atoms: C_14  and  C_15
REMARK    7  A    between atoms: C_17  and  C_18
REMARK    8  A    between atoms: N_19  and  C_20
REMARK    9  A    between atoms: C_26  and  C_27
REMARK   10  A    between atoms: N_30  and  C_31
REMARK                            x       y       z     vdW  Elec       q    Type
REMARK                         _______ _______ _______ _____ _____    ______ ____
ROOT
ATOM      1  N   UNL     1      -1.793  12.090  19.900  0.00  0.00    +0.000 NA
ATOM      2  C   UNL     1      -1.126  11.224  20.581  0.00  0.00    +0.000 C 
ATOM      3  S   UNL     1      -0.177  10.076  19.629  0.00  0.00    +0.000 S 
ATOM      4  C   UNL     1       0.533   9.381  21.023  0.00  0.00    +0.000 C 
ATOM      5  C   UNL     1       1.391   8.357  21.142  0.00  0.00    +0.000 C 
ATOM      6  C   UNL     1       0.022  10.026  22.225  0.00  0.00    +0.000 C 
ATOM      7  O   UNL     1       0.407   9.740  23.360  0.00  0.00    +0.000 OA
ATOM      8  N   UNL     1      -0.930  10.974  21.926  0.00  0.00    +0.000 N 
ATOM      9  C   UNL     1      -1.593  11.567  23.075  0.00  0.00    +0.000 C 
ENDROOT
BRANCH   5  10
ATOM     10  C   UNL     1       1.996   7.574  20.121  0.00  0.00    +0.000 A 
ATOM     11  C   UNL     1       2.670   8.031  18.984  0.00  0.00    +0.000 A 
ATOM     12  C   UNL     1       3.089   6.933  18.270  0.00  0.00    +0.000 A 
ATOM     13  C   UNL     1       3.732   6.993  16.923  0.00  0.00    +0.000 C 
ATOM     14  N   UNL     1       2.710   5.778  18.967  0.00  0.00    +0.000 N 
ATOM     15  C   UNL     1       2.074   6.189  20.146  0.00  0.00    +0.000 A 
ATOM     16  C   UNL     1       1.631   5.297  21.270  0.00  0.00    +0.000 C 
BRANCH  14  17
ATOM     17  C   UNL     1       2.941   4.433  18.546  0.00  0.00    +0.000 A 
ATOM     18  C   UNL     1       4.027   3.697  19.022  0.00  0.00    +0.000 A 
ATOM     19  C   UNL     1       4.225   2.391  18.588  0.00  0.00    +0.000 A 
ATOM     20  C   UNL     1       3.305   1.842  17.715  0.00  0.00    +0.000 A 
ATOM     21  N   UNL     1       2.240   2.519  17.231  0.00  0.00    +0.000 NA
ATOM     22  C   UNL     1       2.096   3.802  17.644  0.00  0.00    +0.000 A 
ENDBRANCH  14  17
ENDBRANCH   5  10
BRANCH   1  26
ATOM     23  C   UNL     1      -3.887  15.440  21.308  0.00  0.00    +0.000 A 
ATOM     24  C   UNL     1      -2.503  15.470  21.205  0.00  0.00    +0.000 A 
ATOM     25  C   UNL     1      -1.846  14.415  20.614  0.00  0.00    +0.000 A 
ATOM     26  C   UNL     1      -2.491  13.193  20.391  0.00  0.00    +0.000 A 
ATOM     27  C   UNL     1      -3.882  13.151  20.521  0.00  0.00    +0.000 A 
ATOM     28  C   UNL     1      -4.593  14.290  20.940  0.00  0.00    +0.000 A 
BRANCH  23  29
ATOM     29  C   UNL     1      -4.518  16.699  21.765  0.00  0.00    +0.000 C 
ATOM     30  O   UNL     1      -5.368  17.291  21.123  0.00  0.00    +0.000 OA
BRANCH  29  31
ATOM     31  O   UNL     1      -3.965  17.081  22.928  0.00  0.00    +0.000 OA
BRANCH  31  33
ATOM     32  C   UNL     1      -3.420  16.162  25.043  0.00  0.00    +0.000 C 
ATOM     33  C   UNL     1      -4.551  16.438  24.069  0.00  0.00    +0.000 C 
ENDBRANCH  31  33
ENDBRANCH  29  31
ENDBRANCH  23  29
ENDBRANCH   1  26
TORSDOF 6
ENDMDL
MODEL 8
REMARK VINA RESULT:      -6.7      0.941      1.356
REMARK  Name = 
REMARK  10 active torsions:
REMARK  status: ('A' for Active; 'I' for Inactive)
REMARK    1  A    between atoms: C_1  and  C_2
REMARK    2  A    between atoms: C_2  and  O_3
REMARK    3  A    between atoms: O_3  and  C_4
REMARK    4  A    between atoms: C_4  and  C_6
REMARK    5  A    between atoms: C_9  and  N_10
REMARK    6  A    between atoms: C_14  and  C_15
REMARK    7  A    between atoms: C_17  and  C_18
REMARK    8  A    between atoms: N_19  and  C_20
REMARK    9  A    between atoms: C_26  and  C_27
REMARK   10  A    between atoms: N_30  and  C_31
REMARK                            x       y       z     vdW  Elec       q    Type
REMARK                         _______ _______ _______ _____ _____    ______ ____
ROOT
ATOM      1  N   UNL     1      -0.043  11.170  22.351  0.00  0.00    +0.000 NA
ATOM      2  C   UNL     1       0.136  10.713  21.160  0.00  0.00    +0.000 C 
ATOM      3  S   UNL     1       1.175   9.288  21.040  0.00  0.00    +0.000 S 
ATOM      4  C   UNL     1       0.881   9.113  19.363  0.00  0.00    +0.000 C 
ATOM      5  C   UNL     1       1.373   8.229  18.482  0.00  0.00    +0.000 C 
ATOM      6  C   UNL     1      -0.007  10.168  18.893  0.00  0.00    +0.000 C 
ATOM      7  O   UNL     1      -0.410  10.244  17.731  0.00  0.00    +0.000 OA
ATOM      8  N   UNL     1      -0.325  11.050  19.901  0.00  0.00    +0.000 N 
ATOM      9  C   UNL     1      -1.092  12.212  19.486  0.00  0.00    +0.000 C 
ENDROOT
BRANCH   5  10
ATOM     10  C   UNL     1       2.262   7.142  18.708  0.00  0.00    +0.000 A 
ATOM     11  C   UNL     1       2.029   5.998  19.476  0.00  0.00    +0.000 A 
ATOM     12  C   UNL     1       3.158   5.214  19.422  0.00  0.00    +0.000 A 
ATOM     13  C   UNL     1       3.362   3.966  20.217  0.00  0.00    +0.000 C 
ATOM     14  N   UNL     1       4.096   5.844  18.594  0.00  0.00    +0.000 N 
ATOM     15  C   UNL     1       3.510   7.021  18.113  0.00  0.00    +0.000 A 
ATOM     16  C   UNL     1       4.090   7.941  17.078  0.00  0.00    +0.000 C 
BRANCH  14  17
ATOM     17  C   UNL     1       5.407   5.361  18.298  0.00  0.00    +0.000 A 
ATOM     18  C   UNL     1       5.708   4.775  17.068  0.00  0.00    +0.000 A 
ATOM     19  C   UNL     1       6.994   4.312  16.814  0.00  0.00    +0.000 A 
ATOM     20  C   UNL     1       7.959   4.483  17.789  0.00  0.00    +0.000 A 
ATOM     21  N   UNL     1       7.711   5.046  18.991  0.00  0.00    +0.000 NA
ATOM     22  C   UNL     1       6.439   5.454  19.223  0.00  0.00    +0.000 A 
ENDBRANCH  14  17
ENDBRANCH   5  10
BRANCH   1  26
ATOM     23  C   UNL     1      -2.711  14.209  23.464  0.00  0.00    +0.000 A 
ATOM     24  C   UNL     1      -1.385  14.507  23.184  0.00  0.00    +0.000 A 
ATOM     25  C   UNL     1      -0.560  13.523  22.689  0.00  0.00    +0.000 A 
ATOM     26  C   UNL     1      -0.927  12.173  22.746  0.00  0.00    +0.000 A 
ATOM     27  C   UNL     1      -2.254  11.867  23.055  0.00  0.00    +0.000 A 
ATOM     28  C   UNL     1      -3.166  12.889  23.375  0.00  0.00    +0.000 A 
BRANCH  23  29
ATOM     29  C   UNL     1      -3.568  15.370  23.793  0.00  0.00    +0.000 C 
ATOM     30  O   UNL     1      -3.853  15.686  24.935  0.00  0.00    +0.000 OA
BRANCH  29  31
ATOM     31  O   UNL     1      -4.002  15.943  22.658  0.00  0.00    +0.000 OA
BRANCH  31  33
ATOM     32  C   UNL     1      -3.251  17.483  21.022  0.00  0.00    +0.000 C 
ATOM     33  C   UNL     1      -3.545  17.293  22.499  0.00  0.00    +0.000 C 
ENDBRANCH  31  33
ENDBRANCH  29  31
ENDBRANCH  23  29
ENDBRANCH   1  26
TORSDOF 6
ENDMDL
MODEL 9
REMARK VINA RESULT:      -6.6      2.520      3.417
REMARK  Name = 
REMARK  10 active torsions:
REMARK  status: ('A' for Active; 'I' for Inactive)
REMARK    1  A    between atoms: C_1  and  C_2
REMARK    2  A    between atoms: C_2  and  O_3
REMARK    3  A    between atoms: O_3  and  C_4
REMARK    4  A    between atoms: C_4  and  C_6
REMARK    5  A    between atoms: C_9  and  N_10
REMARK    6  A    between atoms: C_14  and  C_15
REMARK    7  A    between atoms: C_17  and  C_18
REMARK    8  A    between atoms: N_19  and  C_20
REMARK    9  A    between atoms: C_26  and  C_27
REMARK   10  A    between atoms: N_30  and  C_31
REMARK                            x       y       z     vdW  Elec       q    Type
REMARK                         _______ _______ _______ _____ _____    ______ ____
ROOT
ATOM      1  N   UNL     1      -1.740  12.060  19.763  0.00  0.00    +0.000 NA
ATOM      2  C   UNL     1      -1.083  11.205  20.468  0.00  0.00    +0.000 C 
ATOM      3  S   UNL     1      -0.128  10.035  19.551  0.00  0.00    +0.000 S 
ATOM      4  C   UNL     1       0.564   9.367  20.966  0.00  0.00    +0.000 C 
ATOM      5  C   UNL     1       1.418   8.342  21.115  0.00  0.00    +0.000 C 
ATOM      6  C   UNL     1       0.042  10.037  22.149  0.00  0.00    +0.000 C 
ATOM      7  O   UNL     1       0.413   9.772  23.294  0.00  0.00    +0.000 OA
ATOM      8  N   UNL     1      -0.903  10.982  21.821  0.00  0.00    +0.000 N 
ATOM      9  C   UNL     1      -1.578  11.600  22.950  0.00  0.00    +0.000 C 
ENDROOT
BRANCH   5  10
ATOM     10  C   UNL     1       2.032   7.537  20.117  0.00  0.00    +0.000 A 
ATOM     11  C   UNL     1       2.723   7.969  18.981  0.00  0.00    +0.000 A 
ATOM     12  C   UNL     1       3.146   6.856  18.293  0.00  0.00    +0.000 A 
ATOM     13  C   UNL     1       3.807   6.888  16.954  0.00  0.00    +0.000 C 
ATOM     14  N   UNL     1       2.750   5.717  19.006  0.00  0.00    +0.000 N 
ATOM     15  C   UNL     1       2.100   6.152  20.168  0.00  0.00    +0.000 A 
ATOM     16  C   UNL     1       1.637   5.284  21.302  0.00  0.00    +0.000 C 
BRANCH  14  17
ATOM     17  C   UNL     1       2.978   4.363  18.613  0.00  0.00    +0.000 A 
ATOM     18  C   UNL     1       2.069   3.675  17.808  0.00  0.00    +0.000 A 
ATOM     19  C   UNL     1       2.319   2.356  17.447  0.00  0.00    +0.000 A 
ATOM     20  C   UNL     1       3.496   1.770  17.872  0.00  0.00    +0.000 A 
ATOM     21  N   UNL     1       4.403   2.400  18.650  0.00  0.00    +0.000 NA
ATOM     22  C   UNL     1       4.113   3.672  19.016  0.00  0.00    +0.000 A 
ENDBRANCH  14  17
ENDBRANCH   5  10
BRANCH   1  26
ATOM     23  C   UNL     1      -3.852  15.378  21.219  0.00  0.00    +0.000 A 
ATOM     24  C   UNL     1      -4.529  14.229  20.834  0.00  0.00    +0.000 A 
ATOM     25  C   UNL     1      -3.813  13.106  20.489  0.00  0.00    +0.000 A 
ATOM     26  C   UNL     1      -2.440  13.174  20.224  0.00  0.00    +0.000 A 
ATOM     27  C   UNL     1      -1.759  14.339  20.584  0.00  0.00    +0.000 A 
ATOM     28  C   UNL     1      -2.457  15.434  21.125  0.00  0.00    +0.000 A 
BRANCH  23  29
ATOM     29  C   UNL     1      -4.699  16.462  21.766  0.00  0.00    +0.000 C 
ATOM     30  O   UNL     1      -5.616  16.263  22.544  0.00  0.00    +0.000 OA
BRANCH  29  31
ATOM     31  O   UNL     1      -4.329  17.635  21.228  0.00  0.00    +0.000 OA
BRANCH  31  33
ATOM     32  C   UNL     1      -3.940  18.367  19.009  0.00  0.00    +0.000 C 
ATOM     33  C   UNL     1      -5.005  17.928  19.997  0.00  0.00    +0.000 C 
ENDBRANCH  31  33
ENDBRANCH  29  31
ENDBRANCH  23  29
ENDBRANCH   1  26
TORSDOF 6
ENDMDL
