MODEL 1
REMARK VINA RESULT:      -8.5      0.000      0.000
REMARK  Name = 
REMARK  1 active torsions:
REMARK  status: ('A' for Active; 'I' for Inactive)
REMARK    1  A    between atoms: C_5  and  C_6
REMARK                            x       y       z     vdW  Elec       q    Type
REMARK                         _______ _______ _______ _____ _____    ______ ____
ROOT
ATOM      1  C   UNL     1       2.128   6.845  20.134  0.00  0.00    +0.000 A 
ATOM      2  N   UNL     1       3.080   6.684  19.194  0.00  0.00    +0.000 NA
ATOM      3  C   UNL     1       3.685   5.475  19.008  0.00  0.00    +0.000 A 
ATOM      4  N   UNL     1       4.647   5.365  18.027  0.00  0.00    +0.000 N 
ATOM      5  C   UNL     1       5.727   4.396  18.131  0.00  0.00    +0.000 C 
ATOM      6  C   UNL     1       7.075   5.106  18.270  0.00  0.00    +0.000 C 
ATOM      7  C   UNL     1       7.266   6.167  17.187  0.00  0.00    +0.000 C 
ATOM      8  C   UNL     1       6.086   7.138  17.153  0.00  0.00    +0.000 C 
ATOM      9  C   UNL     1       4.756   6.404  17.013  0.00  0.00    +0.000 C 
ATOM     10  C   UNL     1       3.246   4.417  19.846  0.00  0.00    +0.000 A 
ATOM     11  N   UNL     1       3.579   3.080  19.954  0.00  0.00    +0.000 NA
ATOM     12  C   UNL     1       2.850   2.616  20.948  0.00  0.00    +0.000 A 
ATOM     13  N   UNL     1       2.035   3.575  21.464  0.00  0.00    +0.000 N 
ATOM     14  C   UNL     1       2.269   4.731  20.776  0.00  0.00    +0.000 A 
ATOM     15  N   UNL     1       1.670   5.903  20.983  0.00  0.00    +0.000 NA
ATOM     16  H   UNL     1       1.379   3.478  22.226  0.00  0.00    +0.000 HD
ENDROOT
BRANCH   1  21
ATOM     17 CL   UNL     1      -0.676  12.163  20.361  0.00  0.00    +0.000 Cl
ATOM     18  C   UNL     1       0.132  10.635  20.349  0.00  0.00    +0.000 A 
ATOM     19  C   UNL     1       0.773  10.251  19.168  0.00  0.00    +0.000 A 
ATOM     20  C   UNL     1       1.439   9.027  19.103  0.00  0.00    +0.000 A 
ATOM     21  C   UNL     1       1.469   8.154  20.205  0.00  0.00    +0.000 A 
ATOM     22  C   UNL     1       0.815   8.564  21.381  0.00  0.00    +0.000 A 
ATOM     23  C   UNL     1       0.157   9.791  21.459  0.00  0.00    +0.000 A 
ATOM     24 CL   UNL     1      -0.603  10.203  22.956  0.00  0.00    +0.000 Cl
ENDBRANCH   1  21
TORSDOF 1
ENDMDL
MODEL 2
REMARK VINA RESULT:      -8.4      1.501      3.886
REMARK  Name = 
REMARK  1 active torsions:
REMARK  status: ('A' for Active; 'I' for Inactive)
REMARK    1  A    between atoms: C_5  and  C_6
REMARK                            x       y       z     vdW  Elec       q    Type
REMARK                         _______ _______ _______ _____ _____    ______ ____
ROOT
ATOM      1  C   UNL     1       2.664   7.526  18.395  0.00  0.00    +0.000 A 
ATOM      2  N   UNL     1       2.529   6.297  18.929  0.00  0.00    +0.000 NA
ATOM      3  C   UNL     1       3.333   5.268  18.534  0.00  0.00    +0.000 A 
ATOM      4  N   UNL     1       3.157   4.033  19.120  0.00  0.00    +0.000 N 
ATOM      5  C   UNL     1       3.484   2.805  18.411  0.00  0.00    +0.000 C 
ATOM      6  C   UNL     1       2.219   1.984  18.147  0.00  0.00    +0.000 C 
ATOM      7  C   UNL     1       1.398   1.791  19.422  0.00  0.00    +0.000 C 
ATOM      8  C   UNL     1       1.104   3.131  20.095  0.00  0.00    +0.000 C 
ATOM      9  C   UNL     1       2.381   3.927  20.347  0.00  0.00    +0.000 C 
ATOM     10  C   UNL     1       4.310   5.575  17.552  0.00  0.00    +0.000 A 
ATOM     11  N   UNL     1       5.300   4.843  16.924  0.00  0.00    +0.000 NA
ATOM     12  C   UNL     1       5.866   5.675  16.075  0.00  0.00    +0.000 A 
ATOM     13  N   UNL     1       5.318   6.918  16.147  0.00  0.00    +0.000 N 
ATOM     14  C   UNL     1       4.325   6.878  17.084  0.00  0.00    +0.000 A 
ATOM     15  N   UNL     1       3.546   7.896  17.445  0.00  0.00    +0.000 NA
ATOM     16  H   UNL     1       5.572   7.734  15.607  0.00  0.00    +0.000 HD
ENDROOT
BRANCH   1  21
ATOM     17 CL   UNL     1      -0.914  11.842  20.579  0.00  0.00    +0.000 Cl
ATOM     18  C   UNL     1       0.128  10.590  20.001  0.00  0.00    +0.000 A 
ATOM     19  C   UNL     1       0.549  10.660  18.670  0.00  0.00    +0.000 A 
ATOM     20  C   UNL     1       1.390   9.675  18.152  0.00  0.00    +0.000 A 
ATOM     21  C   UNL     1       1.817   8.592  18.941  0.00  0.00    +0.000 A 
ATOM     22  C   UNL     1       1.378   8.544  20.277  0.00  0.00    +0.000 A 
ATOM     23  C   UNL     1       0.547   9.531  20.807  0.00  0.00    +0.000 A 
ATOM     24 CL   UNL     1       0.077   9.384  22.464  0.00  0.00    +0.000 Cl
ENDBRANCH   1  21
TORSDOF 1
ENDMDL
MODEL 3
REMARK VINA RESULT:      -7.9      0.840      1.567
REMARK  Name = 
REMARK  1 active torsions:
REMARK  status: ('A' for Active; 'I' for Inactive)
REMARK    1  A    between atoms: C_5  and  C_6
REMARK                            x       y       z     vdW  Elec       q    Type
REMARK                         _______ _______ _______ _____ _____    ______ ____
ROOT
ATOM      1  C   UNL     1       2.129   6.667  20.028  0.00  0.00    +0.000 A 
ATOM      2  N   UNL     1       3.096   6.628  19.091  0.00  0.00    +0.000 NA
ATOM      3  C   UNL     1       3.597   5.438  18.649  0.00  0.00    +0.000 A 
ATOM      4  N   UNL     1       4.580   5.456  17.683  0.00  0.00    +0.000 N 
ATOM      5  C   UNL     1       5.564   4.389  17.583  0.00  0.00    +0.000 C 
ATOM      6  C   UNL     1       6.965   4.919  17.898  0.00  0.00    +0.000 C 
ATOM      7  C   UNL     1       7.289   6.171  17.083  0.00  0.00    +0.000 C 
ATOM      8  C   UNL     1       6.204   7.233  17.249  0.00  0.00    +0.000 C 
ATOM      9  C   UNL     1       4.819   6.679  16.928  0.00  0.00    +0.000 C 
ATOM     10  C   UNL     1       3.035   4.268  19.221  0.00  0.00    +0.000 A 
ATOM     11  N   UNL     1       3.242   2.914  19.032  0.00  0.00    +0.000 NA
ATOM     12  C   UNL     1       2.439   2.314  19.886  0.00  0.00    +0.000 A 
ATOM     13  N   UNL     1       1.696   3.208  20.592  0.00  0.00    +0.000 N 
ATOM     14  C   UNL     1       2.057   4.460  20.183  0.00  0.00    +0.000 A 
ATOM     15  N   UNL     1       1.559   5.608  20.638  0.00  0.00    +0.000 NA
ATOM     16  H   UNL     1       1.006   3.008  21.302  0.00  0.00    +0.000 HD
ENDROOT
BRANCH   1  21
ATOM     17 CL   UNL     1       0.030  12.104  21.522  0.00  0.00    +0.000 Cl
ATOM     18  C   UNL     1       0.620  10.552  21.042  0.00  0.00    +0.000 A 
ATOM     19  C   UNL     1       0.724   9.565  22.027  0.00  0.00    +0.000 A 
ATOM     20  C   UNL     1       1.196   8.295  21.695  0.00  0.00    +0.000 A 
ATOM     21  C   UNL     1       1.589   7.984  20.380  0.00  0.00    +0.000 A 
ATOM     22  C   UNL     1       1.476   8.995  19.408  0.00  0.00    +0.000 A 
ATOM     23  C   UNL     1       0.994  10.264  19.729  0.00  0.00    +0.000 A 
ATOM     24 CL   UNL     1       0.883  11.428  18.457  0.00  0.00    +0.000 Cl
ENDBRANCH   1  21
TORSDOF 1
ENDMDL
MODEL 4
REMARK VINA RESULT:      -7.9      1.528      4.111
REMARK  Name = 
REMARK  1 active torsions:
REMARK  status: ('A' for Active; 'I' for Inactive)
REMARK    1  A    between atoms: C_5  and  C_6
REMARK                            x       y       z     vdW  Elec       q    Type
REMARK                         _______ _______ _______ _____ _____    ______ ____
ROOT
ATOM      1  C   UNL     1       2.526   7.563  18.685  0.00  0.00    +0.000 A 
ATOM      2  N   UNL     1       2.462   6.300  19.148  0.00  0.00    +0.000 NA
ATOM      3  C   UNL     1       3.232   5.313  18.604  0.00  0.00    +0.000 A 
ATOM      4  N   UNL     1       3.132   4.040  19.122  0.00  0.00    +0.000 N 
ATOM      5  C   UNL     1       3.395   2.866  18.303  0.00  0.00    +0.000 C 
ATOM      6  C   UNL     1       2.119   2.042  18.119  0.00  0.00    +0.000 C 
ATOM      7  C   UNL     1       1.439   1.752  19.457  0.00  0.00    +0.000 C 
ATOM      8  C   UNL     1       1.204   3.040  20.245  0.00  0.00    +0.000 C 
ATOM      9  C   UNL     1       2.491   3.841  20.414  0.00  0.00    +0.000 C 
ATOM     10  C   UNL     1       4.096   5.701  17.547  0.00  0.00    +0.000 A 
ATOM     11  N   UNL     1       5.022   5.029  16.772  0.00  0.00    +0.000 NA
ATOM     12  C   UNL     1       5.486   5.924  15.925  0.00  0.00    +0.000 A 
ATOM     13  N   UNL     1       4.934   7.149  16.136  0.00  0.00    +0.000 N 
ATOM     14  C   UNL     1       4.047   7.031  17.167  0.00  0.00    +0.000 A 
ATOM     15  N   UNL     1       3.299   8.010  17.674  0.00  0.00    +0.000 NA
ATOM     16  H   UNL     1       5.121   8.003  15.627  0.00  0.00    +0.000 HD
ENDROOT
BRANCH   1  21
ATOM     17 CL   UNL     1      -0.631  11.759  21.623  0.00  0.00    +0.000 Cl
ATOM     18  C   UNL     1       0.261  10.575  20.733  0.00  0.00    +0.000 A 
ATOM     19  C   UNL     1       0.593   9.386  21.388  0.00  0.00    +0.000 A 
ATOM     20  C   UNL     1       1.312   8.397  20.718  0.00  0.00    +0.000 A 
ATOM     21  C   UNL     1       1.730   8.576  19.386  0.00  0.00    +0.000 A 
ATOM     22  C   UNL     1       1.384   9.782  18.749  0.00  0.00    +0.000 A 
ATOM     23  C   UNL     1       0.654  10.771  19.409  0.00  0.00    +0.000 A 
ATOM     24 CL   UNL     1       0.271  12.209  18.530  0.00  0.00    +0.000 Cl
ENDBRANCH   1  21
TORSDOF 1
ENDMDL
MODEL 5
REMARK VINA RESULT:      -7.7      1.491      4.057
REMARK  Name = 
REMARK  1 active torsions:
REMARK  status: ('A' for Active; 'I' for Inactive)
REMARK    1  A    between atoms: C_5  and  C_6
REMARK                            x       y       z     vdW  Elec       q    Type
REMARK                         _______ _______ _______ _____ _____    ______ ____
ROOT
ATOM      1  C   UNL     1       2.027   7.791  19.500  0.00  0.00    +0.000 A 
ATOM      2  N   UNL     1       2.101   6.508  19.904  0.00  0.00    +0.000 NA
ATOM      3  C   UNL     1       2.889   5.609  19.246  0.00  0.00    +0.000 A 
ATOM      4  N   UNL     1       2.934   4.311  19.708  0.00  0.00    +0.000 N 
ATOM      5  C   UNL     1       3.207   3.198  18.812  0.00  0.00    +0.000 C 
ATOM      6  C   UNL     1       1.986   2.283  18.704  0.00  0.00    +0.000 C 
ATOM      7  C   UNL     1       1.457   1.884  20.082  0.00  0.00    +0.000 C 
ATOM      8  C   UNL     1       1.200   3.116  20.950  0.00  0.00    +0.000 C 
ATOM      9  C   UNL     1       2.434   4.009  21.041  0.00  0.00    +0.000 C 
ATOM     10  C   UNL     1       3.619   6.108  18.136  0.00  0.00    +0.000 A 
ATOM     11  N   UNL     1       4.517   5.545  17.248  0.00  0.00    +0.000 NA
ATOM     12  C   UNL     1       4.830   6.509  16.408  0.00  0.00    +0.000 A 
ATOM     13  N   UNL     1       4.210   7.676  16.727  0.00  0.00    +0.000 N 
ATOM     14  C   UNL     1       3.434   7.445  17.827  0.00  0.00    +0.000 A 
ATOM     15  N   UNL     1       2.666   8.339  18.446  0.00  0.00    +0.000 NA
ATOM     16  H   UNL     1       4.284   8.562  16.246  0.00  0.00    +0.000 HD
ENDROOT
BRANCH   1  21
ATOM     17 CL   UNL     1      -1.149  11.612  22.892  0.00  0.00    +0.000 Cl
ATOM     18  C   UNL     1      -0.265  10.529  21.875  0.00  0.00    +0.000 A 
ATOM     19  C   UNL     1       0.406   9.467  22.488  0.00  0.00    +0.000 A 
ATOM     20  C   UNL     1       1.136   8.565  21.715  0.00  0.00    +0.000 A 
ATOM     21  C   UNL     1       1.226   8.707  20.319  0.00  0.00    +0.000 A 
ATOM     22  C   UNL     1       0.542   9.785  19.726  0.00  0.00    +0.000 A 
ATOM     23  C   UNL     1      -0.200  10.685  20.491  0.00  0.00    +0.000 A 
ATOM     24 CL   UNL     1      -1.012  11.966  19.662  0.00  0.00    +0.000 Cl
ENDBRANCH   1  21
TORSDOF 1
ENDMDL
MODEL 6
REMARK VINA RESULT:      -7.6      2.159      4.226
REMARK  Name = 
REMARK  1 active torsions:
REMARK  status: ('A' for Active; 'I' for Inactive)
REMARK    1  A    between atoms: C_5  and  C_6
REMARK                            x       y       z     vdW  Elec       q    Type
REMARK                         _______ _______ _______ _____ _____    ______ ____
ROOT
ATOM      1  C   UNL     1       2.649   7.994  17.899  0.00  0.00    +0.000 A 
ATOM      2  N   UNL     1       2.452   6.936  18.709  0.00  0.00    +0.000 NA
ATOM      3  C   UNL     1       3.245   5.828  18.621  0.00  0.00    +0.000 A 
ATOM      4  N   UNL     1       3.005   4.778  19.481  0.00  0.00    +0.000 N 
ATOM      5  C   UNL     1       3.329   3.408  19.112  0.00  0.00    +0.000 C 
ATOM      6  C   UNL     1       2.056   2.569  18.988  0.00  0.00    +0.000 C 
ATOM      7  C   UNL     1       1.168   2.708  20.225  0.00  0.00    +0.000 C 
ATOM      8  C   UNL     1       0.881   4.176  20.534  0.00  0.00    +0.000 C 
ATOM      9  C   UNL     1       2.167   4.989  20.653  0.00  0.00    +0.000 C 
ATOM     10  C   UNL     1       4.277   5.870  17.648  0.00  0.00    +0.000 A 
ATOM     11  N   UNL     1       5.275   4.990  17.273  0.00  0.00    +0.000 NA
ATOM     12  C   UNL     1       5.905   5.579  16.278  0.00  0.00    +0.000 A 
ATOM     13  N   UNL     1       5.390   6.810  16.014  0.00  0.00    +0.000 N 
ATOM     14  C   UNL     1       4.352   7.017  16.877  0.00  0.00    +0.000 A 
ATOM     15  N   UNL     1       3.586   8.105  16.936  0.00  0.00    +0.000 NA
ATOM     16  H   UNL     1       5.694   7.464  15.306  0.00  0.00    +0.000 HD
ENDROOT
BRANCH   1  21
ATOM     17 CL   UNL     1      -0.777  12.877  18.689  0.00  0.00    +0.000 Cl
ATOM     18  C   UNL     1       0.166  11.444  18.474  0.00  0.00    +0.000 A 
ATOM     19  C   UNL     1       1.555  11.562  18.563  0.00  0.00    +0.000 A 
ATOM     20  C   UNL     1       2.363  10.438  18.396  0.00  0.00    +0.000 A 
ATOM     21  C   UNL     1       1.808   9.175  18.121  0.00  0.00    +0.000 A 
ATOM     22  C   UNL     1       0.406   9.083  18.036  0.00  0.00    +0.000 A 
ATOM     23  C   UNL     1      -0.410  10.200  18.213  0.00  0.00    +0.000 A 
ATOM     24 CL   UNL     1      -2.119   9.974  18.100  0.00  0.00    +0.000 Cl
ENDBRANCH   1  21
TORSDOF 1
ENDMDL
MODEL 7
REMARK VINA RESULT:      -7.4      1.646      3.988
REMARK  Name = 
REMARK  1 active torsions:
REMARK  status: ('A' for Active; 'I' for Inactive)
REMARK    1  A    between atoms: C_5  and  C_6
REMARK                            x       y       z     vdW  Elec       q    Type
REMARK                         _______ _______ _______ _____ _____    ______ ____
ROOT
ATOM      1  C   UNL     1       2.438   7.859  18.171  0.00  0.00    +0.000 A 
ATOM      2  N   UNL     1       2.359   6.775  18.968  0.00  0.00    +0.000 NA
ATOM      3  C   UNL     1       3.292   5.782  18.897  0.00  0.00    +0.000 A 
ATOM      4  N   UNL     1       3.166   4.700  19.742  0.00  0.00    +0.000 N 
ATOM      5  C   UNL     1       3.678   3.389  19.374  0.00  0.00    +0.000 C 
ATOM      6  C   UNL     1       2.530   2.391  19.206  0.00  0.00    +0.000 C 
ATOM      7  C   UNL     1       1.596   2.400  20.416  0.00  0.00    +0.000 C 
ATOM      8  C   UNL     1       1.110   3.815  20.726  0.00  0.00    +0.000 C 
ATOM      9  C   UNL     1       2.274   4.788  20.889  0.00  0.00    +0.000 C 
ATOM     10  C   UNL     1       4.338   5.968  17.956  0.00  0.00    +0.000 A 
ATOM     11  N   UNL     1       5.453   5.230  17.606  0.00  0.00    +0.000 NA
ATOM     12  C   UNL     1       6.029   5.907  16.634  0.00  0.00    +0.000 A 
ATOM     13  N   UNL     1       5.366   7.063  16.363  0.00  0.00    +0.000 N 
ATOM     14  C   UNL     1       4.285   7.124  17.196  0.00  0.00    +0.000 A 
ATOM     15  N   UNL     1       3.382   8.102  17.238  0.00  0.00    +0.000 NA
ATOM     16  H   UNL     1       5.602   7.759  15.669  0.00  0.00    +0.000 HD
ENDROOT
BRANCH   1  21
ATOM     17 CL   UNL     1      -1.723  12.111  19.065  0.00  0.00    +0.000 Cl
ATOM     18  C   UNL     1      -0.493  10.918  18.837  0.00  0.00    +0.000 A 
ATOM     19  C   UNL     1      -0.625  10.050  17.749  0.00  0.00    +0.000 A 
ATOM     20  C   UNL     1       0.337   9.068  17.520  0.00  0.00    +0.000 A 
ATOM     21  C   UNL     1       1.444   8.917  18.376  0.00  0.00    +0.000 A 
ATOM     22  C   UNL     1       1.553   9.802  19.464  0.00  0.00    +0.000 A 
ATOM     23  C   UNL     1       0.601  10.795  19.694  0.00  0.00    +0.000 A 
ATOM     24 CL   UNL     1       0.838  11.838  21.052  0.00  0.00    +0.000 Cl
ENDBRANCH   1  21
TORSDOF 1
ENDMDL
MODEL 8
REMARK VINA RESULT:      -7.0      4.307      7.812
REMARK  Name = 
REMARK  1 active torsions:
REMARK  status: ('A' for Active; 'I' for Inactive)
REMARK    1  A    between atoms: C_5  and  C_6
REMARK                            x       y       z     vdW  Elec       q    Type
REMARK                         _______ _______ _______ _____ _____    ______ ____
ROOT
ATOM      1  C   UNL     1       0.533   9.395  19.933  0.00  0.00    +0.000 A 
ATOM      2  N   UNL     1      -0.291  10.088  19.123  0.00  0.00    +0.000 NA
ATOM      3  C   UNL     1      -1.178  10.992  19.633  0.00  0.00    +0.000 A 
ATOM      4  N   UNL     1      -1.991  11.680  18.758  0.00  0.00    +0.000 N 
ATOM      5  C   UNL     1      -3.303  12.163  19.164  0.00  0.00    +0.000 C 
ATOM      6  C   UNL     1      -4.405  11.442  18.386  0.00  0.00    +0.000 C 
ATOM      7  C   UNL     1      -4.146  11.477  16.880  0.00  0.00    +0.000 C 
ATOM      8  C   UNL     1      -2.749  10.952  16.550  0.00  0.00    +0.000 C 
ATOM      9  C   UNL     1      -1.670  11.688  17.338  0.00  0.00    +0.000 C 
ATOM     10  C   UNL     1      -1.167  11.157  21.042  0.00  0.00    +0.000 A 
ATOM     11  N   UNL     1      -1.871  11.963  21.917  0.00  0.00    +0.000 NA
ATOM     12  C   UNL     1      -1.440  11.637  23.118  0.00  0.00    +0.000 A 
ATOM     13  N   UNL     1      -0.468  10.687  23.063  0.00  0.00    +0.000 N 
ATOM     14  C   UNL     1      -0.276  10.368  21.749  0.00  0.00    +0.000 A 
ATOM     15  N   UNL     1       0.592   9.474  21.278  0.00  0.00    +0.000 NA
ATOM     16  H   UNL     1       0.027  10.270  23.839  0.00  0.00    +0.000 HD
ENDROOT
BRANCH   1  21
ATOM     17 CL   UNL     1       4.653   5.847  17.356  0.00  0.00    +0.000 Cl
ATOM     18  C   UNL     1       3.452   6.825  18.124  0.00  0.00    +0.000 A 
ATOM     19  C   UNL     1       3.082   8.015  17.490  0.00  0.00    +0.000 A 
ATOM     20  C   UNL     1       2.119   8.842  18.067  0.00  0.00    +0.000 A 
ATOM     21  C   UNL     1       1.514   8.511  19.294  0.00  0.00    +0.000 A 
ATOM     22  C   UNL     1       1.904   7.309  19.912  0.00  0.00    +0.000 A 
ATOM     23  C   UNL     1       2.858   6.470  19.336  0.00  0.00    +0.000 A 
ATOM     24 CL   UNL     1       3.256   5.011  20.172  0.00  0.00    +0.000 Cl
ENDBRANCH   1  21
TORSDOF 1
ENDMDL
MODEL 9
REMARK VINA RESULT:      -6.8      4.493      7.756
REMARK  Name = 
REMARK  1 active torsions:
REMARK  status: ('A' for Active; 'I' for Inactive)
REMARK    1  A    between atoms: C_5  and  C_6
REMARK                            x       y       z     vdW  Elec       q    Type
REMARK                         _______ _______ _______ _____ _____    ______ ____
ROOT
ATOM      1  C   UNL     1       0.756  10.300  20.462  0.00  0.00    +0.000 A 
ATOM      2  N   UNL     1       1.315  11.495  20.185  0.00  0.00    +0.000 NA
ATOM      3  C   UNL     1       0.899  12.628  20.821  0.00  0.00    +0.000 A 
ATOM      4  N   UNL     1       1.511  13.822  20.506  0.00  0.00    +0.000 N 
ATOM      5  C   UNL     1       0.807  15.090  20.626  0.00  0.00    +0.000 C 
ATOM      6  C   UNL     1       0.615  15.730  19.250  0.00  0.00    +0.000 C 
ATOM      7  C   UNL     1       1.929  15.797  18.472  0.00  0.00    +0.000 C 
ATOM      8  C   UNL     1       2.595  14.424  18.398  0.00  0.00    +0.000 C 
ATOM      9  C   UNL     1       2.775  13.809  19.783  0.00  0.00    +0.000 C 
ATOM     10  C   UNL     1      -0.133  12.467  21.782  0.00  0.00    +0.000 A 
ATOM     11  N   UNL     1      -0.795  13.334  22.631  0.00  0.00    +0.000 NA
ATOM     12  C   UNL     1      -1.683  12.595  23.264  0.00  0.00    +0.000 A 
ATOM     13  N   UNL     1      -1.605  11.288  22.895  0.00  0.00    +0.000 N 
ATOM     14  C   UNL     1      -0.622  11.183  21.953  0.00  0.00    +0.000 A 
ATOM     15  N   UNL     1      -0.240  10.064  21.340  0.00  0.00    +0.000 NA
ATOM     16  H   UNL     1      -2.168  10.520  23.233  0.00  0.00    +0.000 HD
ENDROOT
BRANCH   1  21
ATOM     17 CL   UNL     1       3.208   5.523  17.749  0.00  0.00    +0.000 Cl
ATOM     18  C   UNL     1       2.482   6.863  18.564  0.00  0.00    +0.000 A 
ATOM     19  C   UNL     1       2.310   8.047  17.841  0.00  0.00    +0.000 A 
ATOM     20  C   UNL     1       1.731   9.159  18.450  0.00  0.00    +0.000 A 
ATOM     21  C   UNL     1       1.324   9.123  19.797  0.00  0.00    +0.000 A 
ATOM     22  C   UNL     1       1.509   7.921  20.503  0.00  0.00    +0.000 A 
ATOM     23  C   UNL     1       2.076   6.800  19.897  0.00  0.00    +0.000 A 
ATOM     24 CL   UNL     1       2.246   5.369  20.852  0.00  0.00    +0.000 Cl
ENDBRANCH   1  21
TORSDOF 1
ENDMDL
