MODEL 1
REMARK VINA RESULT:      -8.7      0.000      0.000
REMARK  Name = 
REMARK  7 active torsions:
REMARK  status: ('A' for Active; 'I' for Inactive)
REMARK    1  A    between atoms: C_1  and  C_2
REMARK    2  A    between atoms: C_5  and  C_6
REMARK    3  A    between atoms: C_10  and  C_11
REMARK    4  A    between atoms: C_13  and  C_14
REMARK    5  A    between atoms: N_16  and  C_17
REMARK    6  A    between atoms: C_17  and  C_18
REMARK    7  A    between atoms: C_24  and  C_25
REMARK                            x       y       z     vdW  Elec       q    Type
REMARK                         _______ _______ _______ _____ _____    ______ ____
ROOT
ATOM      1  C   UNL     1       3.978   4.859  17.929  0.00  0.00    +0.000 A 
ATOM      2  N   UNL     1       4.796   5.423  16.957  0.00  0.00    +0.000 NA
ATOM      3  C   UNL     1       5.407   4.408  16.372  0.00  0.00    +0.000 A 
ATOM      4  N   UNL     1       4.990   3.219  16.910  0.00  0.00    +0.000 N 
ATOM      5  C   UNL     1       4.074   3.476  17.896  0.00  0.00    +0.000 A 
ATOM      6  C   UNL     1       3.417   2.373  18.634  0.00  0.00    +0.000 C 
ATOM      7  H   UNL     1       5.323   2.315  16.603  0.00  0.00    +0.000 HD
ENDROOT
BRANCH   1  12
ATOM      8  C   UNL     1       0.866   9.367  20.440  0.00  0.00    +0.000 A 
ATOM      9  C   UNL     1       1.575   9.124  19.283  0.00  0.00    +0.000 A 
ATOM     10  C   UNL     1       2.039   7.779  19.325  0.00  0.00    +0.000 A 
ATOM     11  C   UNL     1       2.830   6.985  18.466  0.00  0.00    +0.000 A 
ATOM     12  C   UNL     1       3.136   5.658  18.815  0.00  0.00    +0.000 A 
ATOM     13  C   UNL     1       2.646   5.148  20.025  0.00  0.00    +0.000 A 
ATOM     14  C   UNL     1       1.844   5.908  20.888  0.00  0.00    +0.000 A 
ATOM     15  C   UNL     1       1.567   7.224  20.513  0.00  0.00    +0.000 A 
ATOM     16  N   UNL     1       0.852   8.204  21.167  0.00  0.00    +0.000 N 
ATOM     17  H   UNL     1       0.404   8.100  22.068  0.00  0.00    +0.000 HD
BRANCH   8  22
ATOM     18  C   UNL     1      -1.761  13.446  20.635  0.00  0.00    +0.000 C 
ATOM     19  C   UNL     1      -0.885  12.326  21.027  0.00  0.00    +0.000 A 
ATOM     20  N   UNL     1      -0.436  12.172  22.277  0.00  0.00    +0.000 NA
ATOM     21  O   UNL     1       0.316  11.001  22.201  0.00  0.00    +0.000 OA
ATOM     22  C   UNL     1       0.244  10.562  20.904  0.00  0.00    +0.000 A 
ATOM     23  N   UNL     1      -0.484  11.355  20.143  0.00  0.00    +0.000 NA
ENDBRANCH   8  22
ENDBRANCH   1  12
BRANCH   3  24
ATOM     24  C   UNL     1       6.393   4.470  15.310  0.00  0.00    +0.000 C 
ATOM     25  O   UNL     1       7.591   4.626  15.542  0.00  0.00    +0.000 OA
ATOM     26  N   UNL     1       5.900   4.350  14.034  0.00  0.00    +0.000 N 
ATOM     27  H   UNL     1       4.917   4.112  13.936  0.00  0.00    +0.000 HD
BRANCH  26  28
ATOM     28  C   UNL     1       6.787   4.324  12.900  0.00  0.00    +0.000 C 
BRANCH  28  29
ATOM     29  C   UNL     1       6.511   3.123  12.076  0.00  0.00    +0.000 A 
ATOM     30  C   UNL     1       7.460   2.279  11.427  0.00  0.00    +0.000 A 
ATOM     31  C   UNL     1       6.742   1.280  10.815  0.00  0.00    +0.000 A 
ATOM     32  O   UNL     1       5.415   1.441  11.048  0.00  0.00    +0.000 OA
ATOM     33  C   UNL     1       5.280   2.553  11.814  0.00  0.00    +0.000 A 
ENDBRANCH  28  29
ENDBRANCH  26  28
ENDBRANCH   3  24
TORSDOF 5
ENDMDL
MODEL 2
REMARK VINA RESULT:      -8.7      1.655      2.105
REMARK  Name = 
REMARK  7 active torsions:
REMARK  status: ('A' for Active; 'I' for Inactive)
REMARK    1  A    between atoms: C_1  and  C_2
REMARK    2  A    between atoms: C_5  and  C_6
REMARK    3  A    between atoms: C_10  and  C_11
REMARK    4  A    between atoms: C_13  and  C_14
REMARK    5  A    between atoms: N_16  and  C_17
REMARK    6  A    between atoms: C_17  and  C_18
REMARK    7  A    between atoms: C_24  and  C_25
REMARK                            x       y       z     vdW  Elec       q    Type
REMARK                         _______ _______ _______ _____ _____    ______ ____
ROOT
ATOM      1  C   UNL     1       3.065   5.997  18.040  0.00  0.00    +0.000 A 
ATOM      2  N   UNL     1       4.216   6.162  17.279  0.00  0.00    +0.000 NA
ATOM      3  C   UNL     1       4.527   4.957  16.836  0.00  0.00    +0.000 A 
ATOM      4  N   UNL     1       3.607   4.035  17.258  0.00  0.00    +0.000 N 
ATOM      5  C   UNL     1       2.661   4.671  18.019  0.00  0.00    +0.000 A 
ATOM      6  C   UNL     1       1.510   3.928  18.584  0.00  0.00    +0.000 C 
ATOM      7  H   UNL     1       3.648   3.052  17.026  0.00  0.00    +0.000 HD
ENDROOT
BRANCH   1  12
ATOM      8  C   UNL     1       0.527  11.306  19.336  0.00  0.00    +0.000 A 
ATOM      9  C   UNL     1       1.027  10.645  18.234  0.00  0.00    +0.000 A 
ATOM     10  C   UNL     1       1.458   9.355  18.654  0.00  0.00    +0.000 A 
ATOM     11  C   UNL     1       2.075   8.265  18.002  0.00  0.00    +0.000 A 
ATOM     12  C   UNL     1       2.403   7.105  18.723  0.00  0.00    +0.000 A 
ATOM     13  C   UNL     1       2.109   7.057  20.093  0.00  0.00    +0.000 A 
ATOM     14  C   UNL     1       1.482   8.116  20.763  0.00  0.00    +0.000 A 
ATOM     15  C   UNL     1       1.179   9.256  20.016  0.00  0.00    +0.000 A 
ATOM     16  N   UNL     1       0.607  10.448  20.403  0.00  0.00    +0.000 N 
ATOM     17  H   UNL     1       0.313  10.679  21.344  0.00  0.00    +0.000 HD
BRANCH   8  22
ATOM     18  C   UNL     1      -0.228  16.057  18.676  0.00  0.00    +0.000 C 
ATOM     19  C   UNL     1      -0.336  14.683  19.201  0.00  0.00    +0.000 A 
ATOM     20  N   UNL     1      -1.237  14.340  20.127  0.00  0.00    +0.000 NA
ATOM     21  O   UNL     1      -1.004  12.976  20.305  0.00  0.00    +0.000 OA
ATOM     22  C   UNL     1       0.021  12.632  19.462  0.00  0.00    +0.000 A 
ATOM     23  N   UNL     1       0.467  13.659  18.765  0.00  0.00    +0.000 NA
ENDBRANCH   8  22
ENDBRANCH   1  12
BRANCH   3  24
ATOM     24  C   UNL     1       5.669   4.589  16.020  0.00  0.00    +0.000 C 
ATOM     25  O   UNL     1       6.691   4.110  16.508  0.00  0.00    +0.000 OA
ATOM     26  N   UNL     1       5.533   4.816  14.672  0.00  0.00    +0.000 N 
ATOM     27  H   UNL     1       4.619   5.107  14.340  0.00  0.00    +0.000 HD
BRANCH  26  28
ATOM     28  C   UNL     1       6.568   4.426  13.751  0.00  0.00    +0.000 C 
BRANCH  28  29
ATOM     29  C   UNL     1       6.001   3.543  12.704  0.00  0.00    +0.000 A 
ATOM     30  C   UNL     1       4.685   3.583  12.155  0.00  0.00    +0.000 A 
ATOM     31  C   UNL     1       4.630   2.601  11.195  0.00  0.00    +0.000 A 
ATOM     32  O   UNL     1       5.825   1.964  11.104  0.00  0.00    +0.000 OA
ATOM     33  C   UNL     1       6.651   2.539  12.014  0.00  0.00    +0.000 A 
ENDBRANCH  28  29
ENDBRANCH  26  28
ENDBRANCH   3  24
TORSDOF 5
ENDMDL
MODEL 3
REMARK VINA RESULT:      -8.6      1.268      1.432
REMARK  Name = 
REMARK  7 active torsions:
REMARK  status: ('A' for Active; 'I' for Inactive)
REMARK    1  A    between atoms: C_1  and  C_2
REMARK    2  A    between atoms: C_5  and  C_6
REMARK    3  A    between atoms: C_10  and  C_11
REMARK    4  A    between atoms: C_13  and  C_14
REMARK    5  A    between atoms: N_16  and  C_17
REMARK    6  A    between atoms: C_17  and  C_18
REMARK    7  A    between atoms: C_24  and  C_25
REMARK                            x       y       z     vdW  Elec       q    Type
REMARK                         _______ _______ _______ _____ _____    ______ ____
ROOT
ATOM      1  C   UNL     1       4.182   5.608  17.799  0.00  0.00    +0.000 A 
ATOM      2  N   UNL     1       4.953   5.942  16.691  0.00  0.00    +0.000 NA
ATOM      3  C   UNL     1       5.661   4.862  16.410  0.00  0.00    +0.000 A 
ATOM      4  N   UNL     1       5.353   3.845  17.274  0.00  0.00    +0.000 N 
ATOM      5  C   UNL     1       4.409   4.289  18.163  0.00  0.00    +0.000 A 
ATOM      6  C   UNL     1       3.852   3.388  19.198  0.00  0.00    +0.000 C 
ATOM      7  H   UNL     1       5.772   2.926  17.234  0.00  0.00    +0.000 HD
ENDROOT
BRANCH   1  12
ATOM      8  C   UNL     1       0.745  10.401  19.032  0.00  0.00    +0.000 A 
ATOM      9  C   UNL     1       1.521   9.930  17.995  0.00  0.00    +0.000 A 
ATOM     10  C   UNL     1       2.044   8.662  18.377  0.00  0.00    +0.000 A 
ATOM     11  C   UNL     1       2.912   7.732  17.766  0.00  0.00    +0.000 A 
ATOM     12  C   UNL     1       3.261   6.547  18.434  0.00  0.00    +0.000 A 
ATOM     13  C   UNL     1       2.735   6.313  19.713  0.00  0.00    +0.000 A 
ATOM     14  C   UNL     1       1.857   7.210  20.337  0.00  0.00    +0.000 A 
ATOM     15  C   UNL     1       1.539   8.381  19.646  0.00  0.00    +0.000 A 
ATOM     16  N   UNL     1       0.748   9.446  20.017  0.00  0.00    +0.000 N 
ATOM     17  H   UNL     1       0.261   9.535  20.899  0.00  0.00    +0.000 HD
BRANCH   8  22
ATOM     18  C   UNL     1      -2.307  13.846  20.579  0.00  0.00    +0.000 C 
ATOM     19  C   UNL     1      -1.255  13.150  19.817  0.00  0.00    +0.000 A 
ATOM     20  N   UNL     1      -0.523  13.764  18.882  0.00  0.00    +0.000 NA
ATOM     21  O   UNL     1       0.344  12.762  18.448  0.00  0.00    +0.000 OA
ATOM     22  C   UNL     1       0.046  11.635  19.171  0.00  0.00    +0.000 A 
ATOM     23  N   UNL     1      -0.940  11.830  20.025  0.00  0.00    +0.000 NA
ENDBRANCH   8  22
ENDBRANCH   1  12
BRANCH   3  24
ATOM     24  C   UNL     1       6.646   4.708  15.357  0.00  0.00    +0.000 C 
ATOM     25  O   UNL     1       7.847   4.604  15.599  0.00  0.00    +0.000 OA
ATOM     26  N   UNL     1       6.148   4.692  14.077  0.00  0.00    +0.000 N 
ATOM     27  H   UNL     1       5.139   4.670  13.971  0.00  0.00    +0.000 HD
BRANCH  26  28
ATOM     28  C   UNL     1       7.019   4.473  12.951  0.00  0.00    +0.000 C 
BRANCH  28  29
ATOM     29  C   UNL     1       6.530   3.319  12.158  0.00  0.00    +0.000 A 
ATOM     30  C   UNL     1       7.312   2.330  11.494  0.00  0.00    +0.000 A 
ATOM     31  C   UNL     1       6.426   1.447  10.923  0.00  0.00    +0.000 A 
ATOM     32  O   UNL     1       5.150   1.816  11.198  0.00  0.00    +0.000 OA
ATOM     33  C   UNL     1       5.217   2.945  11.948  0.00  0.00    +0.000 A 
ENDBRANCH  28  29
ENDBRANCH  26  28
ENDBRANCH   3  24
TORSDOF 5
ENDMDL
MODEL 4
REMARK VINA RESULT:      -8.6      1.593      1.924
REMARK  Name = 
REMARK  7 active torsions:
REMARK  status: ('A' for Active; 'I' for Inactive)
REMARK    1  A    between atoms: C_1  and  C_2
REMARK    2  A    between atoms: C_5  and  C_6
REMARK    3  A    between atoms: C_10  and  C_11
REMARK    4  A    between atoms: C_13  and  C_14
REMARK    5  A    between atoms: N_16  and  C_17
REMARK    6  A    between atoms: C_17  and  C_18
REMARK    7  A    between atoms: C_24  and  C_25
REMARK                            x       y       z     vdW  Elec       q    Type
REMARK                         _______ _______ _______ _____ _____    ______ ____
ROOT
ATOM      1  C   UNL     1       3.126   5.965  17.973  0.00  0.00    +0.000 A 
ATOM      2  N   UNL     1       4.280   6.150  17.221  0.00  0.00    +0.000 NA
ATOM      3  C   UNL     1       4.602   4.953  16.762  0.00  0.00    +0.000 A 
ATOM      4  N   UNL     1       3.686   4.019  17.167  0.00  0.00    +0.000 N 
ATOM      5  C   UNL     1       2.731   4.637  17.931  0.00  0.00    +0.000 A 
ATOM      6  C   UNL     1       1.583   3.878  18.480  0.00  0.00    +0.000 C 
ATOM      7  H   UNL     1       3.736   3.039  16.922  0.00  0.00    +0.000 HD
ENDROOT
BRANCH   1  12
ATOM      8  C   UNL     1       0.528  11.232  19.324  0.00  0.00    +0.000 A 
ATOM      9  C   UNL     1       1.034  10.587  18.215  0.00  0.00    +0.000 A 
ATOM     10  C   UNL     1       1.481   9.298  18.622  0.00  0.00    +0.000 A 
ATOM     11  C   UNL     1       2.109   8.222  17.958  0.00  0.00    +0.000 A 
ATOM     12  C   UNL     1       2.452   7.059  18.668  0.00  0.00    +0.000 A 
ATOM     13  C   UNL     1       2.163   6.995  20.038  0.00  0.00    +0.000 A 
ATOM     14  C   UNL     1       1.524   8.040  20.719  0.00  0.00    +0.000 A 
ATOM     15  C   UNL     1       1.206   9.183  19.983  0.00  0.00    +0.000 A 
ATOM     16  N   UNL     1       0.621  10.365  20.383  0.00  0.00    +0.000 N 
ATOM     17  H   UNL     1       0.326  10.583  21.326  0.00  0.00    +0.000 HD
BRANCH   8  22
ATOM     18  C   UNL     1      -1.807  15.132  21.030  0.00  0.00    +0.000 C 
ATOM     19  C   UNL     1      -0.986  14.258  20.173  0.00  0.00    +0.000 A 
ATOM     20  N   UNL     1      -0.362  14.708  19.079  0.00  0.00    +0.000 NA
ATOM     21  O   UNL     1       0.299  13.577  18.603  0.00  0.00    +0.000 OA
ATOM     22  C   UNL     1       0.007  12.551  19.463  0.00  0.00    +0.000 A 
ATOM     23  N   UNL     1      -0.789  12.927  20.445  0.00  0.00    +0.000 NA
ENDBRANCH   8  22
ENDBRANCH   1  12
BRANCH   3  24
ATOM     24  C   UNL     1       5.751   4.604  15.948  0.00  0.00    +0.000 C 
ATOM     25  O   UNL     1       6.812   4.229  16.444  0.00  0.00    +0.000 OA
ATOM     26  N   UNL     1       5.575   4.727  14.591  0.00  0.00    +0.000 N 
ATOM     27  H   UNL     1       4.638   4.934  14.261  0.00  0.00    +0.000 HD
BRANCH  26  28
ATOM     28  C   UNL     1       6.618   4.343  13.675  0.00  0.00    +0.000 C 
BRANCH  28  29
ATOM     29  C   UNL     1       6.062   3.452  12.629  0.00  0.00    +0.000 A 
ATOM     30  C   UNL     1       6.720   2.374  11.967  0.00  0.00    +0.000 A 
ATOM     31  C   UNL     1       5.801   1.820  11.108  0.00  0.00    +0.000 A 
ATOM     32  O   UNL     1       4.616   2.474  11.201  0.00  0.00    +0.000 OA
ATOM     33  C   UNL     1       4.776   3.456  12.124  0.00  0.00    +0.000 A 
ENDBRANCH  28  29
ENDBRANCH  26  28
ENDBRANCH   3  24
TORSDOF 5
ENDMDL
MODEL 5
REMARK VINA RESULT:      -8.6      1.832      2.833
REMARK  Name = 
REMARK  7 active torsions:
REMARK  status: ('A' for Active; 'I' for Inactive)
REMARK    1  A    between atoms: C_1  and  C_2
REMARK    2  A    between atoms: C_5  and  C_6
REMARK    3  A    between atoms: C_10  and  C_11
REMARK    4  A    between atoms: C_13  and  C_14
REMARK    5  A    between atoms: N_16  and  C_17
REMARK    6  A    between atoms: C_17  and  C_18
REMARK    7  A    between atoms: C_24  and  C_25
REMARK                            x       y       z     vdW  Elec       q    Type
REMARK                         _______ _______ _______ _____ _____    ______ ____
ROOT
ATOM      1  C   UNL     1       2.976   6.612  18.851  0.00  0.00    +0.000 A 
ATOM      2  N   UNL     1       4.159   6.642  18.121  0.00  0.00    +0.000 NA
ATOM      3  C   UNL     1       4.653   5.418  18.194  0.00  0.00    +0.000 A 
ATOM      4  N   UNL     1       3.821   4.604  18.915  0.00  0.00    +0.000 N 
ATOM      5  C   UNL     1       2.742   5.335  19.337  0.00  0.00    +0.000 A 
ATOM      6  C   UNL     1       1.648   4.704  20.112  0.00  0.00    +0.000 C 
ATOM      7  H   UNL     1       4.003   3.624  19.087  0.00  0.00    +0.000 HD
ENDROOT
BRANCH   1  12
ATOM      8  C   UNL     1      -0.495  10.944  21.197  0.00  0.00    +0.000 A 
ATOM      9  C   UNL     1       0.279   9.892  21.639  0.00  0.00    +0.000 A 
ATOM     10  C   UNL     1       0.875   9.276  20.501  0.00  0.00    +0.000 A 
ATOM     11  C   UNL     1       1.718   8.159  20.318  0.00  0.00    +0.000 A 
ATOM     12  C   UNL     1       2.126   7.787  19.026  0.00  0.00    +0.000 A 
ATOM     13  C   UNL     1       1.676   8.541  17.933  0.00  0.00    +0.000 A 
ATOM     14  C   UNL     1       0.853   9.665  18.087  0.00  0.00    +0.000 A 
ATOM     15  C   UNL     1       0.462  10.000  19.384  0.00  0.00    +0.000 A 
ATOM     16  N   UNL     1      -0.361  11.010  19.833  0.00  0.00    +0.000 N 
ATOM     17  H   UNL     1      -0.828  11.690  19.247  0.00  0.00    +0.000 HD
BRANCH   8  22
ATOM     18  C   UNL     1      -4.139  13.903  22.435  0.00  0.00    +0.000 C 
ATOM     19  C   UNL     1      -2.891  13.120  22.495  0.00  0.00    +0.000 A 
ATOM     20  N   UNL     1      -2.135  13.062  23.597  0.00  0.00    +0.000 NA
ATOM     21  O   UNL     1      -1.095  12.212  23.223  0.00  0.00    +0.000 OA
ATOM     22  C   UNL     1      -1.330  11.840  21.924  0.00  0.00    +0.000 A 
ATOM     23  N   UNL     1      -2.428  12.383  21.435  0.00  0.00    +0.000 NA
ENDBRANCH   8  22
ENDBRANCH   1  12
BRANCH   3  24
ATOM     24  C   UNL     1       5.897   4.939  17.622  0.00  0.00    +0.000 C 
ATOM     25  O   UNL     1       6.733   4.335  18.293  0.00  0.00    +0.000 OA
ATOM     26  N   UNL     1       6.080   5.209  16.288  0.00  0.00    +0.000 N 
ATOM     27  H   UNL     1       5.296   5.610  15.784  0.00  0.00    +0.000 HD
BRANCH  26  28
ATOM     28  C   UNL     1       7.241   4.722  15.590  0.00  0.00    +0.000 C 
BRANCH  28  29
ATOM     29  C   UNL     1       6.873   4.350  14.203  0.00  0.00    +0.000 A 
ATOM     30  C   UNL     1       5.743   3.590  13.779  0.00  0.00    +0.000 A 
ATOM     31  C   UNL     1       5.800   3.534  12.407  0.00  0.00    +0.000 A 
ATOM     32  O   UNL     1       6.881   4.215  11.952  0.00  0.00    +0.000 OA
ATOM     33  C   UNL     1       7.524   4.710  13.040  0.00  0.00    +0.000 A 
ENDBRANCH  28  29
ENDBRANCH  26  28
ENDBRANCH   3  24
TORSDOF 5
ENDMDL
MODEL 6
REMARK VINA RESULT:      -8.5      3.643     11.348
REMARK  Name = 
REMARK  7 active torsions:
REMARK  status: ('A' for Active; 'I' for Inactive)
REMARK    1  A    between atoms: C_1  and  C_2
REMARK    2  A    between atoms: C_5  and  C_6
REMARK    3  A    between atoms: C_10  and  C_11
REMARK    4  A    between atoms: C_13  and  C_14
REMARK    5  A    between atoms: N_16  and  C_17
REMARK    6  A    between atoms: C_17  and  C_18
REMARK    7  A    between atoms: C_24  and  C_25
REMARK                            x       y       z     vdW  Elec       q    Type
REMARK                         _______ _______ _______ _____ _____    ______ ____
ROOT
ATOM      1  C   UNL     1      -0.560  10.837  19.248  0.00  0.00    +0.000 A 
ATOM      2  N   UNL     1      -1.931  10.619  19.316  0.00  0.00    +0.000 NA
ATOM      3  C   UNL     1      -2.489  11.807  19.160  0.00  0.00    +0.000 A 
ATOM      4  N   UNL     1      -1.532  12.768  18.968  0.00  0.00    +0.000 N 
ATOM      5  C   UNL     1      -0.296  12.177  19.010  0.00  0.00    +0.000 A 
ATOM      6  C   UNL     1       0.937  12.970  18.794  0.00  0.00    +0.000 C 
ATOM      7  H   UNL     1      -1.739  13.746  18.820  0.00  0.00    +0.000 HD
ENDROOT
BRANCH   1  12
ATOM      8  C   UNL     1       3.711   6.723  18.175  0.00  0.00    +0.000 A 
ATOM      9  C   UNL     1       3.088   7.758  17.511  0.00  0.00    +0.000 A 
ATOM     10  C   UNL     1       2.160   8.360  18.407  0.00  0.00    +0.000 A 
ATOM     11  C   UNL     1       1.227   9.414  18.294  0.00  0.00    +0.000 A 
ATOM     12  C   UNL     1       0.419   9.762  19.390  0.00  0.00    +0.000 A 
ATOM     13  C   UNL     1       0.557   9.043  20.585  0.00  0.00    +0.000 A 
ATOM     14  C   UNL     1       1.487   8.004  20.732  0.00  0.00    +0.000 A 
ATOM     15  C   UNL     1       2.266   7.681  19.619  0.00  0.00    +0.000 A 
ATOM     16  N   UNL     1       3.219   6.699  19.455  0.00  0.00    +0.000 N 
ATOM     17  H   UNL     1       3.500   6.031  20.162  0.00  0.00    +0.000 HD
BRANCH   8  22
ATOM     18  C   UNL     1       6.190   3.631  15.371  0.00  0.00    +0.000 C 
ATOM     19  C   UNL     1       5.775   4.444  16.528  0.00  0.00    +0.000 A 
ATOM     20  N   UNL     1       6.481   4.487  17.663  0.00  0.00    +0.000 NA
ATOM     21  O   UNL     1       5.755   5.375  18.455  0.00  0.00    +0.000 OA
ATOM     22  C   UNL     1       4.676   5.783  17.713  0.00  0.00    +0.000 A 
ATOM     23  N   UNL     1       4.648   5.227  16.517  0.00  0.00    +0.000 NA
ENDBRANCH   8  22
ENDBRANCH   1  12
BRANCH   3  24
ATOM     24  C   UNL     1      -3.904  12.122  19.186  0.00  0.00    +0.000 C 
ATOM     25  O   UNL     1      -4.341  13.112  19.771  0.00  0.00    +0.000 OA
ATOM     26  N   UNL     1      -4.720  11.241  18.520  0.00  0.00    +0.000 N 
ATOM     27  H   UNL     1      -4.270  10.515  17.971  0.00  0.00    +0.000 HD
BRANCH  26  28
ATOM     28  C   UNL     1      -6.136  11.484  18.413  0.00  0.00    +0.000 C 
BRANCH  28  29
ATOM     29  C   UNL     1      -6.855  10.730  19.468  0.00  0.00    +0.000 A 
ATOM     30  C   UNL     1      -7.141   9.333  19.494  0.00  0.00    +0.000 A 
ATOM     31  C   UNL     1      -7.791   9.088  20.680  0.00  0.00    +0.000 A 
ATOM     32  O   UNL     1      -7.916  10.234  21.395  0.00  0.00    +0.000 OA
ATOM     33  C   UNL     1      -7.346  11.223  20.660  0.00  0.00    +0.000 A 
ENDBRANCH  28  29
ENDBRANCH  26  28
ENDBRANCH   3  24
TORSDOF 5
ENDMDL
MODEL 7
REMARK VINA RESULT:      -8.5      0.972      1.179
REMARK  Name = 
REMARK  7 active torsions:
REMARK  status: ('A' for Active; 'I' for Inactive)
REMARK    1  A    between atoms: C_1  and  C_2
REMARK    2  A    between atoms: C_5  and  C_6
REMARK    3  A    between atoms: C_10  and  C_11
REMARK    4  A    between atoms: C_13  and  C_14
REMARK    5  A    between atoms: N_16  and  C_17
REMARK    6  A    between atoms: C_17  and  C_18
REMARK    7  A    between atoms: C_24  and  C_25
REMARK                            x       y       z     vdW  Elec       q    Type
REMARK                         _______ _______ _______ _____ _____    ______ ____
ROOT
ATOM      1  C   UNL     1       4.135   5.198  17.558  0.00  0.00    +0.000 A 
ATOM      2  N   UNL     1       4.897   5.729  16.523  0.00  0.00    +0.000 NA
ATOM      3  C   UNL     1       5.515   4.699  15.972  0.00  0.00    +0.000 A 
ATOM      4  N   UNL     1       5.158   3.532  16.593  0.00  0.00    +0.000 N 
ATOM      5  C   UNL     1       4.274   3.819  17.600  0.00  0.00    +0.000 A 
ATOM      6  C   UNL     1       3.682   2.741  18.427  0.00  0.00    +0.000 C 
ATOM      7  H   UNL     1       5.508   2.622  16.325  0.00  0.00    +0.000 HD
ENDROOT
BRANCH   1  12
ATOM      8  C   UNL     1       0.916   9.724  19.897  0.00  0.00    +0.000 A 
ATOM      9  C   UNL     1       1.563   9.422  18.717  0.00  0.00    +0.000 A 
ATOM     10  C   UNL     1       2.111   8.114  18.839  0.00  0.00    +0.000 A 
ATOM     11  C   UNL     1       2.894   7.294  17.996  0.00  0.00    +0.000 A 
ATOM     12  C   UNL     1       3.304   6.023  18.431  0.00  0.00    +0.000 A 
ATOM     13  C   UNL     1       2.925   5.593  19.711  0.00  0.00    +0.000 A 
ATOM     14  C   UNL     1       2.135   6.377  20.562  0.00  0.00    +0.000 A 
ATOM     15  C   UNL     1       1.753   7.638  20.099  0.00  0.00    +0.000 A 
ATOM     16  N   UNL     1       1.022   8.629  20.717  0.00  0.00    +0.000 N 
ATOM     17  H   UNL     1       0.640   8.579  21.653  0.00  0.00    +0.000 HD
BRANCH   8  22
ATOM     18  C   UNL     1      -0.169  13.877  22.165  0.00  0.00    +0.000 C 
ATOM     19  C   UNL     1      -0.247  12.717  21.258  0.00  0.00    +0.000 A 
ATOM     20  N   UNL     1      -1.223  12.579  20.354  0.00  0.00    +0.000 NA
ATOM     21  O   UNL     1      -0.897  11.383  19.716  0.00  0.00    +0.000 OA
ATOM     22  C   UNL     1       0.252  10.917  20.302  0.00  0.00    +0.000 A 
ATOM     23  N   UNL     1       0.685  11.709  21.264  0.00  0.00    +0.000 NA
ENDBRANCH   8  22
ENDBRANCH   1  12
BRANCH   3  24
ATOM     24  C   UNL     1       6.456   4.729  14.869  0.00  0.00    +0.000 C 
ATOM     25  O   UNL     1       7.599   5.165  14.999  0.00  0.00    +0.000 OA
ATOM     26  N   UNL     1       5.985   4.245  13.673  0.00  0.00    +0.000 N 
ATOM     27  H   UNL     1       5.071   3.802  13.679  0.00  0.00    +0.000 HD
BRANCH  26  28
ATOM     28  C   UNL     1       6.846   4.155  12.523  0.00  0.00    +0.000 C 
BRANCH  28  29
ATOM     29  C   UNL     1       6.624   2.863  11.831  0.00  0.00    +0.000 A 
ATOM     30  C   UNL     1       5.386   2.184  11.637  0.00  0.00    +0.000 A 
ATOM     31  C   UNL     1       5.669   1.049  10.915  0.00  0.00    +0.000 A 
ATOM     32  O   UNL     1       6.995   0.985  10.639  0.00  0.00    +0.000 OA
ATOM     33  C   UNL     1       7.568   2.085  11.190  0.00  0.00    +0.000 A 
ENDBRANCH  28  29
ENDBRANCH  26  28
ENDBRANCH   3  24
TORSDOF 5
ENDMDL
MODEL 8
REMARK VINA RESULT:      -8.4      2.732      5.182
REMARK  Name = 
REMARK  7 active torsions:
REMARK  status: ('A' for Active; 'I' for Inactive)
REMARK    1  A    between atoms: C_1  and  C_2
REMARK    2  A    between atoms: C_5  and  C_6
REMARK    3  A    between atoms: C_10  and  C_11
REMARK    4  A    between atoms: C_13  and  C_14
REMARK    5  A    between atoms: N_16  and  C_17
REMARK    6  A    between atoms: C_17  and  C_18
REMARK    7  A    between atoms: C_24  and  C_25
REMARK                            x       y       z     vdW  Elec       q    Type
REMARK                         _______ _______ _______ _____ _____    ______ ____
ROOT
ATOM      1  C   UNL     1       1.578   8.456  19.794  0.00  0.00    +0.000 A 
ATOM      2  N   UNL     1       2.037   7.159  19.993  0.00  0.00    +0.000 NA
ATOM      3  C   UNL     1       2.710   6.847  18.900  0.00  0.00    +0.000 A 
ATOM      4  N   UNL     1       2.724   7.901  18.025  0.00  0.00    +0.000 N 
ATOM      5  C   UNL     1       2.019   8.940  18.572  0.00  0.00    +0.000 A 
ATOM      6  C   UNL     1       1.896  10.236  17.863  0.00  0.00    +0.000 C 
ATOM      7  H   UNL     1       3.192   7.881  17.129  0.00  0.00    +0.000 HD
ENDROOT
BRANCH   1  12
ATOM      8  C   UNL     1      -2.157  12.338  22.495  0.00  0.00    +0.000 A 
ATOM      9  C   UNL     1      -1.734  12.035  21.218  0.00  0.00    +0.000 A 
ATOM     10  C   UNL     1      -0.832  10.936  21.303  0.00  0.00    +0.000 A 
ATOM     11  C   UNL     1      -0.064  10.220  20.359  0.00  0.00    +0.000 A 
ATOM     12  C   UNL     1       0.769   9.169  20.779  0.00  0.00    +0.000 A 
ATOM     13  C   UNL     1       0.822   8.854  22.144  0.00  0.00    +0.000 A 
ATOM     14  C   UNL     1       0.057   9.535  23.100  0.00  0.00    +0.000 A 
ATOM     15  C   UNL     1      -0.753  10.579  22.648  0.00  0.00    +0.000 A 
ATOM     16  N   UNL     1      -1.571  11.438  23.348  0.00  0.00    +0.000 N 
ATOM     17  H   UNL     1      -1.704  11.434  24.352  0.00  0.00    +0.000 HD
BRANCH   8  22
ATOM     18  C   UNL     1      -3.907  16.171  24.907  0.00  0.00    +0.000 C 
ATOM     19  C   UNL     1      -3.804  15.033  23.976  0.00  0.00    +0.000 A 
ATOM     20  N   UNL     1      -4.776  14.726  23.110  0.00  0.00    +0.000 NA
ATOM     21  O   UNL     1      -4.258  13.624  22.430  0.00  0.00    +0.000 OA
ATOM     22  C   UNL     1      -3.016  13.376  22.957  0.00  0.00    +0.000 A 
ATOM     23  N   UNL     1      -2.699  14.221  23.918  0.00  0.00    +0.000 NA
ENDBRANCH   8  22
ENDBRANCH   1  12
BRANCH   3  24
ATOM     24  C   UNL     1       3.361   5.587  18.600  0.00  0.00    +0.000 C 
ATOM     25  O   UNL     1       2.724   4.581  18.292  0.00  0.00    +0.000 OA
ATOM     26  N   UNL     1       4.732   5.590  18.690  0.00  0.00    +0.000 N 
ATOM     27  H   UNL     1       5.185   6.486  18.840  0.00  0.00    +0.000 HD
BRANCH  26  28
ATOM     28  C   UNL     1       5.496   4.419  18.346  0.00  0.00    +0.000 C 
BRANCH  28  29
ATOM     29  C   UNL     1       6.139   4.611  17.024  0.00  0.00    +0.000 A 
ATOM     30  C   UNL     1       5.881   3.892  15.820  0.00  0.00    +0.000 A 
ATOM     31  C   UNL     1       6.687   4.442  14.853  0.00  0.00    +0.000 A 
ATOM     32  O   UNL     1       7.418   5.460  15.372  0.00  0.00    +0.000 OA
ATOM     33  C   UNL     1       7.082   5.561  16.683  0.00  0.00    +0.000 A 
ENDBRANCH  28  29
ENDBRANCH  26  28
ENDBRANCH   3  24
TORSDOF 5
ENDMDL
MODEL 9
REMARK VINA RESULT:      -8.4      2.780     10.993
REMARK  Name = 
REMARK  7 active torsions:
REMARK  status: ('A' for Active; 'I' for Inactive)
REMARK    1  A    between atoms: C_1  and  C_2
REMARK    2  A    between atoms: C_5  and  C_6
REMARK    3  A    between atoms: C_10  and  C_11
REMARK    4  A    between atoms: C_13  and  C_14
REMARK    5  A    between atoms: N_16  and  C_17
REMARK    6  A    between atoms: C_17  and  C_18
REMARK    7  A    between atoms: C_24  and  C_25
REMARK                            x       y       z     vdW  Elec       q    Type
REMARK                         _______ _______ _______ _____ _____    ______ ____
ROOT
ATOM      1  C   UNL     1       0.893   9.245  19.734  0.00  0.00    +0.000 A 
ATOM      2  N   UNL     1       0.122  10.008  18.864  0.00  0.00    +0.000 NA
ATOM      3  C   UNL     1      -0.622  10.783  19.633  0.00  0.00    +0.000 A 
ATOM      4  N   UNL     1      -0.338  10.566  20.955  0.00  0.00    +0.000 N 
ATOM      5  C   UNL     1       0.628   9.599  21.049  0.00  0.00    +0.000 A 
ATOM      6  C   UNL     1       1.167   9.182  22.364  0.00  0.00    +0.000 C 
ATOM      7  H   UNL     1      -0.786  11.060  21.715  0.00  0.00    +0.000 HD
ENDROOT
BRANCH   1  12
ATOM      8  C   UNL     1       4.919   6.155  16.486  0.00  0.00    +0.000 A 
ATOM      9  C   UNL     1       4.267   7.369  16.433  0.00  0.00    +0.000 A 
ATOM     10  C   UNL     1       3.446   7.477  17.592  0.00  0.00    +0.000 A 
ATOM     11  C   UNL     1       2.538   8.449  18.065  0.00  0.00    +0.000 A 
ATOM     12  C   UNL     1       1.849   8.242  19.272  0.00  0.00    +0.000 A 
ATOM     13  C   UNL     1       2.078   7.057  19.986  0.00  0.00    +0.000 A 
ATOM     14  C   UNL     1       2.986   6.083  19.549  0.00  0.00    +0.000 A 
ATOM     15  C   UNL     1       3.647   6.319  18.341  0.00  0.00    +0.000 A 
ATOM     16  N   UNL     1       4.550   5.538  17.654  0.00  0.00    +0.000 N 
ATOM     17  H   UNL     1       4.877   4.626  17.945  0.00  0.00    +0.000 HD
BRANCH   8  22
ATOM     18  C   UNL     1       6.670   3.613  12.738  0.00  0.00    +0.000 C 
ATOM     19  C   UNL     1       6.601   4.464  13.940  0.00  0.00    +0.000 A 
ATOM     20  N   UNL     1       7.687   5.017  14.490  0.00  0.00    +0.000 NA
ATOM     21  O   UNL     1       7.166   5.740  15.563  0.00  0.00    +0.000 OA
ATOM     22  C   UNL     1       5.808   5.548  15.552  0.00  0.00    +0.000 A 
ATOM     23  N   UNL     1       5.417   4.761  14.569  0.00  0.00    +0.000 NA
ENDBRANCH   8  22
ENDBRANCH   1  12
BRANCH   3  24
ATOM     24  C   UNL     1      -1.621  11.743  19.206  0.00  0.00    +0.000 C 
ATOM     25  O   UNL     1      -1.362  12.938  19.074  0.00  0.00    +0.000 OA
ATOM     26  N   UNL     1      -2.873  11.230  18.968  0.00  0.00    +0.000 N 
ATOM     27  H   UNL     1      -2.974  10.220  18.992  0.00  0.00    +0.000 HD
BRANCH  26  28
ATOM     28  C   UNL     1      -3.931  12.071  18.470  0.00  0.00    +0.000 C 
BRANCH  28  29
ATOM     29  C   UNL     1      -5.201  11.736  19.158  0.00  0.00    +0.000 A 
ATOM     30  C   UNL     1      -6.192  10.798  18.743  0.00  0.00    +0.000 A 
ATOM     31  C   UNL     1      -7.168  10.804  19.711  0.00  0.00    +0.000 A 
ATOM     32  O   UNL     1      -6.845  11.673  20.701  0.00  0.00    +0.000 OA
ATOM     33  C   UNL     1      -5.654  12.231  20.365  0.00  0.00    +0.000 A 
ENDBRANCH  28  29
ENDBRANCH  26  28
ENDBRANCH   3  24
TORSDOF 5
ENDMDL
