MODEL 1
REMARK VINA RESULT:      -8.5      0.000      0.000
REMARK  Name = 
REMARK  6 active torsions:
REMARK  status: ('A' for Active; 'I' for Inactive)
REMARK    1  A    between atoms: C_1  and  O_2
REMARK    2  A    between atoms: O_2  and  C_3
REMARK    3  A    between atoms: C_6  and  N_7
REMARK    4  A    between atoms: C_8  and  C_10
REMARK    5  A    between atoms: C_10  and  N_11
REMARK    6  A    between atoms: C_19  and  C_20
REMARK                            x       y       z     vdW  Elec       q    Type
REMARK                         _______ _______ _______ _____ _____    ______ ____
ROOT
ATOM      1  C   UNL     1       3.262   7.123  17.507  0.00  0.00    +0.000 C 
ENDROOT
BRANCH   1   2
ATOM      2  N   UNL     1       3.869   6.183  18.510  0.00  0.00    +0.000 N 
ATOM      3  C   UNL     1       5.198   5.962  18.104  0.00  0.00    +0.000 C 
ATOM      4  O   UNL     1       5.613   6.056  16.946  0.00  0.00    +0.000 OA
ATOM      5  C   UNL     1       5.953   5.281  19.173  0.00  0.00    +0.000 C 
ATOM      6  O   UNL     1       5.637   3.945  18.797  0.00  0.00    +0.000 OA
ATOM      7  C   UNL     1       4.269   3.753  18.939  0.00  0.00    +0.000 A 
ATOM      8  C   UNL     1       4.003   2.410  19.210  0.00  0.00    +0.000 A 
ATOM      9  C   UNL     1       2.916   2.096  19.976  0.00  0.00    +0.000 A 
ATOM     10  C   UNL     1       2.126   3.136  20.485  0.00  0.00    +0.000 A 
ATOM     11  C   UNL     1       1.337   2.699  21.718  0.00  0.00    +0.000 C 
ATOM     12  C   UNL     1       2.260   4.500  19.951  0.00  0.00    +0.000 A 
ATOM     13  C   UNL     1       3.338   4.844  19.082  0.00  0.00    +0.000 A 
ENDBRANCH   1   2
BRANCH   1  15
ATOM     14  N   UNL     1       2.041   8.332  19.573  0.00  0.00    +0.000 N 
ATOM     15  C   UNL     1       2.390   8.445  18.194  0.00  0.00    +0.000 C 
ATOM     16  O   UNL     1       2.007   9.369  17.469  0.00  0.00    +0.000 OA
ATOM     17  H   UNL     1       2.230   7.410  19.950  0.00  0.00    +0.000 HD
BRANCH  14  21
ATOM     18  C   UNL     1      -0.673  10.399  22.300  0.00  0.00    +0.000 A 
ATOM     19  C   UNL     1      -0.665  10.716  20.929  0.00  0.00    +0.000 A 
ATOM     20  C   UNL     1       0.209  10.056  19.999  0.00  0.00    +0.000 A 
ATOM     21  C   UNL     1       1.124   9.094  20.421  0.00  0.00    +0.000 A 
ATOM     22  C   UNL     1       1.126   8.838  21.824  0.00  0.00    +0.000 A 
ATOM     23  C   UNL     1       0.253   9.492  22.748  0.00  0.00    +0.000 A 
BRANCH  18  25
ATOM     24  C   UNL     1      -1.402  12.566  23.097  0.00  0.00    +0.000 C 
ATOM     25  O   UNL     1      -1.553  11.144  23.057  0.00  0.00    +0.000 OA
ENDBRANCH  18  25
ENDBRANCH  14  21
ENDBRANCH   1  15
TORSDOF 4
ENDMDL
MODEL 2
REMARK VINA RESULT:      -8.3      2.263      2.668
REMARK  Name = 
REMARK  6 active torsions:
REMARK  status: ('A' for Active; 'I' for Inactive)
REMARK    1  A    between atoms: C_1  and  O_2
REMARK    2  A    between atoms: O_2  and  C_3
REMARK    3  A    between atoms: C_6  and  N_7
REMARK    4  A    between atoms: C_8  and  C_10
REMARK    5  A    between atoms: C_10  and  N_11
REMARK    6  A    between atoms: C_19  and  C_20
REMARK                            x       y       z     vdW  Elec       q    Type
REMARK                         _______ _______ _______ _____ _____    ______ ____
ROOT
ATOM      1  C   UNL     1       3.278   8.059  17.645  0.00  0.00    +0.000 C 
ENDROOT
BRANCH   1   2
ATOM      2  N   UNL     1       3.748   6.670  17.972  0.00  0.00    +0.000 N 
ATOM      3  C   UNL     1       4.729   6.339  17.020  0.00  0.00    +0.000 C 
ATOM      4  O   UNL     1       4.808   6.817  15.885  0.00  0.00    +0.000 OA
ATOM      5  C   UNL     1       5.445   5.115  17.425  0.00  0.00    +0.000 C 
ATOM      6  O   UNL     1       4.564   4.178  16.813  0.00  0.00    +0.000 OA
ATOM      7  C   UNL     1       3.321   4.268  17.425  0.00  0.00    +0.000 A 
ATOM      8  C   UNL     1       2.663   3.040  17.348  0.00  0.00    +0.000 A 
ATOM      9  C   UNL     1       1.798   2.692  18.348  0.00  0.00    +0.000 A 
ATOM     10  C   UNL     1       1.627   3.570  19.427  0.00  0.00    +0.000 A 
ATOM     11  C   UNL     1       1.110   2.848  20.670  0.00  0.00    +0.000 C 
ATOM     12  C   UNL     1       2.101   4.960  19.337  0.00  0.00    +0.000 A 
ATOM     13  C   UNL     1       2.941   5.378  18.262  0.00  0.00    +0.000 A 
ENDBRANCH   1   2
BRANCH   1  15
ATOM     14  N   UNL     1       0.915   9.333  17.764  0.00  0.00    +0.000 N 
ATOM     15  C   UNL     1       1.865   8.562  18.499  0.00  0.00    +0.000 C 
ATOM     16  O   UNL     1       1.772   8.345  19.711  0.00  0.00    +0.000 OA
ATOM     17  H   UNL     1       1.260   9.613  16.853  0.00  0.00    +0.000 HD
BRANCH  14  21
ATOM     18  C   UNL     1      -2.647  11.661  18.747  0.00  0.00    +0.000 A 
ATOM     19  C   UNL     1      -1.472  11.801  19.509  0.00  0.00    +0.000 A 
ATOM     20  C   UNL     1      -0.279  11.058  19.215  0.00  0.00    +0.000 A 
ATOM     21  C   UNL     1      -0.242  10.126  18.181  0.00  0.00    +0.000 A 
ATOM     22  C   UNL     1      -1.465   9.970  17.465  0.00  0.00    +0.000 A 
ATOM     23  C   UNL     1      -2.650  10.714  17.754  0.00  0.00    +0.000 A 
BRANCH  18  25
ATOM     24  C   UNL     1      -3.774  12.809  20.557  0.00  0.00    +0.000 C 
ATOM     25  O   UNL     1      -3.708  12.428  19.178  0.00  0.00    +0.000 OA
ENDBRANCH  18  25
ENDBRANCH  14  21
ENDBRANCH   1  15
TORSDOF 4
ENDMDL
MODEL 3
REMARK VINA RESULT:      -8.3      2.699      8.722
REMARK  Name = 
REMARK  6 active torsions:
REMARK  status: ('A' for Active; 'I' for Inactive)
REMARK    1  A    between atoms: C_1  and  O_2
REMARK    2  A    between atoms: O_2  and  C_3
REMARK    3  A    between atoms: C_6  and  N_7
REMARK    4  A    between atoms: C_8  and  C_10
REMARK    5  A    between atoms: C_10  and  N_11
REMARK    6  A    between atoms: C_19  and  C_20
REMARK                            x       y       z     vdW  Elec       q    Type
REMARK                         _______ _______ _______ _____ _____    ______ ____
ROOT
ATOM      1  C   UNL     1       1.275   9.322  19.640  0.00  0.00    +0.000 C 
ENDROOT
BRANCH   1   2
ATOM      2  N   UNL     1       0.536  10.574  19.259  0.00  0.00    +0.000 N 
ATOM      3  C   UNL     1       0.770  11.509  20.284  0.00  0.00    +0.000 C 
ATOM      4  O   UNL     1       1.043  11.230  21.454  0.00  0.00    +0.000 OA
ATOM      5  C   UNL     1       0.320  12.851  19.865  0.00  0.00    +0.000 C 
ATOM      6  O   UNL     1      -1.029  12.737  20.305  0.00  0.00    +0.000 OA
ATOM      7  C   UNL     1      -1.655  11.737  19.571  0.00  0.00    +0.000 A 
ATOM      8  C   UNL     1      -3.023  11.998  19.483  0.00  0.00    +0.000 A 
ATOM      9  C   UNL     1      -3.702  11.582  18.373  0.00  0.00    +0.000 A 
ATOM     10  C   UNL     1      -2.993  10.933  17.352  0.00  0.00    +0.000 A 
ATOM     11  C   UNL     1      -3.715  11.032  16.009  0.00  0.00    +0.000 C 
ATOM     12  C   UNL     1      -1.636  10.423  17.598  0.00  0.00    +0.000 A 
ATOM     13  C   UNL     1      -0.927  10.772  18.787  0.00  0.00    +0.000 A 
ENDBRANCH   1   2
BRANCH   1  15
ATOM     14  N   UNL     1       2.546   7.196  18.599  0.00  0.00    +0.000 N 
ATOM     15  C   UNL     1       2.003   8.485  18.317  0.00  0.00    +0.000 C 
ATOM     16  O   UNL     1       2.130   9.053  17.228  0.00  0.00    +0.000 OA
ATOM     17  H   UNL     1       2.561   6.986  19.591  0.00  0.00    +0.000 HD
BRANCH  14  21
ATOM     18  C   UNL     1       5.077   4.341  16.472  0.00  0.00    +0.000 A 
ATOM     19  C   UNL     1       5.415   5.707  16.502  0.00  0.00    +0.000 A 
ATOM     20  C   UNL     1       4.611   6.677  17.194  0.00  0.00    +0.000 A 
ATOM     21  C   UNL     1       3.430   6.313  17.838  0.00  0.00    +0.000 A 
ATOM     22  C   UNL     1       3.091   4.932  17.741  0.00  0.00    +0.000 A 
ATOM     23  C   UNL     1       3.893   3.967  17.057  0.00  0.00    +0.000 A 
BRANCH  18  25
ATOM     24  C   UNL     1       6.353   3.989  14.445  0.00  0.00    +0.000 C 
ATOM     25  O   UNL     1       5.940   3.551  15.743  0.00  0.00    +0.000 OA
ENDBRANCH  18  25
ENDBRANCH  14  21
ENDBRANCH   1  15
TORSDOF 4
ENDMDL
MODEL 4
REMARK VINA RESULT:      -8.3      0.603      1.142
REMARK  Name = 
REMARK  6 active torsions:
REMARK  status: ('A' for Active; 'I' for Inactive)
REMARK    1  A    between atoms: C_1  and  O_2
REMARK    2  A    between atoms: O_2  and  C_3
REMARK    3  A    between atoms: C_6  and  N_7
REMARK    4  A    between atoms: C_8  and  C_10
REMARK    5  A    between atoms: C_10  and  N_11
REMARK    6  A    between atoms: C_19  and  C_20
REMARK                            x       y       z     vdW  Elec       q    Type
REMARK                         _______ _______ _______ _____ _____    ______ ____
ROOT
ATOM      1  C   UNL     1       2.857   7.475  17.436  0.00  0.00    +0.000 C 
ENDROOT
BRANCH   1   2
ATOM      2  N   UNL     1       3.553   6.381  18.195  0.00  0.00    +0.000 N 
ATOM      3  C   UNL     1       4.746   6.103  17.502  0.00  0.00    +0.000 C 
ATOM      4  O   UNL     1       4.930   6.297  16.297  0.00  0.00    +0.000 OA
ATOM      5  C   UNL     1       5.625   5.246  18.319  0.00  0.00    +0.000 C 
ATOM      6  O   UNL     1       5.107   3.991  17.890  0.00  0.00    +0.000 OA
ATOM      7  C   UNL     1       3.782   3.893  18.294  0.00  0.00    +0.000 A 
ATOM      8  C   UNL     1       3.441   2.554  18.483  0.00  0.00    +0.000 A 
ATOM      9  C   UNL     1       2.502   2.240  19.425  0.00  0.00    +0.000 A 
ATOM     10  C   UNL     1       1.938   3.274  20.186  0.00  0.00    +0.000 A 
ATOM     11  C   UNL     1       1.368   2.761  21.507  0.00  0.00    +0.000 C 
ATOM     12  C   UNL     1       2.100   4.676  19.770  0.00  0.00    +0.000 A 
ATOM     13  C   UNL     1       3.013   5.031  18.732  0.00  0.00    +0.000 A 
ENDBRANCH   1   2
BRANCH   1  15
ATOM     14  N   UNL     1       1.694   8.368  19.688  0.00  0.00    +0.000 N 
ATOM     15  C   UNL     1       2.228   8.747  18.420  0.00  0.00    +0.000 C 
ATOM     16  O   UNL     1       2.156   9.894  17.967  0.00  0.00    +0.000 OA
ATOM     17  H   UNL     1       1.622   7.363  19.798  0.00  0.00    +0.000 HD
BRANCH  14  21
ATOM     18  C   UNL     1      -0.763  10.732  22.418  0.00  0.00    +0.000 A 
ATOM     19  C   UNL     1       0.005   9.657  22.902  0.00  0.00    +0.000 A 
ATOM     20  C   UNL     1       0.830   8.858  22.038  0.00  0.00    +0.000 A 
ATOM     21  C   UNL     1       0.875   9.087  20.665  0.00  0.00    +0.000 A 
ATOM     22  C   UNL     1       0.043  10.148  20.202  0.00  0.00    +0.000 A 
ATOM     23  C   UNL     1      -0.773  10.945  21.063  0.00  0.00    +0.000 A 
BRANCH  18  25
ATOM     24  C   UNL     1      -2.076  12.659  23.071  0.00  0.00    +0.000 C 
ATOM     25  O   UNL     1      -1.516  11.377  23.375  0.00  0.00    +0.000 OA
ENDBRANCH  18  25
ENDBRANCH  14  21
ENDBRANCH   1  15
TORSDOF 4
ENDMDL
MODEL 5
REMARK VINA RESULT:      -8.2      2.909      8.750
REMARK  Name = 
REMARK  6 active torsions:
REMARK  status: ('A' for Active; 'I' for Inactive)
REMARK    1  A    between atoms: C_1  and  O_2
REMARK    2  A    between atoms: O_2  and  C_3
REMARK    3  A    between atoms: C_6  and  N_7
REMARK    4  A    between atoms: C_8  and  C_10
REMARK    5  A    between atoms: C_10  and  N_11
REMARK    6  A    between atoms: C_19  and  C_20
REMARK                            x       y       z     vdW  Elec       q    Type
REMARK                         _______ _______ _______ _____ _____    ______ ____
ROOT
ATOM      1  C   UNL     1       1.033   9.561  19.471  0.00  0.00    +0.000 C 
ENDROOT
BRANCH   1   2
ATOM      2  N   UNL     1       0.181  10.682  18.945  0.00  0.00    +0.000 N 
ATOM      3  C   UNL     1       0.146  11.668  19.948  0.00  0.00    +0.000 C 
ATOM      4  O   UNL     1       0.302  11.461  21.155  0.00  0.00    +0.000 OA
ATOM      5  C   UNL     1      -0.428  12.919  19.417  0.00  0.00    +0.000 C 
ATOM      6  O   UNL     1      -1.794  12.623  19.690  0.00  0.00    +0.000 OA
ATOM      7  C   UNL     1      -2.173  11.524  18.929  0.00  0.00    +0.000 A 
ATOM      8  C   UNL     1      -3.541  11.583  18.659  0.00  0.00    +0.000 A 
ATOM      9  C   UNL     1      -4.005  11.044  17.492  0.00  0.00    +0.000 A 
ATOM     10  C   UNL     1      -3.085  10.478  16.597  0.00  0.00    +0.000 A 
ATOM     11  C   UNL     1      -3.633  10.436  15.172  0.00  0.00    +0.000 C 
ATOM     12  C   UNL     1      -1.714  10.176  17.034  0.00  0.00    +0.000 A 
ATOM     13  C   UNL     1      -1.221  10.654  18.285  0.00  0.00    +0.000 A 
ENDBRANCH   1   2
BRANCH   1  15
ATOM     14  N   UNL     1       2.268   7.336  18.608  0.00  0.00    +0.000 N 
ATOM     15  C   UNL     1       1.866   8.659  18.257  0.00  0.00    +0.000 C 
ATOM     16  O   UNL     1       2.181   9.207  17.195  0.00  0.00    +0.000 OA
ATOM     17  H   UNL     1       2.134   7.135  19.592  0.00  0.00    +0.000 HD
BRANCH  14  21
ATOM     18  C   UNL     1       5.091   4.710  16.556  0.00  0.00    +0.000 A 
ATOM     19  C   UNL     1       3.945   4.177  17.178  0.00  0.00    +0.000 A 
ATOM     20  C   UNL     1       2.991   5.007  17.858  0.00  0.00    +0.000 A 
ATOM     21  C   UNL     1       3.177   6.383  17.971  0.00  0.00    +0.000 A 
ATOM     22  C   UNL     1       4.374   6.881  17.378  0.00  0.00    +0.000 A 
ATOM     23  C   UNL     1       5.321   6.055  16.696  0.00  0.00    +0.000 A 
BRANCH  18  25
ATOM     24  C   UNL     1       6.306   3.949  14.605  0.00  0.00    +0.000 C 
ATOM     25  O   UNL     1       5.916   3.773  15.971  0.00  0.00    +0.000 OA
ENDBRANCH  18  25
ENDBRANCH  14  21
ENDBRANCH   1  15
TORSDOF 4
ENDMDL
MODEL 6
REMARK VINA RESULT:      -8.1      2.484      8.354
REMARK  Name = 
REMARK  6 active torsions:
REMARK  status: ('A' for Active; 'I' for Inactive)
REMARK    1  A    between atoms: C_1  and  O_2
REMARK    2  A    between atoms: O_2  and  C_3
REMARK    3  A    between atoms: C_6  and  N_7
REMARK    4  A    between atoms: C_8  and  C_10
REMARK    5  A    between atoms: C_10  and  N_11
REMARK    6  A    between atoms: C_19  and  C_20
REMARK                            x       y       z     vdW  Elec       q    Type
REMARK                         _______ _______ _______ _____ _____    ______ ____
ROOT
ATOM      1  C   UNL     1       0.986   9.857  20.797  0.00  0.00    +0.000 C 
ENDROOT
BRANCH   1   2
ATOM      2  N   UNL     1       0.308  10.910  19.967  0.00  0.00    +0.000 N 
ATOM      3  C   UNL     1       0.145  12.035  20.795  0.00  0.00    +0.000 C 
ATOM      4  O   UNL     1       0.065  12.007  22.026  0.00  0.00    +0.000 OA
ATOM      5  C   UNL     1      -0.253  13.208  19.994  0.00  0.00    +0.000 C 
ATOM      6  O   UNL     1      -1.660  12.993  20.043  0.00  0.00    +0.000 OA
ATOM      7  C   UNL     1      -1.953  11.805  19.386  0.00  0.00    +0.000 A 
ATOM      8  C   UNL     1      -3.243  11.860  18.857  0.00  0.00    +0.000 A 
ATOM      9  C   UNL     1      -3.514  11.166  17.711  0.00  0.00    +0.000 A 
ATOM     10  C   UNL     1      -2.479  10.448  17.096  0.00  0.00    +0.000 A 
ATOM     11  C   UNL     1      -2.758  10.209  15.613  0.00  0.00    +0.000 C 
ATOM     12  C   UNL     1      -1.229  10.176  17.823  0.00  0.00    +0.000 A 
ATOM     13  C   UNL     1      -0.949  10.823  19.064  0.00  0.00    +0.000 A 
ENDBRANCH   1   2
BRANCH   1  15
ATOM     14  N   UNL     1       1.599   7.245  20.643  0.00  0.00    +0.000 N 
ATOM     15  C   UNL     1       1.507   8.468  19.913  0.00  0.00    +0.000 C 
ATOM     16  O   UNL     1       1.883   8.592  18.743  0.00  0.00    +0.000 OA
ATOM     17  H   UNL     1       1.478   7.375  21.641  0.00  0.00    +0.000 HD
BRANCH  14  21
ATOM     18  C   UNL     1       3.293   3.285  19.922  0.00  0.00    +0.000 A 
ATOM     19  C   UNL     1       3.922   4.433  19.404  0.00  0.00    +0.000 A 
ATOM     20  C   UNL     1       3.399   5.753  19.623  0.00  0.00    +0.000 A 
ATOM     21  C   UNL     1       2.215   5.956  20.327  0.00  0.00    +0.000 A 
ATOM     22  C   UNL     1       1.576   4.768  20.789  0.00  0.00    +0.000 A 
ATOM     23  C   UNL     1       2.099   3.455  20.576  0.00  0.00    +0.000 A 
BRANCH  18  25
ATOM     24  C   UNL     1       3.594   1.465  18.352  0.00  0.00    +0.000 C 
ATOM     25  O   UNL     1       3.911   2.095  19.598  0.00  0.00    +0.000 OA
ENDBRANCH  18  25
ENDBRANCH  14  21
ENDBRANCH   1  15
TORSDOF 4
ENDMDL
MODEL 7
REMARK VINA RESULT:      -8.1      5.439      7.432
REMARK  Name = 
REMARK  6 active torsions:
REMARK  status: ('A' for Active; 'I' for Inactive)
REMARK    1  A    between atoms: C_1  and  O_2
REMARK    2  A    between atoms: O_2  and  C_3
REMARK    3  A    between atoms: C_6  and  N_7
REMARK    4  A    between atoms: C_8  and  C_10
REMARK    5  A    between atoms: C_10  and  N_11
REMARK    6  A    between atoms: C_19  and  C_20
REMARK                            x       y       z     vdW  Elec       q    Type
REMARK                         _______ _______ _______ _____ _____    ______ ____
ROOT
ATOM      1  C   UNL     1       6.830   7.705  17.073  0.00  0.00    +0.000 C 
ENDROOT
BRANCH   1   2
ATOM      2  N   UNL     1       6.389   6.326  17.475  0.00  0.00    +0.000 N 
ATOM      3  C   UNL     1       6.950   5.434  16.542  0.00  0.00    +0.000 C 
ATOM      4  O   UNL     1       7.263   5.721  15.383  0.00  0.00    +0.000 OA
ATOM      5  C   UNL     1       6.807   4.043  17.013  0.00  0.00    +0.000 C 
ATOM      6  O   UNL     1       5.524   3.792  16.450  0.00  0.00    +0.000 OA
ATOM      7  C   UNL     1       4.598   4.632  17.055  0.00  0.00    +0.000 A 
ATOM      8  C   UNL     1       3.336   4.037  17.043  0.00  0.00    +0.000 A 
ATOM      9  C   UNL     1       2.466   4.318  18.058  0.00  0.00    +0.000 A 
ATOM     10  C   UNL     1       2.884   5.170  19.089  0.00  0.00    +0.000 A 
ATOM     11  C   UNL     1       2.077   4.954  20.368  0.00  0.00    +0.000 C 
ATOM     12  C   UNL     1       4.090   5.997  18.927  0.00  0.00    +0.000 A 
ATOM     13  C   UNL     1       4.981   5.785  17.831  0.00  0.00    +0.000 A 
ENDBRANCH   1   2
BRANCH   1  15
ATOM     14  N   UNL     1       8.203   9.836  17.965  0.00  0.00    +0.000 N 
ATOM     15  C   UNL     1       7.961   8.441  18.149  0.00  0.00    +0.000 C 
ATOM     16  O   UNL     1       8.594   7.741  18.947  0.00  0.00    +0.000 OA
ATOM     17  H   UNL     1       7.777  10.198  17.120  0.00  0.00    +0.000 HD
BRANCH  14  21
ATOM     18  C   UNL     1      11.367  12.556  19.257  0.00  0.00    +0.000 A 
ATOM     19  C   UNL     1      10.799  11.642  20.165  0.00  0.00    +0.000 A 
ATOM     20  C   UNL     1       9.760  10.728  19.778  0.00  0.00    +0.000 A 
ATOM     21  C   UNL     1       9.234  10.732  18.488  0.00  0.00    +0.000 A 
ATOM     22  C   UNL     1       9.795  11.706  17.611  0.00  0.00    +0.000 A 
ATOM     23  C   UNL     1      10.831  12.612  17.995  0.00  0.00    +0.000 A 
BRANCH  18  25
ATOM     24  C   UNL     1      12.229  14.792  19.603  0.00  0.00    +0.000 C 
ATOM     25  O   UNL     1      12.333  13.378  19.797  0.00  0.00    +0.000 OA
ENDBRANCH  18  25
ENDBRANCH  14  21
ENDBRANCH   1  15
TORSDOF 4
ENDMDL
MODEL 8
REMARK VINA RESULT:      -8.1      2.942      8.669
REMARK  Name = 
REMARK  6 active torsions:
REMARK  status: ('A' for Active; 'I' for Inactive)
REMARK    1  A    between atoms: C_1  and  O_2
REMARK    2  A    between atoms: O_2  and  C_3
REMARK    3  A    between atoms: C_6  and  N_7
REMARK    4  A    between atoms: C_8  and  C_10
REMARK    5  A    between atoms: C_10  and  N_11
REMARK    6  A    between atoms: C_19  and  C_20
REMARK                            x       y       z     vdW  Elec       q    Type
REMARK                         _______ _______ _______ _____ _____    ______ ____
ROOT
ATOM      1  C   UNL     1       0.610   9.697  19.627  0.00  0.00    +0.000 C 
ENDROOT
BRANCH   1   2
ATOM      2  N   UNL     1      -0.233  10.757  18.975  0.00  0.00    +0.000 N 
ATOM      3  C   UNL     1      -0.441  11.759  19.941  0.00  0.00    +0.000 C 
ATOM      4  O   UNL     1      -0.420  11.585  21.162  0.00  0.00    +0.000 OA
ATOM      5  C   UNL     1      -1.015  12.964  19.313  0.00  0.00    +0.000 C 
ATOM      6  O   UNL     1      -2.386  12.595  19.430  0.00  0.00    +0.000 OA
ATOM      7  C   UNL     1      -2.610  11.462  18.658  0.00  0.00    +0.000 A 
ATOM      8  C   UNL     1      -3.937  11.436  18.226  0.00  0.00    +0.000 A 
ATOM      9  C   UNL     1      -4.227  10.849  17.027  0.00  0.00    +0.000 A 
ATOM     10  C   UNL     1      -3.178  10.320  16.263  0.00  0.00    +0.000 A 
ATOM     11  C   UNL     1      -3.547  10.219  14.784  0.00  0.00    +0.000 C 
ATOM     12  C   UNL     1      -1.854  10.106  16.867  0.00  0.00    +0.000 A 
ATOM     13  C   UNL     1      -1.542  10.636  18.154  0.00  0.00    +0.000 A 
ENDBRANCH   1   2
BRANCH   1  15
ATOM     14  N   UNL     1       2.222   7.643  18.991  0.00  0.00    +0.000 N 
ATOM     15  C   UNL     1       1.727   8.914  18.569  0.00  0.00    +0.000 C 
ATOM     16  O   UNL     1       2.139   9.505  17.566  0.00  0.00    +0.000 OA
ATOM     17  H   UNL     1       1.958   7.418  19.944  0.00  0.00    +0.000 HD
BRANCH  14  21
ATOM     18  C   UNL     1       5.562   5.074  17.842  0.00  0.00    +0.000 A 
ATOM     19  C   UNL     1       5.155   6.130  17.005  0.00  0.00    +0.000 A 
ATOM     20  C   UNL     1       4.065   7.000  17.349  0.00  0.00    +0.000 A 
ATOM     21  C   UNL     1       3.328   6.812  18.516  0.00  0.00    +0.000 A 
ATOM     22  C   UNL     1       3.733   5.701  19.313  0.00  0.00    +0.000 A 
ATOM     23  C   UNL     1       4.820   4.839  18.972  0.00  0.00    +0.000 A 
BRANCH  18  25
ATOM     24  C   UNL     1       7.003   4.489  15.987  0.00  0.00    +0.000 C 
ATOM     25  O   UNL     1       6.607   4.320  17.351  0.00  0.00    +0.000 OA
ENDBRANCH  18  25
ENDBRANCH  14  21
ENDBRANCH   1  15
TORSDOF 4
ENDMDL
MODEL 9
REMARK VINA RESULT:      -8.0      2.655      4.540
REMARK  Name = 
REMARK  6 active torsions:
REMARK  status: ('A' for Active; 'I' for Inactive)
REMARK    1  A    between atoms: C_1  and  O_2
REMARK    2  A    between atoms: O_2  and  C_3
REMARK    3  A    between atoms: C_6  and  N_7
REMARK    4  A    between atoms: C_8  and  C_10
REMARK    5  A    between atoms: C_10  and  N_11
REMARK    6  A    between atoms: C_19  and  C_20
REMARK                            x       y       z     vdW  Elec       q    Type
REMARK                         _______ _______ _______ _____ _____    ______ ____
ROOT
ATOM      1  C   UNL     1       4.249   3.891  18.879  0.00  0.00    +0.000 C 
ENDROOT
BRANCH   1   2
ATOM      2  N   UNL     1       5.514   3.925  18.067  0.00  0.00    +0.000 N 
ATOM      3  C   UNL     1       6.441   4.694  18.795  0.00  0.00    +0.000 C 
ATOM      4  O   UNL     1       6.151   5.573  19.610  0.00  0.00    +0.000 OA
ATOM      5  C   UNL     1       7.790   4.551  18.216  0.00  0.00    +0.000 C 
ATOM      6  O   UNL     1       7.694   5.605  17.264  0.00  0.00    +0.000 OA
ATOM      7  C   UNL     1       6.707   5.284  16.341  0.00  0.00    +0.000 A 
ATOM      8  C   UNL     1       6.989   5.888  15.115  0.00  0.00    +0.000 A 
ATOM      9  C   UNL     1       6.588   5.265  13.967  0.00  0.00    +0.000 A 
ATOM     10  C   UNL     1       5.934   4.029  14.063  0.00  0.00    +0.000 A 
ATOM     11  C   UNL     1       6.050   3.223  12.770  0.00  0.00    +0.000 C 
ATOM     12  C   UNL     1       5.402   3.567  15.355  0.00  0.00    +0.000 A 
ATOM     13  C   UNL     1       5.735   4.244  16.566  0.00  0.00    +0.000 A 
ENDBRANCH   1   2
BRANCH   1  15
ATOM     14  N   UNL     1       3.223   6.366  19.087  0.00  0.00    +0.000 N 
ATOM     15  C   UNL     1       3.087   5.094  18.454  0.00  0.00    +0.000 C 
ATOM     16  O   UNL     1       2.135   4.795  17.726  0.00  0.00    +0.000 OA
ATOM     17  H   UNL     1       3.916   6.362  19.827  0.00  0.00    +0.000 HD
BRANCH  14  21
ATOM     18  C   UNL     1       0.676   9.913  19.124  0.00  0.00    +0.000 A 
ATOM     19  C   UNL     1       0.853   9.151  20.295  0.00  0.00    +0.000 A 
ATOM     20  C   UNL     1       1.685   7.981  20.325  0.00  0.00    +0.000 A 
ATOM     21  C   UNL     1       2.328   7.519  19.179  0.00  0.00    +0.000 A 
ATOM     22  C   UNL     1       2.084   8.284  18.001  0.00  0.00    +0.000 A 
ATOM     23  C   UNL     1       1.259   9.451  17.972  0.00  0.00    +0.000 A 
BRANCH  18  25
ATOM     24  C   UNL     1      -0.590  11.383  20.574  0.00  0.00    +0.000 C 
ATOM     25  O   UNL     1      -0.175  10.989  19.262  0.00  0.00    +0.000 OA
ENDBRANCH  18  25
ENDBRANCH  14  21
ENDBRANCH   1  15
TORSDOF 4
ENDMDL
