MODEL 1
REMARK VINA RESULT:      -8.7      0.000      0.000
REMARK  Name = 
REMARK  4 active torsions:
REMARK  status: ('A' for Active; 'I' for Inactive)
REMARK    1  A    between atoms: C_2  and  C_9
REMARK    2  A    between atoms: C_11  and  S_12
REMARK    3  A    between atoms: S_12  and  N_15
REMARK    4  A    between atoms: N_15  and  C_16
REMARK                            x       y       z     vdW  Elec       q    Type
REMARK                         _______ _______ _______ _____ _____    ______ ____
ROOT
ATOM      1  C   UNL     1       3.412   5.924  18.595  0.00  0.00    +0.000 A 
ATOM      2  C   UNL     1       4.732   6.185  18.171  0.00  0.00    +0.000 A 
ATOM      3  C   UNL     1       5.636   5.136  17.961  0.00  0.00    +0.000 A 
ATOM      4  C   UNL     1       5.235   3.813  18.139  0.00  0.00    +0.000 A 
ATOM      5  C   UNL     1       3.933   3.545  18.557  0.00  0.00    +0.000 A 
ATOM      6  C   UNL     1       3.021   4.588  18.788  0.00  0.00    +0.000 A 
ATOM      7 CL   UNL     1       1.459   4.102  19.349  0.00  0.00    +0.000 Cl
ENDROOT
BRANCH   1   9
ATOM      8  O   UNL     1       2.282   7.834  17.893  0.00  0.00    +0.000 OA
ATOM      9  C   UNL     1       2.558   7.128  18.859  0.00  0.00    +0.000 C 
ATOM     10  N   UNL     1       2.171   7.339  20.157  0.00  0.00    +0.000 N 
ATOM     11  C   UNL     1       1.480   8.428  20.605  0.00  0.00    +0.000 A 
ATOM     12  N   UNL     1       0.871   9.350  19.808  0.00  0.00    +0.000 NA
ATOM     13  C   UNL     1       0.380  10.217  20.661  0.00  0.00    +0.000 A 
ATOM     14  N   UNL     1       0.702   9.834  21.921  0.00  0.00    +0.000 N 
ATOM     15  N   UNL     1       1.369   8.668  21.916  0.00  0.00    +0.000 NA
ATOM     16  H   UNL     1       2.513   6.760  20.908  0.00  0.00    +0.000 HD
ATOM     17  H   UNL     1       0.514  10.300  22.801  0.00  0.00    +0.000 HD
ENDBRANCH   1   9
BRANCH   3  18
ATOM     18  S   UNL     1       7.292   5.490  17.403  0.00  0.00    +0.000 S 
ATOM     19  O   UNL     1       7.827   6.531  18.255  0.00  0.00    +0.000 OA
ATOM     20  O   UNL     1       7.970   4.219  17.252  0.00  0.00    +0.000 OA
BRANCH  18  21
ATOM     21  N   UNL     1       7.055   6.100  15.849  0.00  0.00    +0.000 N 
ATOM     22  H   UNL     1       7.688   6.867  15.628  0.00  0.00    +0.000 HD
BRANCH  21  23
ATOM     23  C   UNL     1       6.691   5.214  14.801  0.00  0.00    +0.000 A 
ATOM     24  C   UNL     1       7.566   5.011  13.731  0.00  0.00    +0.000 A 
ATOM     25  C   UNL     1       7.209   4.147  12.694  0.00  0.00    +0.000 A 
ATOM     26  C   UNL     1       5.971   3.509  12.723  0.00  0.00    +0.000 A 
ATOM     27 CL   UNL     1       5.525   2.448  11.445  0.00  0.00    +0.000 Cl
ATOM     28  C   UNL     1       5.087   3.727  13.780  0.00  0.00    +0.000 A 
ATOM     29  C   UNL     1       5.451   4.577  14.826  0.00  0.00    +0.000 A 
ENDBRANCH  21  23
ENDBRANCH  18  21
ENDBRANCH   3  18
TORSDOF 4
ENDMDL
MODEL 2
REMARK VINA RESULT:      -8.5      1.064      1.457
REMARK  Name = 
REMARK  4 active torsions:
REMARK  status: ('A' for Active; 'I' for Inactive)
REMARK    1  A    between atoms: C_2  and  C_9
REMARK    2  A    between atoms: C_11  and  S_12
REMARK    3  A    between atoms: S_12  and  N_15
REMARK    4  A    between atoms: N_15  and  C_16
REMARK                            x       y       z     vdW  Elec       q    Type
REMARK                         _______ _______ _______ _____ _____    ______ ____
ROOT
ATOM      1  C   UNL     1       3.435   5.738  18.858  0.00  0.00    +0.000 A 
ATOM      2  C   UNL     1       4.711   6.070  18.354  0.00  0.00    +0.000 A 
ATOM      3  C   UNL     1       5.631   5.068  18.021  0.00  0.00    +0.000 A 
ATOM      4  C   UNL     1       5.288   3.724  18.154  0.00  0.00    +0.000 A 
ATOM      5  C   UNL     1       4.030   3.386  18.650  0.00  0.00    +0.000 A 
ATOM      6  C   UNL     1       3.105   4.381  19.005  0.00  0.00    +0.000 A 
ATOM      7 CL   UNL     1       1.606   3.808  19.651  0.00  0.00    +0.000 Cl
ENDROOT
BRANCH   1   9
ATOM      8  O   UNL     1       1.936   6.785  20.300  0.00  0.00    +0.000 OA
ATOM      9  C   UNL     1       2.564   6.895  19.250  0.00  0.00    +0.000 C 
ATOM     10  N   UNL     1       2.538   7.966  18.396  0.00  0.00    +0.000 N 
ATOM     11  C   UNL     1       1.735   9.062  18.533  0.00  0.00    +0.000 A 
ATOM     12  N   UNL     1       1.012   9.369  19.646  0.00  0.00    +0.000 NA
ATOM     13  C   UNL     1       0.376  10.464  19.308  0.00  0.00    +0.000 A 
ATOM     14  N   UNL     1       0.695  10.788  18.031  0.00  0.00    +0.000 N 
ATOM     15  N   UNL     1       1.597   9.931  17.525  0.00  0.00    +0.000 NA
ATOM     16  H   UNL     1       3.016   7.943  17.508  0.00  0.00    +0.000 HD
ATOM     17  H   UNL     1       0.348  11.547  17.455  0.00  0.00    +0.000 HD
ENDBRANCH   1   9
BRANCH   3  18
ATOM     18  S   UNL     1       7.228   5.512  17.364  0.00  0.00    +0.000 S 
ATOM     19  O   UNL     1       7.759   6.577  18.188  0.00  0.00    +0.000 OA
ATOM     20  O   UNL     1       7.961   4.280  17.161  0.00  0.00    +0.000 OA
BRANCH  18  21
ATOM     21  N   UNL     1       6.862   6.114  15.832  0.00  0.00    +0.000 N 
ATOM     22  H   UNL     1       7.386   6.959  15.607  0.00  0.00    +0.000 HD
BRANCH  21  23
ATOM     23  C   UNL     1       6.576   5.208  14.777  0.00  0.00    +0.000 A 
ATOM     24  C   UNL     1       7.510   5.015  13.757  0.00  0.00    +0.000 A 
ATOM     25  C   UNL     1       7.229   4.131  12.713  0.00  0.00    +0.000 A 
ATOM     26  C   UNL     1       6.007   3.463  12.685  0.00  0.00    +0.000 A 
ATOM     27 CL   UNL     1       5.656   2.377  11.399  0.00  0.00    +0.000 Cl
ATOM     28  C   UNL     1       5.064   3.670  13.692  0.00  0.00    +0.000 A 
ATOM     29  C   UNL     1       5.352   4.541  14.745  0.00  0.00    +0.000 A 
ENDBRANCH  21  23
ENDBRANCH  18  21
ENDBRANCH   3  18
TORSDOF 4
ENDMDL
MODEL 3
REMARK VINA RESULT:      -8.0      0.981      1.397
REMARK  Name = 
REMARK  4 active torsions:
REMARK  status: ('A' for Active; 'I' for Inactive)
REMARK    1  A    between atoms: C_2  and  C_9
REMARK    2  A    between atoms: C_11  and  S_12
REMARK    3  A    between atoms: S_12  and  N_15
REMARK    4  A    between atoms: N_15  and  C_16
REMARK                            x       y       z     vdW  Elec       q    Type
REMARK                         _______ _______ _______ _____ _____    ______ ____
ROOT
ATOM      1  C   UNL     1       3.311   6.235  19.196  0.00  0.00    +0.000 A 
ATOM      2  C   UNL     1       4.544   6.605  18.618  0.00  0.00    +0.000 A 
ATOM      3  C   UNL     1       5.576   5.670  18.476  0.00  0.00    +0.000 A 
ATOM      4  C   UNL     1       5.390   4.348  18.877  0.00  0.00    +0.000 A 
ATOM      5  C   UNL     1       4.175   3.972  19.447  0.00  0.00    +0.000 A 
ATOM      6  C   UNL     1       3.138   4.904  19.613  0.00  0.00    +0.000 A 
ATOM      7 CL   UNL     1       1.710   4.303  20.379  0.00  0.00    +0.000 Cl
ENDROOT
BRANCH   1   9
ATOM      8  O   UNL     1       1.916   7.892  18.341  0.00  0.00    +0.000 OA
ATOM      9  C   UNL     1       2.308   7.339  19.365  0.00  0.00    +0.000 C 
ATOM     10  N   UNL     1       1.930   7.639  20.647  0.00  0.00    +0.000 N 
ATOM     11  C   UNL     1       1.110   8.670  21.005  0.00  0.00    +0.000 A 
ATOM     12  N   UNL     1       0.361   9.410  20.139  0.00  0.00    +0.000 NA
ATOM     13  C   UNL     1      -0.221  10.294  20.915  0.00  0.00    +0.000 A 
ATOM     14  N   UNL     1       0.183  10.097  22.194  0.00  0.00    +0.000 N 
ATOM     15  N   UNL     1       1.001   9.037  22.286  0.00  0.00    +0.000 NA
ATOM     16  H   UNL     1       2.366   7.196  21.442  0.00  0.00    +0.000 HD
ATOM     17  H   UNL     1      -0.045  10.629  23.027  0.00  0.00    +0.000 HD
ENDBRANCH   1   9
BRANCH   3  18
ATOM     18  S   UNL     1       7.117   6.156  17.721  0.00  0.00    +0.000 S 
ATOM     19  O   UNL     1       6.829   7.225  16.789  0.00  0.00    +0.000 OA
ATOM     20  O   UNL     1       8.078   6.328  18.791  0.00  0.00    +0.000 OA
BRANCH  18  21
ATOM     21  N   UNL     1       7.583   4.776  16.870  0.00  0.00    +0.000 N 
ATOM     22  H   UNL     1       7.830   4.002  17.485  0.00  0.00    +0.000 HD
BRANCH  21  23
ATOM     23  C   UNL     1       6.949   4.471  15.638  0.00  0.00    +0.000 A 
ATOM     24  C   UNL     1       5.767   3.727  15.631  0.00  0.00    +0.000 A 
ATOM     25  C   UNL     1       5.145   3.418  14.420  0.00  0.00    +0.000 A 
ATOM     26  C   UNL     1       5.722   3.835  13.222  0.00  0.00    +0.000 A 
ATOM     27 CL   UNL     1       4.961   3.451  11.728  0.00  0.00    +0.000 Cl
ATOM     28  C   UNL     1       6.914   4.559  13.225  0.00  0.00    +0.000 A 
ATOM     29  C   UNL     1       7.526   4.884  14.437  0.00  0.00    +0.000 A 
ENDBRANCH  21  23
ENDBRANCH  18  21
ENDBRANCH   3  18
TORSDOF 4
ENDMDL
MODEL 4
REMARK VINA RESULT:      -7.9      3.342      9.243
REMARK  Name = 
REMARK  4 active torsions:
REMARK  status: ('A' for Active; 'I' for Inactive)
REMARK    1  A    between atoms: C_2  and  C_9
REMARK    2  A    between atoms: C_11  and  S_12
REMARK    3  A    between atoms: S_12  and  N_15
REMARK    4  A    between atoms: N_15  and  C_16
REMARK                            x       y       z     vdW  Elec       q    Type
REMARK                         _______ _______ _______ _____ _____    ______ ____
ROOT
ATOM      1  C   UNL     1       2.821   6.474  18.808  0.00  0.00    +0.000 A 
ATOM      2  C   UNL     1       2.384   7.786  18.527  0.00  0.00    +0.000 A 
ATOM      3  C   UNL     1       1.573   8.480  19.433  0.00  0.00    +0.000 A 
ATOM      4  C   UNL     1       1.209   7.894  20.645  0.00  0.00    +0.000 A 
ATOM      5  C   UNL     1       1.637   6.599  20.933  0.00  0.00    +0.000 A 
ATOM      6  C   UNL     1       2.436   5.886  20.024  0.00  0.00    +0.000 A 
ATOM      7 CL   UNL     1       2.847   4.274  20.499  0.00  0.00    +0.000 Cl
ENDROOT
BRANCH   1   9
ATOM      8  O   UNL     1       3.174   4.754  17.279  0.00  0.00    +0.000 OA
ATOM      9  C   UNL     1       3.622   5.804  17.730  0.00  0.00    +0.000 C 
ATOM     10  N   UNL     1       4.788   6.419  17.355  0.00  0.00    +0.000 N 
ATOM     11  C   UNL     1       5.693   5.913  16.467  0.00  0.00    +0.000 A 
ATOM     12  N   UNL     1       5.475   4.844  15.650  0.00  0.00    +0.000 NA
ATOM     13  C   UNL     1       6.615   4.702  15.019  0.00  0.00    +0.000 A 
ATOM     14  N   UNL     1       7.488   5.641  15.459  0.00  0.00    +0.000 N 
ATOM     15  N   UNL     1       6.910   6.457  16.354  0.00  0.00    +0.000 NA
ATOM     16  H   UNL     1       5.131   7.236  17.836  0.00  0.00    +0.000 HD
ATOM     17  H   UNL     1       8.461   5.781  15.208  0.00  0.00    +0.000 HD
ENDBRANCH   1   9
BRANCH   3  18
ATOM     18  S   UNL     1       1.053  10.145  19.065  0.00  0.00    +0.000 S 
ATOM     19  O   UNL     1       1.957  10.675  18.067  0.00  0.00    +0.000 OA
ATOM     20  O   UNL     1      -0.377  10.102  18.838  0.00  0.00    +0.000 OA
BRANCH  18  21
ATOM     21  N   UNL     1       1.287  10.955  20.525  0.00  0.00    +0.000 N 
ATOM     22  H   UNL     1       2.064  11.612  20.488  0.00  0.00    +0.000 HD
BRANCH  21  23
ATOM     23  C   UNL     1       0.162  11.299  21.320  0.00  0.00    +0.000 A 
ATOM     24  C   UNL     1      -0.213  10.476  22.384  0.00  0.00    +0.000 A 
ATOM     25  C   UNL     1      -1.324  10.806  23.162  0.00  0.00    +0.000 A 
ATOM     26  C   UNL     1      -2.065  11.946  22.858  0.00  0.00    +0.000 A 
ATOM     27 CL   UNL     1      -3.437  12.354  23.812  0.00  0.00    +0.000 Cl
ATOM     28  C   UNL     1      -1.704  12.759  21.783  0.00  0.00    +0.000 A 
ATOM     29  C   UNL     1      -0.583  12.438  21.016  0.00  0.00    +0.000 A 
ENDBRANCH  21  23
ENDBRANCH  18  21
ENDBRANCH   3  18
TORSDOF 4
ENDMDL
MODEL 5
REMARK VINA RESULT:      -7.9      1.081      1.552
REMARK  Name = 
REMARK  4 active torsions:
REMARK  status: ('A' for Active; 'I' for Inactive)
REMARK    1  A    between atoms: C_2  and  C_9
REMARK    2  A    between atoms: C_11  and  S_12
REMARK    3  A    between atoms: S_12  and  N_15
REMARK    4  A    between atoms: N_15  and  C_16
REMARK                            x       y       z     vdW  Elec       q    Type
REMARK                         _______ _______ _______ _____ _____    ______ ____
ROOT
ATOM      1  C   UNL     1       3.156   5.209  18.959  0.00  0.00    +0.000 A 
ATOM      2  C   UNL     1       4.390   5.704  18.485  0.00  0.00    +0.000 A 
ATOM      3  C   UNL     1       5.231   4.899  17.707  0.00  0.00    +0.000 A 
ATOM      4  C   UNL     1       4.848   3.605  17.362  0.00  0.00    +0.000 A 
ATOM      5  C   UNL     1       3.630   3.107  17.824  0.00  0.00    +0.000 A 
ATOM      6  C   UNL     1       2.785   3.897  18.621  0.00  0.00    +0.000 A 
ATOM      7 CL   UNL     1       1.333   3.127  19.157  0.00  0.00    +0.000 Cl
ENDROOT
BRANCH   1   9
ATOM      8  O   UNL     1       1.906   5.654  20.872  0.00  0.00    +0.000 OA
ATOM      9  C   UNL     1       2.375   6.135  19.845  0.00  0.00    +0.000 C 
ATOM     10  N   UNL     1       2.246   7.432  19.422  0.00  0.00    +0.000 N 
ATOM     11  C   UNL     1       1.494   8.390  20.039  0.00  0.00    +0.000 A 
ATOM     12  N   UNL     1       0.948   8.275  21.283  0.00  0.00    +0.000 NA
ATOM     13  C   UNL     1       0.291   9.400  21.435  0.00  0.00    +0.000 A 
ATOM     14  N   UNL     1       0.427  10.150  20.314  0.00  0.00    +0.000 N 
ATOM     15  N   UNL     1       1.228   9.546  19.421  0.00  0.00    +0.000 NA
ATOM     16  H   UNL     1       2.588   7.728  18.521  0.00  0.00    +0.000 HD
ATOM     17  H   UNL     1       0.014  11.049  20.089  0.00  0.00    +0.000 HD
ENDBRANCH   1   9
BRANCH   3  18
ATOM     18  S   UNL     1       6.775   5.555  17.101  0.00  0.00    +0.000 S 
ATOM     19  O   UNL     1       7.128   6.683  17.936  0.00  0.00    +0.000 OA
ATOM     20  O   UNL     1       7.675   4.433  16.931  0.00  0.00    +0.000 OA
BRANCH  18  21
ATOM     21  N   UNL     1       6.383   6.100  15.554  0.00  0.00    +0.000 N 
ATOM     22  H   UNL     1       6.714   7.047  15.377  0.00  0.00    +0.000 HD
BRANCH  21  23
ATOM     23  C   UNL     1       6.381   5.182  14.472  0.00  0.00    +0.000 A 
ATOM     24  C   UNL     1       5.291   4.328  14.289  0.00  0.00    +0.000 A 
ATOM     25  C   UNL     1       5.289   3.417  13.230  0.00  0.00    +0.000 A 
ATOM     26  C   UNL     1       6.387   3.352  12.375  0.00  0.00    +0.000 A 
ATOM     27 CL   UNL     1       6.390   2.229  11.072  0.00  0.00    +0.000 Cl
ATOM     28  C   UNL     1       7.485   4.190  12.567  0.00  0.00    +0.000 A 
ATOM     29  C   UNL     1       7.479   5.112  13.615  0.00  0.00    +0.000 A 
ENDBRANCH  21  23
ENDBRANCH  18  21
ENDBRANCH   3  18
TORSDOF 4
ENDMDL
MODEL 6
REMARK VINA RESULT:      -7.9      1.209      1.385
REMARK  Name = 
REMARK  4 active torsions:
REMARK  status: ('A' for Active; 'I' for Inactive)
REMARK    1  A    between atoms: C_2  and  C_9
REMARK    2  A    between atoms: C_11  and  S_12
REMARK    3  A    between atoms: S_12  and  N_15
REMARK    4  A    between atoms: N_15  and  C_16
REMARK                            x       y       z     vdW  Elec       q    Type
REMARK                         _______ _______ _______ _____ _____    ______ ____
ROOT
ATOM      1  C   UNL     1       2.998   5.274  18.892  0.00  0.00    +0.000 A 
ATOM      2  C   UNL     1       4.203   5.768  18.348  0.00  0.00    +0.000 A 
ATOM      3  C   UNL     1       4.969   4.983  17.477  0.00  0.00    +0.000 A 
ATOM      4  C   UNL     1       4.535   3.710  17.109  0.00  0.00    +0.000 A 
ATOM      5  C   UNL     1       3.345   3.214  17.640  0.00  0.00    +0.000 A 
ATOM      6  C   UNL     1       2.577   3.983  18.529  0.00  0.00    +0.000 A 
ATOM      7 CL   UNL     1       1.154   3.216  19.141  0.00  0.00    +0.000 Cl
ENDROOT
BRANCH   1   9
ATOM      8  O   UNL     1       1.916   5.661  20.917  0.00  0.00    +0.000 OA
ATOM      9  C   UNL     1       2.303   6.174  19.871  0.00  0.00    +0.000 C 
ATOM     10  N   UNL     1       2.153   7.486  19.505  0.00  0.00    +0.000 N 
ATOM     11  C   UNL     1       1.464   8.427  20.215  0.00  0.00    +0.000 A 
ATOM     12  N   UNL     1       1.022   8.273  21.495  0.00  0.00    +0.000 NA
ATOM     13  C   UNL     1       0.392   9.397  21.739  0.00  0.00    +0.000 A 
ATOM     14  N   UNL     1       0.441  10.184  20.637  0.00  0.00    +0.000 N 
ATOM     15  N   UNL     1       1.159   9.606  19.661  0.00  0.00    +0.000 NA
ATOM     16  H   UNL     1       2.421   7.811  18.588  0.00  0.00    +0.000 HD
ATOM     17  H   UNL     1       0.021  11.093  20.478  0.00  0.00    +0.000 HD
ENDBRANCH   1   9
BRANCH   3  18
ATOM     18  S   UNL     1       6.476   5.638  16.785  0.00  0.00    +0.000 S 
ATOM     19  O   UNL     1       6.794   6.853  17.503  0.00  0.00    +0.000 OA
ATOM     20  O   UNL     1       7.418   4.541  16.707  0.00  0.00    +0.000 OA
BRANCH  18  21
ATOM     21  N   UNL     1       6.041   6.016  15.200  0.00  0.00    +0.000 N 
ATOM     22  H   UNL     1       6.137   7.009  14.994  0.00  0.00    +0.000 HD
BRANCH  21  23
ATOM     23  C   UNL     1       6.321   5.090  14.161  0.00  0.00    +0.000 A 
ATOM     24  C   UNL     1       7.492   5.224  13.411  0.00  0.00    +0.000 A 
ATOM     25  C   UNL     1       7.767   4.320  12.383  0.00  0.00    +0.000 A 
ATOM     26  C   UNL     1       6.859   3.303  12.097  0.00  0.00    +0.000 A 
ATOM     27 CL   UNL     1       7.193   2.191  10.828  0.00  0.00    +0.000 Cl
ATOM     28  C   UNL     1       5.680   3.180  12.832  0.00  0.00    +0.000 A 
ATOM     29  C   UNL     1       5.413   4.072  13.872  0.00  0.00    +0.000 A 
ENDBRANCH  21  23
ENDBRANCH  18  21
ENDBRANCH   3  18
TORSDOF 4
ENDMDL
MODEL 7
REMARK VINA RESULT:      -7.9      3.711      8.683
REMARK  Name = 
REMARK  4 active torsions:
REMARK  status: ('A' for Active; 'I' for Inactive)
REMARK    1  A    between atoms: C_2  and  C_9
REMARK    2  A    between atoms: C_11  and  S_12
REMARK    3  A    between atoms: S_12  and  N_15
REMARK    4  A    between atoms: N_15  and  C_16
REMARK                            x       y       z     vdW  Elec       q    Type
REMARK                         _______ _______ _______ _____ _____    ______ ____
ROOT
ATOM      1  C   UNL     1       2.727   6.708  18.795  0.00  0.00    +0.000 A 
ATOM      2  C   UNL     1       2.356   8.015  18.415  0.00  0.00    +0.000 A 
ATOM      3  C   UNL     1       1.569   8.809  19.259  0.00  0.00    +0.000 A 
ATOM      4  C   UNL     1       1.166   8.329  20.503  0.00  0.00    +0.000 A 
ATOM      5  C   UNL     1       1.528   7.039  20.889  0.00  0.00    +0.000 A 
ATOM      6  C   UNL     1       2.301   6.226  20.044  0.00  0.00    +0.000 A 
ATOM      7 CL   UNL     1       2.630   4.636  20.638  0.00  0.00    +0.000 Cl
ENDROOT
BRANCH   1   9
ATOM      8  O   UNL     1       3.048   4.835  17.449  0.00  0.00    +0.000 OA
ATOM      9  C   UNL     1       3.506   5.926  17.778  0.00  0.00    +0.000 C 
ATOM     10  N   UNL     1       4.665   6.494  17.318  0.00  0.00    +0.000 N 
ATOM     11  C   UNL     1       5.553   5.894  16.471  0.00  0.00    +0.000 A 
ATOM     12  N   UNL     1       5.317   4.746  15.776  0.00  0.00    +0.000 NA
ATOM     13  C   UNL     1       6.445   4.534  15.141  0.00  0.00    +0.000 A 
ATOM     14  N   UNL     1       7.328   5.512  15.463  0.00  0.00    +0.000 N 
ATOM     15  N   UNL     1       6.767   6.420  16.279  0.00  0.00    +0.000 NA
ATOM     16  H   UNL     1       5.019   7.355  17.704  0.00  0.00    +0.000 HD
ATOM     17  H   UNL     1       8.295   5.622  15.181  0.00  0.00    +0.000 HD
ENDBRANCH   1   9
BRANCH   3  18
ATOM     18  S   UNL     1       1.133  10.466  18.766  0.00  0.00    +0.000 S 
ATOM     19  O   UNL     1       0.552  11.125  19.916  0.00  0.00    +0.000 OA
ATOM     20  O   UNL     1       2.282  11.021  18.081  0.00  0.00    +0.000 OA
BRANCH  18  21
ATOM     21  N   UNL     1      -0.057  10.221  17.596  0.00  0.00    +0.000 N 
ATOM     22  H   UNL     1       0.105   9.380  17.044  0.00  0.00    +0.000 HD
BRANCH  21  23
ATOM     23  C   UNL     1      -1.399  10.583  17.881  0.00  0.00    +0.000 A 
ATOM     24  C   UNL     1      -2.447   9.788  17.408  0.00  0.00    +0.000 A 
ATOM     25  C   UNL     1      -3.769  10.145  17.679  0.00  0.00    +0.000 A 
ATOM     26  C   UNL     1      -4.036  11.306  18.401  0.00  0.00    +0.000 A 
ATOM     27 CL   UNL     1      -5.664  11.751  18.733  0.00  0.00    +0.000 Cl
ATOM     28  C   UNL     1      -2.992  12.112  18.856  0.00  0.00    +0.000 A 
ATOM     29  C   UNL     1      -1.670  11.746  18.601  0.00  0.00    +0.000 A 
ENDBRANCH  21  23
ENDBRANCH  18  21
ENDBRANCH   3  18
TORSDOF 4
ENDMDL
MODEL 8
REMARK VINA RESULT:      -7.8      1.588      1.935
REMARK  Name = 
REMARK  4 active torsions:
REMARK  status: ('A' for Active; 'I' for Inactive)
REMARK    1  A    between atoms: C_2  and  C_9
REMARK    2  A    between atoms: C_11  and  S_12
REMARK    3  A    between atoms: S_12  and  N_15
REMARK    4  A    between atoms: N_15  and  C_16
REMARK                            x       y       z     vdW  Elec       q    Type
REMARK                         _______ _______ _______ _____ _____    ______ ____
ROOT
ATOM      1  C   UNL     1       3.038   5.864  19.677  0.00  0.00    +0.000 A 
ATOM      2  C   UNL     1       4.368   6.170  19.319  0.00  0.00    +0.000 A 
ATOM      3  C   UNL     1       5.318   5.153  19.164  0.00  0.00    +0.000 A 
ATOM      4  C   UNL     1       4.955   3.817  19.332  0.00  0.00    +0.000 A 
ATOM      5  C   UNL     1       3.643   3.505  19.684  0.00  0.00    +0.000 A 
ATOM      6  C   UNL     1       2.685   4.517  19.861  0.00  0.00    +0.000 A 
ATOM      7 CL   UNL     1       1.114   3.979  20.344  0.00  0.00    +0.000 Cl
ENDROOT
BRANCH   1   9
ATOM      8  O   UNL     1       1.418   7.017  20.888  0.00  0.00    +0.000 OA
ATOM      9  C   UNL     1       2.129   7.040  19.888  0.00  0.00    +0.000 C 
ATOM     10  N   UNL     1       2.168   8.028  18.940  0.00  0.00    +0.000 N 
ATOM     11  C   UNL     1       1.349   9.120  18.908  0.00  0.00    +0.000 A 
ATOM     12  N   UNL     1       0.534   9.517  19.925  0.00  0.00    +0.000 NA
ATOM     13  C   UNL     1      -0.079  10.568  19.436  0.00  0.00    +0.000 A 
ATOM     14  N   UNL     1       0.342  10.777  18.165  0.00  0.00    +0.000 N 
ATOM     15  N   UNL     1       1.289   9.891  17.816  0.00  0.00    +0.000 NA
ATOM     16  H   UNL     1       2.717   7.930  18.100  0.00  0.00    +0.000 HD
ATOM     17  H   UNL     1       0.039  11.476  17.495  0.00  0.00    +0.000 HD
ENDBRANCH   1   9
BRANCH   3  18
ATOM     18  S   UNL     1       6.987   5.562  18.689  0.00  0.00    +0.000 S 
ATOM     19  O   UNL     1       6.936   6.790  17.926  0.00  0.00    +0.000 OA
ATOM     20  O   UNL     1       7.807   5.448  19.878  0.00  0.00    +0.000 OA
BRANCH  18  21
ATOM     21  N   UNL     1       7.424   4.287  17.676  0.00  0.00    +0.000 N 
ATOM     22  H   UNL     1       7.577   3.417  18.184  0.00  0.00    +0.000 HD
BRANCH  21  23
ATOM     23  C   UNL     1       6.864   4.207  16.374  0.00  0.00    +0.000 A 
ATOM     24  C   UNL     1       7.496   4.850  15.307  0.00  0.00    +0.000 A 
ATOM     25  C   UNL     1       6.944   4.781  14.026  0.00  0.00    +0.000 A 
ATOM     26  C   UNL     1       5.751   4.089  13.826  0.00  0.00    +0.000 A 
ATOM     27 CL   UNL     1       5.065   4.006  12.251  0.00  0.00    +0.000 Cl
ATOM     28  C   UNL     1       5.107   3.464  14.894  0.00  0.00    +0.000 A 
ATOM     29  C   UNL     1       5.669   3.518  16.171  0.00  0.00    +0.000 A 
ENDBRANCH  21  23
ENDBRANCH  18  21
ENDBRANCH   3  18
TORSDOF 4
ENDMDL
MODEL 9
REMARK VINA RESULT:      -7.8      3.854      8.686
REMARK  Name = 
REMARK  4 active torsions:
REMARK  status: ('A' for Active; 'I' for Inactive)
REMARK    1  A    between atoms: C_2  and  C_9
REMARK    2  A    between atoms: C_11  and  S_12
REMARK    3  A    between atoms: S_12  and  N_15
REMARK    4  A    between atoms: N_15  and  C_16
REMARK                            x       y       z     vdW  Elec       q    Type
REMARK                         _______ _______ _______ _____ _____    ______ ____
ROOT
ATOM      1  C   UNL     1       2.458   7.157  19.053  0.00  0.00    +0.000 A 
ATOM      2  C   UNL     1       2.066   8.469  18.711  0.00  0.00    +0.000 A 
ATOM      3  C   UNL     1       1.250   9.218  19.568  0.00  0.00    +0.000 A 
ATOM      4  C   UNL     1       0.837   8.689  20.789  0.00  0.00    +0.000 A 
ATOM      5  C   UNL     1       1.220   7.395  21.137  0.00  0.00    +0.000 A 
ATOM      6  C   UNL     1       2.022   6.626  20.279  0.00  0.00    +0.000 A 
ATOM      7 CL   UNL     1       2.374   5.023  20.825  0.00  0.00    +0.000 Cl
ENDROOT
BRANCH   1   9
ATOM      8  O   UNL     1       2.802   5.373  17.598  0.00  0.00    +0.000 OA
ATOM      9  C   UNL     1       3.269   6.425  18.025  0.00  0.00    +0.000 C 
ATOM     10  N   UNL     1       4.462   6.991  17.662  0.00  0.00    +0.000 N 
ATOM     11  C   UNL     1       5.377   6.427  16.821  0.00  0.00    +0.000 A 
ATOM     12  N   UNL     1       5.150   5.336  16.036  0.00  0.00    +0.000 NA
ATOM     13  C   UNL     1       6.304   5.137  15.445  0.00  0.00    +0.000 A 
ATOM     14  N   UNL     1       7.192   6.066  15.877  0.00  0.00    +0.000 N 
ATOM     15  N   UNL     1       6.613   6.931  16.725  0.00  0.00    +0.000 NA
ATOM     16  H   UNL     1       4.817   7.814  18.125  0.00  0.00    +0.000 HD
ATOM     17  H   UNL     1       8.175   6.168  15.651  0.00  0.00    +0.000 HD
ENDBRANCH   1   9
BRANCH   3  18
ATOM     18  S   UNL     1       0.787  10.881  19.123  0.00  0.00    +0.000 S 
ATOM     19  O   UNL     1      -0.031  11.409  20.194  0.00  0.00    +0.000 OA
ATOM     20  O   UNL     1       1.995  11.558  18.695  0.00  0.00    +0.000 OA
BRANCH  18  21
ATOM     21  N   UNL     1      -0.160  10.664  17.745  0.00  0.00    +0.000 N 
ATOM     22  H   UNL     1       0.238   9.983  17.099  0.00  0.00    +0.000 HD
BRANCH  21  23
ATOM     23  C   UNL     1      -1.573  10.731  17.853  0.00  0.00    +0.000 A 
ATOM     24  C   UNL     1      -2.172  11.852  18.432  0.00  0.00    +0.000 A 
ATOM     25  C   UNL     1      -3.562  11.918  18.548  0.00  0.00    +0.000 A 
ATOM     26  C   UNL     1      -4.342  10.854  18.103  0.00  0.00    +0.000 A 
ATOM     27 CL   UNL     1      -6.055  10.930  18.248  0.00  0.00    +0.000 Cl
ATOM     28  C   UNL     1      -3.746   9.724  17.543  0.00  0.00    +0.000 A 
ATOM     29  C   UNL     1      -2.357   9.666  17.411  0.00  0.00    +0.000 A 
ENDBRANCH  21  23
ENDBRANCH  18  21
ENDBRANCH   3  18
TORSDOF 4
ENDMDL
