MODEL 1
REMARK VINA RESULT:      -7.0      0.000      0.000
REMARK  Name = 
REMARK  14 active torsions:
REMARK  status: ('A' for Active; 'I' for Inactive)
REMARK    1  A    between atoms: C_1  and  C_2
REMARK    2  A    between atoms: C_2  and  C_3
REMARK    3  A    between atoms: C_3  and  C_4
REMARK    4  A    between atoms: C_3  and  N_5
REMARK    5  A    between atoms: N_5  and  C_6
REMARK    6  A    between atoms: N_5  and  C_10
REMARK    7  A    between atoms: C_6  and  C_7
REMARK    8  A    between atoms: C_7  and  O_9
REMARK    9  A    between atoms: C_10  and  C_11
REMARK   10  A    between atoms: C_13  and  C_14
REMARK   11  A    between atoms: C_14  and  C_15
REMARK   12  A    between atoms: C_15  and  C_16
REMARK   13  A    between atoms: C_16  and  C_17
REMARK   14  A    between atoms: C_16  and  C_18
REMARK                            x       y       z     vdW  Elec       q    Type
REMARK                         _______ _______ _______ _____ _____    ______ ____
ROOT
ATOM      1  C   UNL     1       5.233   5.494  19.269  0.00  0.00    +0.000 C 
ENDROOT
BRANCH   1   2
ATOM      2  C   UNL     1       6.046   5.257  18.019  0.00  0.00    +0.000 A 
ATOM      3  N   UNL     1       5.679   5.328  16.755  0.00  0.00    +0.000 NA
ATOM      4  C   UNL     1       6.772   4.807  16.101  0.00  0.00    +0.000 A 
ATOM      5  N   UNL     1       7.772   4.427  16.903  0.00  0.00    +0.000 NA
ATOM      6  O   UNL     1       7.281   4.701  18.162  0.00  0.00    +0.000 OA
BRANCH   4   7
ATOM      7  C   UNL     1       6.877   4.664  14.633  0.00  0.00    +0.000 C 
BRANCH   7   8
ATOM      8  C   UNL     1       5.763   3.801  14.031  0.00  0.00    +0.000 C 
BRANCH   8   9
ATOM      9  C   UNL     1       6.017   3.332  12.587  0.00  0.00    +0.000 C 
ATOM     10  C   UNL     1       4.757   3.373  11.721  0.00  0.00    +0.000 C 
ATOM     11  C   UNL     1       7.109   4.202  11.965  0.00  0.00    +0.000 C 
ENDBRANCH   8   9
ENDBRANCH   7   8
ENDBRANCH   4   7
ENDBRANCH   1   2
BRANCH   1  12
ATOM     12  N   UNL     1       4.093   4.562  19.620  0.00  0.00    +0.000 NA
BRANCH  12  13
ATOM     13  C   UNL     1       2.810   5.148  19.045  0.00  0.00    +0.000 C 
ATOM     14  C   UNL     1       2.308   4.465  17.756  0.00  0.00    +0.000 C 
BRANCH  13  16
ATOM     15  C   UNL     1       1.015   3.923  20.496  0.00  0.00    +0.000 C 
ATOM     16  C   UNL     1       1.672   5.240  20.097  0.00  0.00    +0.000 C 
ENDBRANCH  13  16
ENDBRANCH  12  13
BRANCH  12  17
ATOM     17  C   UNL     1       4.362   3.181  19.118  0.00  0.00    +0.000 C 
BRANCH  17  18
ATOM     18  C   UNL     1       4.443   2.134  20.217  0.00  0.00    +0.000 C 
ATOM     19  O   UNL     1       3.845   2.205  21.279  0.00  0.00    +0.000 OA
BRANCH  18  20
ATOM     20  O   UNL     1       5.202   1.066  19.865  0.00  0.00    +0.000 OA
ATOM     21  H   UNL     1       6.133   1.362  19.748  0.00  0.00    +0.000 HD
ENDBRANCH  18  20
ENDBRANCH  17  18
ENDBRANCH  12  17
ENDBRANCH   1  12
TORSDOF 10
ENDMDL
MODEL 2
REMARK VINA RESULT:      -6.7      0.917      1.169
REMARK  Name = 
REMARK  14 active torsions:
REMARK  status: ('A' for Active; 'I' for Inactive)
REMARK    1  A    between atoms: C_1  and  C_2
REMARK    2  A    between atoms: C_2  and  C_3
REMARK    3  A    between atoms: C_3  and  C_4
REMARK    4  A    between atoms: C_3  and  N_5
REMARK    5  A    between atoms: N_5  and  C_6
REMARK    6  A    between atoms: N_5  and  C_10
REMARK    7  A    between atoms: C_6  and  C_7
REMARK    8  A    between atoms: C_7  and  O_9
REMARK    9  A    between atoms: C_10  and  C_11
REMARK   10  A    between atoms: C_13  and  C_14
REMARK   11  A    between atoms: C_14  and  C_15
REMARK   12  A    between atoms: C_15  and  C_16
REMARK   13  A    between atoms: C_16  and  C_17
REMARK   14  A    between atoms: C_16  and  C_18
REMARK                            x       y       z     vdW  Elec       q    Type
REMARK                         _______ _______ _______ _____ _____    ______ ____
ROOT
ATOM      1  C   UNL     1       4.529   5.520  18.679  0.00  0.00    +0.000 C 
ENDROOT
BRANCH   1   2
ATOM      2  C   UNL     1       5.479   5.334  17.521  0.00  0.00    +0.000 A 
ATOM      3  N   UNL     1       5.238   5.377  16.226  0.00  0.00    +0.000 NA
ATOM      4  C   UNL     1       6.423   4.927  15.690  0.00  0.00    +0.000 A 
ATOM      5  N   UNL     1       7.360   4.616  16.593  0.00  0.00    +0.000 NA
ATOM      6  O   UNL     1       6.726   4.860  17.793  0.00  0.00    +0.000 OA
BRANCH   4   7
ATOM      7  C   UNL     1       6.687   4.788  14.241  0.00  0.00    +0.000 C 
BRANCH   7   8
ATOM      8  C   UNL     1       6.126   3.489  13.650  0.00  0.00    +0.000 C 
BRANCH   8   9
ATOM      9  C   UNL     1       6.055   3.457  12.113  0.00  0.00    +0.000 C 
ATOM     10  C   UNL     1       6.855   2.303  11.507  0.00  0.00    +0.000 C 
ATOM     11  C   UNL     1       4.591   3.362  11.684  0.00  0.00    +0.000 C 
ENDBRANCH   8   9
ENDBRANCH   7   8
ENDBRANCH   4   7
ENDBRANCH   1   2
BRANCH   1  12
ATOM     12  N   UNL     1       3.699   4.355  19.174  0.00  0.00    +0.000 NA
BRANCH  12  13
ATOM     13  C   UNL     1       2.232   4.760  19.111  0.00  0.00    +0.000 C 
ATOM     14  C   UNL     1       1.390   3.983  18.077  0.00  0.00    +0.000 C 
BRANCH  13  16
ATOM     15  C   UNL     1       2.016   3.658  21.471  0.00  0.00    +0.000 C 
ATOM     16  C   UNL     1       1.546   4.740  20.504  0.00  0.00    +0.000 C 
ENDBRANCH  13  16
ENDBRANCH  12  13
BRANCH  12  17
ATOM     17  C   UNL     1       3.984   3.123  18.377  0.00  0.00    +0.000 C 
BRANCH  17  18
ATOM     18  C   UNL     1       4.477   1.953  19.212  0.00  0.00    +0.000 C 
ATOM     19  O   UNL     1       4.911   2.055  20.349  0.00  0.00    +0.000 OA
BRANCH  18  20
ATOM     20  O   UNL     1       4.319   0.761  18.585  0.00  0.00    +0.000 OA
ATOM     21  H   UNL     1       3.580   0.272  19.013  0.00  0.00    +0.000 HD
ENDBRANCH  18  20
ENDBRANCH  17  18
ENDBRANCH  12  17
ENDBRANCH   1  12
TORSDOF 10
ENDMDL
MODEL 3
REMARK VINA RESULT:      -6.6      3.048      6.770
REMARK  Name = 
REMARK  14 active torsions:
REMARK  status: ('A' for Active; 'I' for Inactive)
REMARK    1  A    between atoms: C_1  and  C_2
REMARK    2  A    between atoms: C_2  and  C_3
REMARK    3  A    between atoms: C_3  and  C_4
REMARK    4  A    between atoms: C_3  and  N_5
REMARK    5  A    between atoms: N_5  and  C_6
REMARK    6  A    between atoms: N_5  and  C_10
REMARK    7  A    between atoms: C_6  and  C_7
REMARK    8  A    between atoms: C_7  and  O_9
REMARK    9  A    between atoms: C_10  and  C_11
REMARK   10  A    between atoms: C_13  and  C_14
REMARK   11  A    between atoms: C_14  and  C_15
REMARK   12  A    between atoms: C_15  and  C_16
REMARK   13  A    between atoms: C_16  and  C_17
REMARK   14  A    between atoms: C_16  and  C_18
REMARK                            x       y       z     vdW  Elec       q    Type
REMARK                         _______ _______ _______ _____ _____    ______ ____
ROOT
ATOM      1  C   UNL     1       4.877   6.518  16.216  0.00  0.00    +0.000 C 
ENDROOT
BRANCH   1   2
ATOM      2  C   UNL     1       4.039   6.731  17.453  0.00  0.00    +0.000 A 
ATOM      3  N   UNL     1       3.675   5.864  18.377  0.00  0.00    +0.000 NA
ATOM      4  C   UNL     1       2.763   6.585  19.114  0.00  0.00    +0.000 A 
ATOM      5  N   UNL     1       2.561   7.835  18.682  0.00  0.00    +0.000 NA
ATOM      6  O   UNL     1       3.381   7.917  17.577  0.00  0.00    +0.000 OA
BRANCH   4   7
ATOM      7  C   UNL     1       2.045   6.064  20.298  0.00  0.00    +0.000 C 
BRANCH   7   8
ATOM      8  C   UNL     1       2.416   4.615  20.635  0.00  0.00    +0.000 C 
BRANCH   8   9
ATOM      9  C   UNL     1       1.224   3.642  20.698  0.00  0.00    +0.000 C 
ATOM     10  C   UNL     1       0.922   2.988  19.349  0.00  0.00    +0.000 C 
ATOM     11  C   UNL     1       1.512   2.569  21.748  0.00  0.00    +0.000 C 
ENDBRANCH   8   9
ENDBRANCH   7   8
ENDBRANCH   4   7
ENDBRANCH   1   2
BRANCH   1  12
ATOM     12  N   UNL     1       6.387   6.533  16.311  0.00  0.00    +0.000 NA
BRANCH  12  13
ATOM     13  C   UNL     1       6.770   7.137  17.656  0.00  0.00    +0.000 C 
ATOM     14  C   UNL     1       7.596   6.207  18.571  0.00  0.00    +0.000 C 
BRANCH  13  16
ATOM     15  C   UNL     1       8.559   8.833  18.525  0.00  0.00    +0.000 C 
ATOM     16  C   UNL     1       7.459   8.521  17.515  0.00  0.00    +0.000 C 
ENDBRANCH  13  16
ENDBRANCH  12  13
BRANCH  12  17
ATOM     17  C   UNL     1       6.945   5.159  16.125  0.00  0.00    +0.000 C 
BRANCH  17  18
ATOM     18  C   UNL     1       7.098   4.752  14.669  0.00  0.00    +0.000 C 
ATOM     19  O   UNL     1       7.798   5.341  13.860  0.00  0.00    +0.000 OA
BRANCH  18  20
ATOM     20  O   UNL     1       6.425   3.611  14.372  0.00  0.00    +0.000 OA
ATOM     21  H   UNL     1       5.482   3.722  14.631  0.00  0.00    +0.000 HD
ENDBRANCH  18  20
ENDBRANCH  17  18
ENDBRANCH  12  17
ENDBRANCH   1  12
TORSDOF 10
ENDMDL
MODEL 4
REMARK VINA RESULT:      -6.5      1.335      2.012
REMARK  Name = 
REMARK  14 active torsions:
REMARK  status: ('A' for Active; 'I' for Inactive)
REMARK    1  A    between atoms: C_1  and  C_2
REMARK    2  A    between atoms: C_2  and  C_3
REMARK    3  A    between atoms: C_3  and  C_4
REMARK    4  A    between atoms: C_3  and  N_5
REMARK    5  A    between atoms: N_5  and  C_6
REMARK    6  A    between atoms: N_5  and  C_10
REMARK    7  A    between atoms: C_6  and  C_7
REMARK    8  A    between atoms: C_7  and  O_9
REMARK    9  A    between atoms: C_10  and  C_11
REMARK   10  A    between atoms: C_13  and  C_14
REMARK   11  A    between atoms: C_14  and  C_15
REMARK   12  A    between atoms: C_15  and  C_16
REMARK   13  A    between atoms: C_16  and  C_17
REMARK   14  A    between atoms: C_16  and  C_18
REMARK                            x       y       z     vdW  Elec       q    Type
REMARK                         _______ _______ _______ _____ _____    ______ ____
ROOT
ATOM      1  C   UNL     1       5.604   4.725  18.656  0.00  0.00    +0.000 C 
ENDROOT
BRANCH   1   2
ATOM      2  C   UNL     1       5.738   4.821  17.156  0.00  0.00    +0.000 A 
ATOM      3  N   UNL     1       5.809   3.858  16.258  0.00  0.00    +0.000 NA
ATOM      4  C   UNL     1       6.133   4.548  15.112  0.00  0.00    +0.000 A 
ATOM      5  N   UNL     1       6.261   5.869  15.274  0.00  0.00    +0.000 NA
ATOM      6  O   UNL     1       6.027   6.040  16.622  0.00  0.00    +0.000 OA
BRANCH   4   7
ATOM      7  C   UNL     1       6.328   3.921  13.786  0.00  0.00    +0.000 C 
BRANCH   7   8
ATOM      8  C   UNL     1       5.011   3.636  13.056  0.00  0.00    +0.000 C 
BRANCH   8   9
ATOM      9  C   UNL     1       5.167   3.202  11.587  0.00  0.00    +0.000 C 
ATOM     10  C   UNL     1       5.802   1.818  11.445  0.00  0.00    +0.000 C 
ATOM     11  C   UNL     1       3.795   3.221  10.914  0.00  0.00    +0.000 C 
ENDBRANCH   8   9
ENDBRANCH   7   8
ENDBRANCH   4   7
ENDBRANCH   1   2
BRANCH   1  12
ATOM     12  N   UNL     1       4.272   4.365  19.277  0.00  0.00    +0.000 NA
BRANCH  12  13
ATOM     13  C   UNL     1       3.179   5.092  18.504  0.00  0.00    +0.000 C 
ATOM     14  C   UNL     1       1.836   4.336  18.420  0.00  0.00    +0.000 C 
BRANCH  13  16
ATOM     15  C   UNL     1       2.786   7.609  17.923  0.00  0.00    +0.000 C 
ATOM     16  C   UNL     1       2.960   6.546  19.002  0.00  0.00    +0.000 C 
ENDBRANCH  13  16
ENDBRANCH  12  13
BRANCH  12  17
ATOM     17  C   UNL     1       4.074   2.884  19.288  0.00  0.00    +0.000 C 
BRANCH  17  18
ATOM     18  C   UNL     1       4.260   2.251  20.657  0.00  0.00    +0.000 C 
ATOM     19  O   UNL     1       5.258   1.636  21.000  0.00  0.00    +0.000 OA
BRANCH  18  20
ATOM     20  O   UNL     1       3.221   2.500  21.493  0.00  0.00    +0.000 OA
ATOM     21  H   UNL     1       3.011   1.679  21.992  0.00  0.00    +0.000 HD
ENDBRANCH  18  20
ENDBRANCH  17  18
ENDBRANCH  12  17
ENDBRANCH   1  12
TORSDOF 10
ENDMDL
MODEL 5
REMARK VINA RESULT:      -6.5      1.033      1.434
REMARK  Name = 
REMARK  14 active torsions:
REMARK  status: ('A' for Active; 'I' for Inactive)
REMARK    1  A    between atoms: C_1  and  C_2
REMARK    2  A    between atoms: C_2  and  C_3
REMARK    3  A    between atoms: C_3  and  C_4
REMARK    4  A    between atoms: C_3  and  N_5
REMARK    5  A    between atoms: N_5  and  C_6
REMARK    6  A    between atoms: N_5  and  C_10
REMARK    7  A    between atoms: C_6  and  C_7
REMARK    8  A    between atoms: C_7  and  O_9
REMARK    9  A    between atoms: C_10  and  C_11
REMARK   10  A    between atoms: C_13  and  C_14
REMARK   11  A    between atoms: C_14  and  C_15
REMARK   12  A    between atoms: C_15  and  C_16
REMARK   13  A    between atoms: C_16  and  C_17
REMARK   14  A    between atoms: C_16  and  C_18
REMARK                            x       y       z     vdW  Elec       q    Type
REMARK                         _______ _______ _______ _____ _____    ______ ____
ROOT
ATOM      1  C   UNL     1       4.024   5.666  18.875  0.00  0.00    +0.000 C 
ENDROOT
BRANCH   1   2
ATOM      2  C   UNL     1       5.119   5.486  17.852  0.00  0.00    +0.000 A 
ATOM      3  N   UNL     1       5.026   5.209  16.566  0.00  0.00    +0.000 NA
ATOM      4  C   UNL     1       6.335   4.961  16.223  0.00  0.00    +0.000 A 
ATOM      5  N   UNL     1       7.207   5.072  17.232  0.00  0.00    +0.000 NA
ATOM      6  O   UNL     1       6.400   5.392  18.304  0.00  0.00    +0.000 OA
BRANCH   4   7
ATOM      7  C   UNL     1       6.789   4.602  14.862  0.00  0.00    +0.000 C 
BRANCH   7   8
ATOM      8  C   UNL     1       5.703   3.911  14.029  0.00  0.00    +0.000 C 
BRANCH   8   9
ATOM      9  C   UNL     1       6.166   3.413  12.648  0.00  0.00    +0.000 C 
ATOM     10  C   UNL     1       5.014   3.277  11.651  0.00  0.00    +0.000 C 
ATOM     11  C   UNL     1       7.223   4.373  12.101  0.00  0.00    +0.000 C 
ENDBRANCH   8   9
ENDBRANCH   7   8
ENDBRANCH   4   7
ENDBRANCH   1   2
BRANCH   1  12
ATOM     12  N   UNL     1       3.507   4.473  19.650  0.00  0.00    +0.000 NA
BRANCH  12  13
ATOM     13  C   UNL     1       2.383   4.952  20.560  0.00  0.00    +0.000 C 
ATOM     14  C   UNL     1       1.889   6.387  20.276  0.00  0.00    +0.000 C 
BRANCH  13  16
ATOM     15  C   UNL     1       1.281   2.850  21.652  0.00  0.00    +0.000 C 
ATOM     16  C   UNL     1       1.190   3.960  20.611  0.00  0.00    +0.000 C 
ENDBRANCH  13  16
ENDBRANCH  12  13
BRANCH  12  17
ATOM     17  C   UNL     1       3.064   3.389  18.722  0.00  0.00    +0.000 C 
BRANCH  17  18
ATOM     18  C   UNL     1       3.975   2.172  18.723  0.00  0.00    +0.000 C 
ATOM     19  O   UNL     1       3.800   1.182  18.030  0.00  0.00    +0.000 OA
BRANCH  18  20
ATOM     20  O   UNL     1       5.055   2.329  19.530  0.00  0.00    +0.000 OA
ATOM     21  H   UNL     1       5.258   1.467  19.959  0.00  0.00    +0.000 HD
ENDBRANCH  18  20
ENDBRANCH  17  18
ENDBRANCH  12  17
ENDBRANCH   1  12
TORSDOF 10
ENDMDL
MODEL 6
REMARK VINA RESULT:      -6.4      1.249      1.449
REMARK  Name = 
REMARK  14 active torsions:
REMARK  status: ('A' for Active; 'I' for Inactive)
REMARK    1  A    between atoms: C_1  and  C_2
REMARK    2  A    between atoms: C_2  and  C_3
REMARK    3  A    between atoms: C_3  and  C_4
REMARK    4  A    between atoms: C_3  and  N_5
REMARK    5  A    between atoms: N_5  and  C_6
REMARK    6  A    between atoms: N_5  and  C_10
REMARK    7  A    between atoms: C_6  and  C_7
REMARK    8  A    between atoms: C_7  and  O_9
REMARK    9  A    between atoms: C_10  and  C_11
REMARK   10  A    between atoms: C_13  and  C_14
REMARK   11  A    between atoms: C_14  and  C_15
REMARK   12  A    between atoms: C_15  and  C_16
REMARK   13  A    between atoms: C_16  and  C_17
REMARK   14  A    between atoms: C_16  and  C_18
REMARK                            x       y       z     vdW  Elec       q    Type
REMARK                         _______ _______ _______ _____ _____    ______ ____
ROOT
ATOM      1  C   UNL     1       4.932   5.304  18.502  0.00  0.00    +0.000 C 
ENDROOT
BRANCH   1   2
ATOM      2  C   UNL     1       5.316   5.214  17.045  0.00  0.00    +0.000 A 
ATOM      3  N   UNL     1       6.182   4.414  16.456  0.00  0.00    +0.000 NA
ATOM      4  C   UNL     1       6.251   4.940  15.185  0.00  0.00    +0.000 A 
ATOM      5  N   UNL     1       5.475   6.010  14.982  0.00  0.00    +0.000 NA
ATOM      6  O   UNL     1       4.883   6.201  16.213  0.00  0.00    +0.000 OA
BRANCH   4   7
ATOM      7  C   UNL     1       7.096   4.396  14.100  0.00  0.00    +0.000 C 
BRANCH   7   8
ATOM      8  C   UNL     1       6.405   4.417  12.732  0.00  0.00    +0.000 C 
BRANCH   8   9
ATOM      9  C   UNL     1       5.781   3.076  12.303  0.00  0.00    +0.000 C 
ATOM     10  C   UNL     1       4.478   3.254  11.521  0.00  0.00    +0.000 C 
ATOM     11  C   UNL     1       6.795   2.300  11.464  0.00  0.00    +0.000 C 
ENDBRANCH   8   9
ENDBRANCH   7   8
ENDBRANCH   4   7
ENDBRANCH   1   2
BRANCH   1  12
ATOM     12  N   UNL     1       3.885   4.371  19.070  0.00  0.00    +0.000 NA
BRANCH  12  13
ATOM     13  C   UNL     1       2.530   5.058  18.959  0.00  0.00    +0.000 C 
ATOM     14  C   UNL     1       1.649   4.563  17.793  0.00  0.00    +0.000 C 
BRANCH  13  16
ATOM     15  C   UNL     1       1.118   3.698  20.688  0.00  0.00    +0.000 C 
ATOM     16  C   UNL     1       1.738   5.035  20.294  0.00  0.00    +0.000 C 
ENDBRANCH  13  16
ENDBRANCH  12  13
BRANCH  12  17
ATOM     17  C   UNL     1       3.914   3.051  18.370  0.00  0.00    +0.000 C 
BRANCH  17  18
ATOM     18  C   UNL     1       4.385   1.903  19.246  0.00  0.00    +0.000 C 
ATOM     19  O   UNL     1       4.768   2.030  20.399  0.00  0.00    +0.000 OA
BRANCH  18  20
ATOM     20  O   UNL     1       4.270   0.697  18.633  0.00  0.00    +0.000 OA
ATOM     21  H   UNL     1       4.930   0.646  17.906  0.00  0.00    +0.000 HD
ENDBRANCH  18  20
ENDBRANCH  17  18
ENDBRANCH  12  17
ENDBRANCH   1  12
TORSDOF 10
ENDMDL
MODEL 7
REMARK VINA RESULT:      -6.4      1.444      1.913
REMARK  Name = 
REMARK  14 active torsions:
REMARK  status: ('A' for Active; 'I' for Inactive)
REMARK    1  A    between atoms: C_1  and  C_2
REMARK    2  A    between atoms: C_2  and  C_3
REMARK    3  A    between atoms: C_3  and  C_4
REMARK    4  A    between atoms: C_3  and  N_5
REMARK    5  A    between atoms: N_5  and  C_6
REMARK    6  A    between atoms: N_5  and  C_10
REMARK    7  A    between atoms: C_6  and  C_7
REMARK    8  A    between atoms: C_7  and  O_9
REMARK    9  A    between atoms: C_10  and  C_11
REMARK   10  A    between atoms: C_13  and  C_14
REMARK   11  A    between atoms: C_14  and  C_15
REMARK   12  A    between atoms: C_15  and  C_16
REMARK   13  A    between atoms: C_16  and  C_17
REMARK   14  A    between atoms: C_16  and  C_18
REMARK                            x       y       z     vdW  Elec       q    Type
REMARK                         _______ _______ _______ _____ _____    ______ ____
ROOT
ATOM      1  C   UNL     1       5.011   3.861  18.838  0.00  0.00    +0.000 C 
ENDROOT
BRANCH   1   2
ATOM      2  C   UNL     1       5.389   4.491  17.520  0.00  0.00    +0.000 A 
ATOM      3  N   UNL     1       5.324   3.991  16.303  0.00  0.00    +0.000 NA
ATOM      4  C   UNL     1       5.995   4.935  15.559  0.00  0.00    +0.000 A 
ATOM      5  N   UNL     1       6.459   5.972  16.264  0.00  0.00    +0.000 NA
ATOM      6  O   UNL     1       6.082   5.664  17.554  0.00  0.00    +0.000 OA
BRANCH   4   7
ATOM      7  C   UNL     1       6.204   4.854  14.097  0.00  0.00    +0.000 C 
BRANCH   7   8
ATOM      8  C   UNL     1       6.149   3.418  13.561  0.00  0.00    +0.000 C 
BRANCH   8   9
ATOM      9  C   UNL     1       5.967   3.305  12.037  0.00  0.00    +0.000 C 
ATOM     10  C   UNL     1       6.569   2.021  11.464  0.00  0.00    +0.000 C 
ATOM     11  C   UNL     1       4.477   3.379  11.706  0.00  0.00    +0.000 C 
ENDBRANCH   8   9
ENDBRANCH   7   8
ENDBRANCH   4   7
ENDBRANCH   1   2
BRANCH   1  12
ATOM     12  N   UNL     1       3.659   4.146  19.455  0.00  0.00    +0.000 NA
BRANCH  12  13
ATOM     13  C   UNL     1       2.959   5.191  18.596  0.00  0.00    +0.000 C 
ATOM     14  C   UNL     1       1.713   4.679  17.842  0.00  0.00    +0.000 C 
BRANCH  13  16
ATOM     15  C   UNL     1       1.688   6.335  20.572  0.00  0.00    +0.000 C 
ATOM     16  C   UNL     1       2.629   6.489  19.382  0.00  0.00    +0.000 C 
ENDBRANCH  13  16
ENDBRANCH  12  13
BRANCH  12  17
ATOM     17  C   UNL     1       2.860   2.891  19.589  0.00  0.00    +0.000 C 
BRANCH  17  18
ATOM     18  C   UNL     1       2.169   2.745  20.934  0.00  0.00    +0.000 C 
ATOM     19  O   UNL     1       2.752   2.549  21.989  0.00  0.00    +0.000 OA
BRANCH  18  20
ATOM     20  O   UNL     1       0.826   2.926  20.854  0.00  0.00    +0.000 OA
ATOM     21  H   UNL     1       0.462   2.309  20.181  0.00  0.00    +0.000 HD
ENDBRANCH  18  20
ENDBRANCH  17  18
ENDBRANCH  12  17
ENDBRANCH   1  12
TORSDOF 10
ENDMDL
MODEL 8
REMARK VINA RESULT:      -6.4      2.510      6.543
REMARK  Name = 
REMARK  14 active torsions:
REMARK  status: ('A' for Active; 'I' for Inactive)
REMARK    1  A    between atoms: C_1  and  C_2
REMARK    2  A    between atoms: C_2  and  C_3
REMARK    3  A    between atoms: C_3  and  C_4
REMARK    4  A    between atoms: C_3  and  N_5
REMARK    5  A    between atoms: N_5  and  C_6
REMARK    6  A    between atoms: N_5  and  C_10
REMARK    7  A    between atoms: C_6  and  C_7
REMARK    8  A    between atoms: C_7  and  O_9
REMARK    9  A    between atoms: C_10  and  C_11
REMARK   10  A    between atoms: C_13  and  C_14
REMARK   11  A    between atoms: C_14  and  C_15
REMARK   12  A    between atoms: C_15  and  C_16
REMARK   13  A    between atoms: C_16  and  C_17
REMARK   14  A    between atoms: C_16  and  C_18
REMARK                            x       y       z     vdW  Elec       q    Type
REMARK                         _______ _______ _______ _____ _____    ______ ____
ROOT
ATOM      1  C   UNL     1       5.431   6.533  16.350  0.00  0.00    +0.000 C 
ENDROOT
BRANCH   1   2
ATOM      2  C   UNL     1       4.396   5.911  17.255  0.00  0.00    +0.000 A 
ATOM      3  N   UNL     1       3.947   6.324  18.423  0.00  0.00    +0.000 NA
ATOM      4  C   UNL     1       3.194   5.252  18.846  0.00  0.00    +0.000 A 
ATOM      5  N   UNL     1       3.168   4.220  17.996  0.00  0.00    +0.000 NA
ATOM      6  O   UNL     1       3.979   4.646  16.966  0.00  0.00    +0.000 OA
BRANCH   4   7
ATOM      7  C   UNL     1       2.453   5.204  20.125  0.00  0.00    +0.000 C 
BRANCH   7   8
ATOM      8  C   UNL     1       1.117   4.461  20.018  0.00  0.00    +0.000 C 
BRANCH   8   9
ATOM      9  C   UNL     1       1.116   3.043  20.618  0.00  0.00    +0.000 C 
ATOM     10  C   UNL     1       1.314   1.954  19.563  0.00  0.00    +0.000 C 
ATOM     11  C   UNL     1       2.213   2.951  21.679  0.00  0.00    +0.000 C 
ENDBRANCH   8   9
ENDBRANCH   7   8
ENDBRANCH   4   7
ENDBRANCH   1   2
BRANCH   1  12
ATOM     12  N   UNL     1       6.900   6.231  16.558  0.00  0.00    +0.000 NA
BRANCH  12  13
ATOM     13  C   UNL     1       7.213   6.408  18.038  0.00  0.00    +0.000 C 
ATOM     14  C   UNL     1       7.657   5.119  18.763  0.00  0.00    +0.000 C 
BRANCH  13  16
ATOM     15  C   UNL     1       7.890   8.903  17.657  0.00  0.00    +0.000 C 
ATOM     16  C   UNL     1       8.219   7.561  18.303  0.00  0.00    +0.000 C 
ENDBRANCH  13  16
ENDBRANCH  12  13
BRANCH  12  17
ATOM     17  C   UNL     1       7.236   4.861  16.065  0.00  0.00    +0.000 C 
BRANCH  17  18
ATOM     18  C   UNL     1       7.039   4.684  14.568  0.00  0.00    +0.000 C 
ATOM     19  O   UNL     1       7.496   5.434  13.721  0.00  0.00    +0.000 OA
BRANCH  18  20
ATOM     20  O   UNL     1       6.354   3.553  14.263  0.00  0.00    +0.000 OA
ATOM     21  H   UNL     1       6.946   2.778  14.392  0.00  0.00    +0.000 HD
ENDBRANCH  18  20
ENDBRANCH  17  18
ENDBRANCH  12  17
ENDBRANCH   1  12
TORSDOF 10
ENDMDL
MODEL 9
REMARK VINA RESULT:      -6.4      1.426      1.702
REMARK  Name = 
REMARK  14 active torsions:
REMARK  status: ('A' for Active; 'I' for Inactive)
REMARK    1  A    between atoms: C_1  and  C_2
REMARK    2  A    between atoms: C_2  and  C_3
REMARK    3  A    between atoms: C_3  and  C_4
REMARK    4  A    between atoms: C_3  and  N_5
REMARK    5  A    between atoms: N_5  and  C_6
REMARK    6  A    between atoms: N_5  and  C_10
REMARK    7  A    between atoms: C_6  and  C_7
REMARK    8  A    between atoms: C_7  and  O_9
REMARK    9  A    between atoms: C_10  and  C_11
REMARK   10  A    between atoms: C_13  and  C_14
REMARK   11  A    between atoms: C_14  and  C_15
REMARK   12  A    between atoms: C_15  and  C_16
REMARK   13  A    between atoms: C_16  and  C_17
REMARK   14  A    between atoms: C_16  and  C_18
REMARK                            x       y       z     vdW  Elec       q    Type
REMARK                         _______ _______ _______ _____ _____    ______ ____
ROOT
ATOM      1  C   UNL     1       5.226   4.588  19.180  0.00  0.00    +0.000 C 
ENDROOT
BRANCH   1   2
ATOM      2  C   UNL     1       5.612   4.987  17.776  0.00  0.00    +0.000 A 
ATOM      3  N   UNL     1       5.934   4.228  16.748  0.00  0.00    +0.000 NA
ATOM      4  C   UNL     1       6.387   5.150  15.831  0.00  0.00    +0.000 A 
ATOM      5  N   UNL     1       6.354   6.418  16.254  0.00  0.00    +0.000 NA
ATOM      6  O   UNL     1       5.870   6.304  17.540  0.00  0.00    +0.000 OA
BRANCH   4   7
ATOM      7  C   UNL     1       6.873   4.811  14.476  0.00  0.00    +0.000 C 
BRANCH   7   8
ATOM      8  C   UNL     1       6.156   3.601  13.865  0.00  0.00    +0.000 C 
BRANCH   8   9
ATOM      9  C   UNL     1       6.384   3.410  12.354  0.00  0.00    +0.000 C 
ATOM     10  C   UNL     1       5.079   3.229  11.578  0.00  0.00    +0.000 C 
ATOM     11  C   UNL     1       7.154   4.613  11.811  0.00  0.00    +0.000 C 
ENDBRANCH   8   9
ENDBRANCH   7   8
ENDBRANCH   4   7
ENDBRANCH   1   2
BRANCH   1  12
ATOM     12  N   UNL     1       3.837   4.058  19.462  0.00  0.00    +0.000 NA
BRANCH  12  13
ATOM     13  C   UNL     1       3.007   5.195  20.044  0.00  0.00    +0.000 C 
ATOM     14  C   UNL     1       2.500   6.221  19.009  0.00  0.00    +0.000 C 
BRANCH  13  16
ATOM     15  C   UNL     1       2.062   3.359  21.647  0.00  0.00    +0.000 C 
ATOM     16  C   UNL     1       1.838   4.688  20.932  0.00  0.00    +0.000 C 
ENDBRANCH  13  16
ENDBRANCH  12  13
BRANCH  12  17
ATOM     17  C   UNL     1       3.226   3.482  18.226  0.00  0.00    +0.000 C 
BRANCH  17  18
ATOM     18  C   UNL     1       2.921   1.997  18.327  0.00  0.00    +0.000 C 
ATOM     19  O   UNL     1       3.772   1.124  18.395  0.00  0.00    +0.000 OA
BRANCH  18  20
ATOM     20  O   UNL     1       1.591   1.741  18.407  0.00  0.00    +0.000 OA
ATOM     21  H   UNL     1       1.409   1.266  19.249  0.00  0.00    +0.000 HD
ENDBRANCH  18  20
ENDBRANCH  17  18
ENDBRANCH  12  17
ENDBRANCH   1  12
TORSDOF 10
ENDMDL
