MODEL 1
REMARK VINA RESULT:      -7.4      0.000      0.000
REMARK  Name = 
REMARK  5 active torsions:
REMARK  status: ('A' for Active; 'I' for Inactive)
REMARK    1  A    between atoms: C_2  and  C_3
REMARK    2  A    between atoms: C_6  and  N_7
REMARK    3  A    between atoms: C_8  and  C_10
REMARK    4  A    between atoms: C_13  and  C_14
REMARK    5  A    between atoms: C_19  and  O_20
REMARK                            x       y       z     vdW  Elec       q    Type
REMARK                         _______ _______ _______ _____ _____    ______ ____
ROOT
ATOM      1  N   UNL     1       2.179   7.883  19.128  0.00  0.00    +0.000 N 
ATOM      2  C   UNL     1       2.457   6.534  19.248  0.00  0.00    +0.000 C 
ATOM      3  O   UNL     1       2.023   5.805  20.138  0.00  0.00    +0.000 OA
ATOM      4  H   UNL     1       2.489   8.333  18.271  0.00  0.00    +0.000 HD
ENDROOT
BRANCH   1   8
ATOM      5  C   UNL     1      -0.111  10.222  21.811  0.00  0.00    +0.000 A 
ATOM      6  C   UNL     1       0.684   9.190  22.304  0.00  0.00    +0.000 A 
ATOM      7  C   UNL     1       1.450   8.415  21.427  0.00  0.00    +0.000 A 
ATOM      8  C   UNL     1       1.434   8.656  20.048  0.00  0.00    +0.000 A 
ATOM      9  C   UNL     1       0.657   9.711  19.561  0.00  0.00    +0.000 A 
ATOM     10  C   UNL     1      -0.123  10.484  20.436  0.00  0.00    +0.000 A 
BRANCH   5  12
ATOM     11  N   UNL     1      -1.551  11.644  23.434  0.00  0.00    +0.000 NA
ATOM     12  C   UNL     1      -0.905  11.008  22.711  0.00  0.00    +0.000 C 
ENDBRANCH   5  12
ENDBRANCH   1   8
BRANCH   2  13
ATOM     13  C   UNL     1       3.318   5.899  18.200  0.00  0.00    +0.000 A 
ATOM     14  C   UNL     1       4.121   6.776  17.446  0.00  0.00    +0.000 A 
ATOM     15  C   UNL     1       4.942   6.308  16.421  0.00  0.00    +0.000 A 
ATOM     16  C   UNL     1       4.987   4.944  16.123  0.00  0.00    +0.000 A 
ATOM     17  C   UNL     1       4.195   4.057  16.875  0.00  0.00    +0.000 A 
ATOM     18  C   UNL     1       3.367   4.532  17.903  0.00  0.00    +0.000 A 
BRANCH  16  19
ATOM     19  C   UNL     1       5.867   4.432  15.006  0.00  0.00    +0.000 C 
ATOM     20  F   UNL     1       6.324   3.166  15.208  0.00  0.00    +0.000 F 
ATOM     21  F   UNL     1       5.221   4.412  13.808  0.00  0.00    +0.000 F 
ATOM     22  F   UNL     1       6.972   5.205  14.824  0.00  0.00    +0.000 F 
ENDBRANCH  16  19
BRANCH  18  23
ATOM     23  O   UNL     1       2.606   3.635  18.608  0.00  0.00    +0.000 OA
ATOM     24  H   UNL     1       3.190   2.949  18.980  0.00  0.00    +0.000 HD
ENDBRANCH  18  23
ENDBRANCH   2  13
TORSDOF 5
ENDMDL
MODEL 2
REMARK VINA RESULT:      -7.3      0.824      1.369
REMARK  Name = 
REMARK  5 active torsions:
REMARK  status: ('A' for Active; 'I' for Inactive)
REMARK    1  A    between atoms: C_2  and  C_3
REMARK    2  A    between atoms: C_6  and  N_7
REMARK    3  A    between atoms: C_8  and  C_10
REMARK    4  A    between atoms: C_13  and  C_14
REMARK    5  A    between atoms: C_19  and  O_20
REMARK                            x       y       z     vdW  Elec       q    Type
REMARK                         _______ _______ _______ _____ _____    ______ ____
ROOT
ATOM      1  N   UNL     1       2.172   7.993  19.549  0.00  0.00    +0.000 N 
ATOM      2  C   UNL     1       2.348   6.625  19.651  0.00  0.00    +0.000 C 
ATOM      3  O   UNL     1       1.692   5.886  20.382  0.00  0.00    +0.000 OA
ATOM      4  H   UNL     1       2.686   8.460  18.807  0.00  0.00    +0.000 HD
ENDROOT
BRANCH   1   8
ATOM      5  C   UNL     1      -0.436  10.304  21.952  0.00  0.00    +0.000 A 
ATOM      6  C   UNL     1      -0.485  10.431  20.566  0.00  0.00    +0.000 A 
ATOM      7  C   UNL     1       0.369   9.667  19.761  0.00  0.00    +0.000 A 
ATOM      8  C   UNL     1       1.281   8.769  20.326  0.00  0.00    +0.000 A 
ATOM      9  C   UNL     1       1.307   8.624  21.717  0.00  0.00    +0.000 A 
ATOM     10  C   UNL     1       0.461   9.397  22.528  0.00  0.00    +0.000 A 
BRANCH   5  12
ATOM     11  N   UNL     1      -2.003  11.744  23.436  0.00  0.00    +0.000 NA
ATOM     12  C   UNL     1      -1.303  11.098  22.775  0.00  0.00    +0.000 C 
ENDBRANCH   5  12
ENDBRANCH   1   8
BRANCH   2  13
ATOM     13  C   UNL     1       3.387   5.985  18.783  0.00  0.00    +0.000 A 
ATOM     14  C   UNL     1       3.852   6.760  17.703  0.00  0.00    +0.000 A 
ATOM     15  C   UNL     1       4.796   6.262  16.806  0.00  0.00    +0.000 A 
ATOM     16  C   UNL     1       5.307   4.972  16.965  0.00  0.00    +0.000 A 
ATOM     17  C   UNL     1       4.855   4.191  18.046  0.00  0.00    +0.000 A 
ATOM     18  C   UNL     1       3.902   4.694  18.945  0.00  0.00    +0.000 A 
BRANCH  16  19
ATOM     19  C   UNL     1       6.321   4.422  15.990  0.00  0.00    +0.000 C 
ATOM     20  F   UNL     1       5.992   3.198  15.491  0.00  0.00    +0.000 F 
ATOM     21  F   UNL     1       6.494   5.233  14.911  0.00  0.00    +0.000 F 
ATOM     22  F   UNL     1       7.552   4.279  16.553  0.00  0.00    +0.000 F 
ENDBRANCH  16  19
BRANCH  18  23
ATOM     23  O   UNL     1       3.484   3.898  19.980  0.00  0.00    +0.000 OA
ATOM     24  H   UNL     1       4.259   3.642  20.514  0.00  0.00    +0.000 HD
ENDBRANCH  18  23
ENDBRANCH   2  13
TORSDOF 5
ENDMDL
MODEL 3
REMARK VINA RESULT:      -7.3      0.295      1.298
REMARK  Name = 
REMARK  5 active torsions:
REMARK  status: ('A' for Active; 'I' for Inactive)
REMARK    1  A    between atoms: C_2  and  C_3
REMARK    2  A    between atoms: C_6  and  N_7
REMARK    3  A    between atoms: C_8  and  C_10
REMARK    4  A    between atoms: C_13  and  C_14
REMARK    5  A    between atoms: C_19  and  O_20
REMARK                            x       y       z     vdW  Elec       q    Type
REMARK                         _______ _______ _______ _____ _____    ______ ____
ROOT
ATOM      1  N   UNL     1       2.196   7.885  18.826  0.00  0.00    +0.000 N 
ATOM      2  C   UNL     1       2.654   6.601  19.059  0.00  0.00    +0.000 C 
ATOM      3  O   UNL     1       2.402   5.938  20.063  0.00  0.00    +0.000 OA
ATOM      4  H   UNL     1       2.364   8.262  17.897  0.00  0.00    +0.000 HD
ENDROOT
BRANCH   1   8
ATOM      5  C   UNL     1       0.016  10.204  21.616  0.00  0.00    +0.000 A 
ATOM      6  C   UNL     1      -0.020  10.540  20.265  0.00  0.00    +0.000 A 
ATOM      7  C   UNL     1       0.691   9.776  19.333  0.00  0.00    +0.000 A 
ATOM      8  C   UNL     1       1.449   8.670  19.734  0.00  0.00    +0.000 A 
ATOM      9  C   UNL     1       1.460   8.320  21.087  0.00  0.00    +0.000 A 
ATOM     10  C   UNL     1       0.757   9.090  22.028  0.00  0.00    +0.000 A 
BRANCH   5  12
ATOM     11  N   UNL     1      -1.284  11.642  23.340  0.00  0.00    +0.000 NA
ATOM     12  C   UNL     1      -0.705  10.996  22.571  0.00  0.00    +0.000 C 
ENDBRANCH   5  12
ENDBRANCH   1   8
BRANCH   2  13
ATOM     13  C   UNL     1       3.486   5.950  17.998  0.00  0.00    +0.000 A 
ATOM     14  C   UNL     1       4.280   6.813  17.219  0.00  0.00    +0.000 A 
ATOM     15  C   UNL     1       5.074   6.329  16.181  0.00  0.00    +0.000 A 
ATOM     16  C   UNL     1       5.100   4.963  15.892  0.00  0.00    +0.000 A 
ATOM     17  C   UNL     1       4.316   4.089  16.668  0.00  0.00    +0.000 A 
ATOM     18  C   UNL     1       3.515   4.579  17.711  0.00  0.00    +0.000 A 
BRANCH  16  19
ATOM     19  C   UNL     1       5.950   4.434  14.760  0.00  0.00    +0.000 C 
ATOM     20  F   UNL     1       5.240   4.137  13.637  0.00  0.00    +0.000 F 
ATOM     21  F   UNL     1       6.909   5.320  14.376  0.00  0.00    +0.000 F 
ATOM     22  F   UNL     1       6.608   3.292  15.100  0.00  0.00    +0.000 F 
ENDBRANCH  16  19
BRANCH  18  23
ATOM     23  O   UNL     1       2.762   3.696  18.439  0.00  0.00    +0.000 OA
ATOM     24  H   UNL     1       3.194   2.822  18.420  0.00  0.00    +0.000 HD
ENDBRANCH  18  23
ENDBRANCH   2  13
TORSDOF 5
ENDMDL
MODEL 4
REMARK VINA RESULT:      -7.2      5.456      8.811
REMARK  Name = 
REMARK  5 active torsions:
REMARK  status: ('A' for Active; 'I' for Inactive)
REMARK    1  A    between atoms: C_2  and  C_3
REMARK    2  A    between atoms: C_6  and  N_7
REMARK    3  A    between atoms: C_8  and  C_10
REMARK    4  A    between atoms: C_13  and  C_14
REMARK    5  A    between atoms: C_19  and  O_20
REMARK                            x       y       z     vdW  Elec       q    Type
REMARK                         _______ _______ _______ _____ _____    ______ ____
ROOT
ATOM      1  N   UNL     1       2.462   7.384  18.931  0.00  0.00    +0.000 N 
ATOM      2  C   UNL     1       1.802   8.553  18.598  0.00  0.00    +0.000 C 
ATOM      3  O   UNL     1       1.787   9.054  17.475  0.00  0.00    +0.000 OA
ATOM      4  H   UNL     1       2.277   7.010  19.857  0.00  0.00    +0.000 HD
ENDROOT
BRANCH   1   8
ATOM      5  C   UNL     1       4.877   5.070  16.336  0.00  0.00    +0.000 A 
ATOM      6  C   UNL     1       5.161   6.421  16.518  0.00  0.00    +0.000 A 
ATOM      7  C   UNL     1       4.374   7.194  17.379  0.00  0.00    +0.000 A 
ATOM      8  C   UNL     1       3.292   6.633  18.067  0.00  0.00    +0.000 A 
ATOM      9  C   UNL     1       3.028   5.270  17.904  0.00  0.00    +0.000 A 
ATOM     10  C   UNL     1       3.808   4.493  17.032  0.00  0.00    +0.000 A 
BRANCH   5  12
ATOM     11  N   UNL     1       6.330   3.652  14.721  0.00  0.00    +0.000 NA
ATOM     12  C   UNL     1       5.679   4.283  15.444  0.00  0.00    +0.000 C 
ENDBRANCH   5  12
ENDBRANCH   1   8
BRANCH   2  13
ATOM     13  C   UNL     1       1.015   9.243  19.668  0.00  0.00    +0.000 A 
ATOM     14  C   UNL     1       0.149  10.265  19.236  0.00  0.00    +0.000 A 
ATOM     15  C   UNL     1      -0.614  11.002  20.141  0.00  0.00    +0.000 A 
ATOM     16  C   UNL     1      -0.534  10.734  21.510  0.00  0.00    +0.000 A 
ATOM     17  C   UNL     1       0.322   9.710  21.953  0.00  0.00    +0.000 A 
ATOM     18  C   UNL     1       1.091   8.972  21.040  0.00  0.00    +0.000 A 
BRANCH  16  19
ATOM     19  C   UNL     1      -1.349  11.537  22.497  0.00  0.00    +0.000 C 
ATOM     20  F   UNL     1      -0.669  12.581  23.046  0.00  0.00    +0.000 F 
ATOM     21  F   UNL     1      -2.466  12.071  21.932  0.00  0.00    +0.000 F 
ATOM     22  F   UNL     1      -1.782  10.781  23.543  0.00  0.00    +0.000 F 
ENDBRANCH  16  19
BRANCH  18  23
ATOM     23  O   UNL     1       1.918   7.987  21.514  0.00  0.00    +0.000 OA
ATOM     24  H   UNL     1       2.292   7.498  20.758  0.00  0.00    +0.000 HD
ENDBRANCH  18  23
ENDBRANCH   2  13
TORSDOF 5
ENDMDL
MODEL 5
REMARK VINA RESULT:      -7.1      5.570      8.940
REMARK  Name = 
REMARK  5 active torsions:
REMARK  status: ('A' for Active; 'I' for Inactive)
REMARK    1  A    between atoms: C_2  and  C_3
REMARK    2  A    between atoms: C_6  and  N_7
REMARK    3  A    between atoms: C_8  and  C_10
REMARK    4  A    between atoms: C_13  and  C_14
REMARK    5  A    between atoms: C_19  and  O_20
REMARK                            x       y       z     vdW  Elec       q    Type
REMARK                         _______ _______ _______ _____ _____    ______ ____
ROOT
ATOM      1  N   UNL     1       2.176   7.663  18.923  0.00  0.00    +0.000 N 
ATOM      2  C   UNL     1       1.690   8.894  18.525  0.00  0.00    +0.000 C 
ATOM      3  O   UNL     1       1.876   9.397  17.418  0.00  0.00    +0.000 OA
ATOM      4  H   UNL     1       1.832   7.308  19.812  0.00  0.00    +0.000 HD
ENDROOT
BRANCH   1   8
ATOM      5  C   UNL     1       4.663   5.106  16.645  0.00  0.00    +0.000 A 
ATOM      6  C   UNL     1       4.967   6.462  16.732  0.00  0.00    +0.000 A 
ATOM      7  C   UNL     1       4.155   7.315  17.488  0.00  0.00    +0.000 A 
ATOM      8  C   UNL     1       3.030   6.830  18.165  0.00  0.00    +0.000 A 
ATOM      9  C   UNL     1       2.746   5.463  18.098  0.00  0.00    +0.000 A 
ATOM     10  C   UNL     1       3.550   4.605  17.331  0.00  0.00    +0.000 A 
BRANCH   5  12
ATOM     11  N   UNL     1       6.154   3.533  15.219  0.00  0.00    +0.000 NA
ATOM     12  C   UNL     1       5.490   4.235  15.859  0.00  0.00    +0.000 C 
ENDBRANCH   5  12
ENDBRANCH   1   8
BRANCH   2  13
ATOM     13  C   UNL     1       0.844   9.662  19.493  0.00  0.00    +0.000 A 
ATOM     14  C   UNL     1       1.063   9.387  20.857  0.00  0.00    +0.000 A 
ATOM     15  C   UNL     1       0.316  10.015  21.853  0.00  0.00    +0.000 A 
ATOM     16  C   UNL     1      -0.672  10.941  21.513  0.00  0.00    +0.000 A 
ATOM     17  C   UNL     1      -0.895  11.229  20.154  0.00  0.00    +0.000 A 
ATOM     18  C   UNL     1      -0.144  10.594  19.153  0.00  0.00    +0.000 A 
BRANCH  16  19
ATOM     19  C   UNL     1      -1.493  11.616  22.587  0.00  0.00    +0.000 C 
ATOM     20  F   UNL     1      -0.843  12.638  23.209  0.00  0.00    +0.000 F 
ATOM     21  F   UNL     1      -2.647  12.148  22.099  0.00  0.00    +0.000 F 
ATOM     22  F   UNL     1      -1.864  10.753  23.571  0.00  0.00    +0.000 F 
ENDBRANCH  16  19
BRANCH  18  23
ATOM     23  O   UNL     1      -0.397  10.898  17.841  0.00  0.00    +0.000 OA
ATOM     24  H   UNL     1      -0.420  11.867  17.740  0.00  0.00    +0.000 HD
ENDBRANCH  18  23
ENDBRANCH   2  13
TORSDOF 5
ENDMDL
MODEL 6
REMARK VINA RESULT:      -7.1      5.477      8.794
REMARK  Name = 
REMARK  5 active torsions:
REMARK  status: ('A' for Active; 'I' for Inactive)
REMARK    1  A    between atoms: C_2  and  C_3
REMARK    2  A    between atoms: C_6  and  N_7
REMARK    3  A    between atoms: C_8  and  C_10
REMARK    4  A    between atoms: C_13  and  C_14
REMARK    5  A    between atoms: C_19  and  O_20
REMARK                            x       y       z     vdW  Elec       q    Type
REMARK                         _______ _______ _______ _____ _____    ______ ____
ROOT
ATOM      1  N   UNL     1       2.319   7.354  18.936  0.00  0.00    +0.000 N 
ATOM      2  C   UNL     1       1.808   8.604  18.640  0.00  0.00    +0.000 C 
ATOM      3  O   UNL     1       1.932   9.174  17.557  0.00  0.00    +0.000 OA
ATOM      4  H   UNL     1       2.026   6.944  19.818  0.00  0.00    +0.000 HD
ENDROOT
BRANCH   1   8
ATOM      5  C   UNL     1       4.833   5.091  16.392  0.00  0.00    +0.000 A 
ATOM      6  C   UNL     1       3.795   4.459  17.072  0.00  0.00    +0.000 A 
ATOM      7  C   UNL     1       2.953   5.199  17.911  0.00  0.00    +0.000 A 
ATOM      8  C   UNL     1       3.136   6.576  18.084  0.00  0.00    +0.000 A 
ATOM      9  C   UNL     1       4.162   7.210  17.377  0.00  0.00    +0.000 A 
ATOM     10  C   UNL     1       5.016   6.470  16.544  0.00  0.00    +0.000 A 
BRANCH   5  12
ATOM     11  N   UNL     1       6.400   3.713  14.851  0.00  0.00    +0.000 NA
ATOM     12  C   UNL     1       5.701   4.327  15.542  0.00  0.00    +0.000 C 
ENDBRANCH   5  12
ENDBRANCH   1   8
BRANCH   2  13
ATOM     13  C   UNL     1       1.012   9.305  19.697  0.00  0.00    +0.000 A 
ATOM     14  C   UNL     1       0.159  10.331  19.249  0.00  0.00    +0.000 A 
ATOM     15  C   UNL     1      -0.610  11.078  20.141  0.00  0.00    +0.000 A 
ATOM     16  C   UNL     1      -0.550  10.816  21.512  0.00  0.00    +0.000 A 
ATOM     17  C   UNL     1       0.294   9.787  21.971  0.00  0.00    +0.000 A 
ATOM     18  C   UNL     1       1.069   9.040  21.071  0.00  0.00    +0.000 A 
BRANCH  16  19
ATOM     19  C   UNL     1      -1.372  11.628  22.485  0.00  0.00    +0.000 C 
ATOM     20  F   UNL     1      -0.681  12.649  23.064  0.00  0.00    +0.000 F 
ATOM     21  F   UNL     1      -2.458  12.197  21.895  0.00  0.00    +0.000 F 
ATOM     22  F   UNL     1      -1.853  10.873  23.510  0.00  0.00    +0.000 F 
ENDBRANCH  16  19
BRANCH  18  23
ATOM     23  O   UNL     1       1.883   8.051  21.560  0.00  0.00    +0.000 OA
ATOM     24  H   UNL     1       1.546   7.188  21.258  0.00  0.00    +0.000 HD
ENDBRANCH  18  23
ENDBRANCH   2  13
TORSDOF 5
ENDMDL
MODEL 7
REMARK VINA RESULT:      -7.1      1.766      1.986
REMARK  Name = 
REMARK  5 active torsions:
REMARK  status: ('A' for Active; 'I' for Inactive)
REMARK    1  A    between atoms: C_2  and  C_3
REMARK    2  A    between atoms: C_6  and  N_7
REMARK    3  A    between atoms: C_8  and  C_10
REMARK    4  A    between atoms: C_13  and  C_14
REMARK    5  A    between atoms: C_19  and  O_20
REMARK                            x       y       z     vdW  Elec       q    Type
REMARK                         _______ _______ _______ _____ _____    ______ ____
ROOT
ATOM      1  N   UNL     1       1.798   8.615  17.839  0.00  0.00    +0.000 N 
ATOM      2  C   UNL     1       2.362   7.580  18.560  0.00  0.00    +0.000 C 
ATOM      3  O   UNL     1       2.104   7.321  19.734  0.00  0.00    +0.000 OA
ATOM      4  H   UNL     1       1.996   8.630  16.842  0.00  0.00    +0.000 HD
ENDROOT
BRANCH   1   8
ATOM      5  C   UNL     1      -0.930  11.478  19.347  0.00  0.00    +0.000 A 
ATOM      6  C   UNL     1       0.375  11.450  19.832  0.00  0.00    +0.000 A 
ATOM      7  C   UNL     1       1.287  10.512  19.336  0.00  0.00    +0.000 A 
ATOM      8  C   UNL     1       0.912   9.590  18.352  0.00  0.00    +0.000 A 
ATOM      9  C   UNL     1      -0.391   9.641  17.848  0.00  0.00    +0.000 A 
ATOM     10  C   UNL     1      -1.313  10.572  18.351  0.00  0.00    +0.000 A 
BRANCH   5  12
ATOM     11  N   UNL     1      -2.624  13.201  20.292  0.00  0.00    +0.000 NA
ATOM     12  C   UNL     1      -1.867  12.433  19.866  0.00  0.00    +0.000 C 
ENDBRANCH   5  12
ENDBRANCH   1   8
BRANCH   2  13
ATOM     13  C   UNL     1       3.331   6.680  17.857  0.00  0.00    +0.000 A 
ATOM     14  C   UNL     1       4.365   7.320  17.147  0.00  0.00    +0.000 A 
ATOM     15  C   UNL     1       5.310   6.592  16.427  0.00  0.00    +0.000 A 
ATOM     16  C   UNL     1       5.250   5.197  16.398  0.00  0.00    +0.000 A 
ATOM     17  C   UNL     1       4.226   4.545  17.109  0.00  0.00    +0.000 A 
ATOM     18  C   UNL     1       3.274   5.281  17.831  0.00  0.00    +0.000 A 
BRANCH  16  19
ATOM     19  C   UNL     1       6.265   4.402  15.609  0.00  0.00    +0.000 C 
ATOM     20  F   UNL     1       7.510   4.407  16.160  0.00  0.00    +0.000 F 
ATOM     21  F   UNL     1       5.914   3.092  15.487  0.00  0.00    +0.000 F 
ATOM     22  F   UNL     1       6.414   4.870  14.340  0.00  0.00    +0.000 F 
ENDBRANCH  16  19
BRANCH  18  23
ATOM     23  O   UNL     1       2.288   4.608  18.505  0.00  0.00    +0.000 OA
ATOM     24  H   UNL     1       2.484   3.654  18.480  0.00  0.00    +0.000 HD
ENDBRANCH  18  23
ENDBRANCH   2  13
TORSDOF 5
ENDMDL
MODEL 8
REMARK VINA RESULT:      -7.1      5.557      8.926
REMARK  Name = 
REMARK  5 active torsions:
REMARK  status: ('A' for Active; 'I' for Inactive)
REMARK    1  A    between atoms: C_2  and  C_3
REMARK    2  A    between atoms: C_6  and  N_7
REMARK    3  A    between atoms: C_8  and  C_10
REMARK    4  A    between atoms: C_13  and  C_14
REMARK    5  A    between atoms: C_19  and  O_20
REMARK                            x       y       z     vdW  Elec       q    Type
REMARK                         _______ _______ _______ _____ _____    ______ ____
ROOT
ATOM      1  N   UNL     1       2.219   7.596  18.935  0.00  0.00    +0.000 N 
ATOM      2  C   UNL     1       1.738   8.830  18.538  0.00  0.00    +0.000 C 
ATOM      3  O   UNL     1       1.887   9.313  17.417  0.00  0.00    +0.000 OA
ATOM      4  H   UNL     1       1.906   7.260  19.841  0.00  0.00    +0.000 HD
ENDROOT
BRANCH   1   8
ATOM      5  C   UNL     1       4.715   5.094  16.606  0.00  0.00    +0.000 A 
ATOM      6  C   UNL     1       3.636   4.542  17.291  0.00  0.00    +0.000 A 
ATOM      7  C   UNL     1       2.800   5.361  18.059  0.00  0.00    +0.000 A 
ATOM      8  C   UNL     1       3.029   6.738  18.155  0.00  0.00    +0.000 A 
ATOM      9  C   UNL     1       4.097   7.292  17.442  0.00  0.00    +0.000 A 
ATOM     10  C   UNL     1       4.945   6.472  16.681  0.00  0.00    +0.000 A 
BRANCH   5  12
ATOM     11  N   UNL     1       6.279   3.569  15.206  0.00  0.00    +0.000 NA
ATOM     12  C   UNL     1       5.578   4.250  15.830  0.00  0.00    +0.000 C 
ENDBRANCH   5  12
ENDBRANCH   1   8
BRANCH   2  13
ATOM     13  C   UNL     1       0.944   9.625  19.528  0.00  0.00    +0.000 A 
ATOM     14  C   UNL     1       0.660   8.984  20.749  0.00  0.00    +0.000 A 
ATOM     15  C   UNL     1      -0.097   9.609  21.738  0.00  0.00    +0.000 A 
ATOM     16  C   UNL     1      -0.591  10.900  21.535  0.00  0.00    +0.000 A 
ATOM     17  C   UNL     1      -0.307  11.554  20.322  0.00  0.00    +0.000 A 
ATOM     18  C   UNL     1       0.452  10.920  19.327  0.00  0.00    +0.000 A 
BRANCH  16  19
ATOM     19  C   UNL     1      -1.422  11.580  22.599  0.00  0.00    +0.000 C 
ATOM     20  F   UNL     1      -0.782  12.611  23.216  0.00  0.00    +0.000 F 
ATOM     21  F   UNL     1      -2.577  12.099  22.100  0.00  0.00    +0.000 F 
ATOM     22  F   UNL     1      -1.793  10.723  23.589  0.00  0.00    +0.000 F 
ENDBRANCH  16  19
BRANCH  18  23
ATOM     23  O   UNL     1       0.701  11.589  18.156  0.00  0.00    +0.000 OA
ATOM     24  H   UNL     1       1.212  11.009  17.564  0.00  0.00    +0.000 HD
ENDBRANCH  18  23
ENDBRANCH   2  13
TORSDOF 5
ENDMDL
MODEL 9
REMARK VINA RESULT:      -7.0      1.145      1.673
REMARK  Name = 
REMARK  5 active torsions:
REMARK  status: ('A' for Active; 'I' for Inactive)
REMARK    1  A    between atoms: C_2  and  C_3
REMARK    2  A    between atoms: C_6  and  N_7
REMARK    3  A    between atoms: C_8  and  C_10
REMARK    4  A    between atoms: C_13  and  C_14
REMARK    5  A    between atoms: C_19  and  O_20
REMARK                            x       y       z     vdW  Elec       q    Type
REMARK                         _______ _______ _______ _____ _____    ______ ____
ROOT
ATOM      1  N   UNL     1       2.166   7.774  19.573  0.00  0.00    +0.000 N 
ATOM      2  C   UNL     1       2.525   7.925  18.246  0.00  0.00    +0.000 C 
ATOM      3  O   UNL     1       2.209   8.880  17.539  0.00  0.00    +0.000 OA
ATOM      4  H   UNL     1       2.609   7.009  20.075  0.00  0.00    +0.000 HD
ENDROOT
BRANCH   1   8
ATOM      5  C   UNL     1      -0.337  10.336  21.827  0.00  0.00    +0.000 A 
ATOM      6  C   UNL     1      -0.260  10.491  20.445  0.00  0.00    +0.000 A 
ATOM      7  C   UNL     1       0.559   9.645  19.689  0.00  0.00    +0.000 A 
ATOM      8  C   UNL     1       1.313   8.636  20.299  0.00  0.00    +0.000 A 
ATOM      9  C   UNL     1       1.211   8.466  21.683  0.00  0.00    +0.000 A 
ATOM     10  C   UNL     1       0.400   9.320  22.447  0.00  0.00    +0.000 A 
BRANCH   5  12
ATOM     11  N   UNL     1      -1.846  11.917  23.225  0.00  0.00    +0.000 NA
ATOM     12  C   UNL     1      -1.169  11.213  22.600  0.00  0.00    +0.000 C 
ENDBRANCH   5  12
ENDBRANCH   1   8
BRANCH   2  13
ATOM     13  C   UNL     1       3.392   6.872  17.629  0.00  0.00    +0.000 A 
ATOM     14  C   UNL     1       4.435   7.335  16.805  0.00  0.00    +0.000 A 
ATOM     15  C   UNL     1       5.290   6.450  16.150  0.00  0.00    +0.000 A 
ATOM     16  C   UNL     1       5.128   5.071  16.303  0.00  0.00    +0.000 A 
ATOM     17  C   UNL     1       4.094   4.596  17.130  0.00  0.00    +0.000 A 
ATOM     18  C   UNL     1       3.232   5.489  17.786  0.00  0.00    +0.000 A 
BRANCH  16  19
ATOM     19  C   UNL     1       6.044   4.107  15.586  0.00  0.00    +0.000 C 
ATOM     20  F   UNL     1       7.359   4.268  15.899  0.00  0.00    +0.000 F 
ATOM     21  F   UNL     1       5.749   2.808  15.866  0.00  0.00    +0.000 F 
ATOM     22  F   UNL     1       5.963   4.227  14.233  0.00  0.00    +0.000 F 
ENDBRANCH  16  19
BRANCH  18  23
ATOM     23  O   UNL     1       2.233   4.985  18.578  0.00  0.00    +0.000 OA
ATOM     24  H   UNL     1       1.706   4.353  18.056  0.00  0.00    +0.000 HD
ENDBRANCH  18  23
ENDBRANCH   2  13
TORSDOF 5
ENDMDL
