MODEL 1
REMARK VINA RESULT:      -7.1      0.000      0.000
REMARK  Name = 
REMARK  6 active torsions:
REMARK  status: ('A' for Active; 'I' for Inactive)
REMARK    1  A    between atoms: C_1  and  O_2
REMARK    2  A    between atoms: O_2  and  C_3
REMARK    3  A    between atoms: C_6  and  C_7
REMARK    4  A    between atoms: N_12  and  C_13
REMARK    5  A    between atoms: C_13  and  C_14
REMARK    6  A    between atoms: C_14  and  C_16
REMARK                            x       y       z     vdW  Elec       q    Type
REMARK                         _______ _______ _______ _____ _____    ______ ____
ROOT
ATOM      1  C   UNL     1       2.475   8.662  17.529  0.00  0.00    +0.000 C 
ATOM      2  C   UNL     1       2.770   7.536  18.196  0.00  0.00    +0.000 C 
ATOM      3  S   UNL     1       2.145   7.017  19.714  0.00  0.00    +0.000 S 
ATOM      4  C   UNL     1       3.105   5.552  19.703  0.00  0.00    +0.000 C 
ATOM      5  O   UNL     1       3.059   4.705  20.583  0.00  0.00    +0.000 OA
ATOM      6  N   UNL     1       3.915   5.530  18.602  0.00  0.00    +0.000 N 
ATOM      7  C   UNL     1       3.774   6.555  17.697  0.00  0.00    +0.000 C 
ATOM      8  O   UNL     1       4.409   6.680  16.656  0.00  0.00    +0.000 OA
ENDROOT
BRANCH   1  12
ATOM      9  C   UNL     1      -0.160  11.716  18.945  0.00  0.00    +0.000 A 
ATOM     10  C   UNL     1      -0.662  10.495  18.491  0.00  0.00    +0.000 A 
ATOM     11  C   UNL     1       0.203   9.498  18.034  0.00  0.00    +0.000 A 
ATOM     12  C   UNL     1       1.584   9.720  18.010  0.00  0.00    +0.000 A 
ATOM     13  C   UNL     1       2.085  10.951  18.440  0.00  0.00    +0.000 A 
ATOM     14  C   UNL     1       1.216  11.947  18.904  0.00  0.00    +0.000 A 
BRANCH   9  16
ATOM     15  C   UNL     1      -2.444  12.142  19.377  0.00  0.00    +0.000 C 
ATOM     16  O   UNL     1      -1.102  12.615  19.364  0.00  0.00    +0.000 OA
ENDBRANCH   9  16
ENDBRANCH   1  12
BRANCH   6  17
ATOM     17  C   UNL     1       4.878   4.466  18.396  0.00  0.00    +0.000 C 
BRANCH  17  18
ATOM     18  C   UNL     1       6.295   4.913  18.701  0.00  0.00    +0.000 C 
ATOM     19  O   UNL     1       6.633   5.308  19.821  0.00  0.00    +0.000 OA
BRANCH  18  20
ATOM     20  C   UNL     1       7.244   4.816  17.521  0.00  0.00    +0.000 C 
ATOM     21  F   UNL     1       7.615   6.044  17.057  0.00  0.00    +0.000 F 
ATOM     22  F   UNL     1       8.396   4.165  17.829  0.00  0.00    +0.000 F 
ATOM     23  F   UNL     1       6.694   4.166  16.460  0.00  0.00    +0.000 F 
ENDBRANCH  18  20
ENDBRANCH  17  18
ENDBRANCH   6  17
TORSDOF 5
ENDMDL
MODEL 2
REMARK VINA RESULT:      -7.1      2.961      3.990
REMARK  Name = 
REMARK  6 active torsions:
REMARK  status: ('A' for Active; 'I' for Inactive)
REMARK    1  A    between atoms: C_1  and  O_2
REMARK    2  A    between atoms: O_2  and  C_3
REMARK    3  A    between atoms: C_6  and  C_7
REMARK    4  A    between atoms: N_12  and  C_13
REMARK    5  A    between atoms: C_13  and  C_14
REMARK    6  A    between atoms: C_14  and  C_16
REMARK                            x       y       z     vdW  Elec       q    Type
REMARK                         _______ _______ _______ _____ _____    ______ ____
ROOT
ATOM      1  C   UNL     1       3.031   6.039  17.892  0.00  0.00    +0.000 C 
ATOM      2  C   UNL     1       4.306   6.017  17.478  0.00  0.00    +0.000 C 
ATOM      3  S   UNL     1       5.496   7.248  17.666  0.00  0.00    +0.000 S 
ATOM      4  C   UNL     1       6.717   6.312  16.828  0.00  0.00    +0.000 C 
ATOM      5  O   UNL     1       7.867   6.691  16.664  0.00  0.00    +0.000 OA
ATOM      6  N   UNL     1       6.180   5.140  16.374  0.00  0.00    +0.000 N 
ATOM      7  C   UNL     1       4.875   4.871  16.715  0.00  0.00    +0.000 C 
ATOM      8  O   UNL     1       4.249   3.866  16.401  0.00  0.00    +0.000 OA
ENDROOT
BRANCH   1  12
ATOM      9  C   UNL     1       1.138   9.334  19.852  0.00  0.00    +0.000 A 
ATOM     10  C   UNL     1       1.509   8.195  20.570  0.00  0.00    +0.000 A 
ATOM     11  C   UNL     1       2.133   7.122  19.926  0.00  0.00    +0.000 A 
ATOM     12  C   UNL     1       2.376   7.172  18.549  0.00  0.00    +0.000 A 
ATOM     13  C   UNL     1       1.981   8.301  17.826  0.00  0.00    +0.000 A 
ATOM     14  C   UNL     1       1.363   9.377  18.475  0.00  0.00    +0.000 A 
BRANCH   9  16
ATOM     15  C   UNL     1       0.266   9.991  21.948  0.00  0.00    +0.000 C 
ATOM     16  O   UNL     1       0.534  10.314  20.588  0.00  0.00    +0.000 OA
ENDBRANCH   9  16
ENDBRANCH   1  12
BRANCH   6  17
ATOM     17  C   UNL     1       6.957   4.217  15.568  0.00  0.00    +0.000 C 
BRANCH  17  18
ATOM     18  C   UNL     1       7.063   4.671  14.125  0.00  0.00    +0.000 C 
ATOM     19  O   UNL     1       7.819   5.583  13.776  0.00  0.00    +0.000 OA
BRANCH  18  20
ATOM     20  C   UNL     1       6.177   3.899  13.166  0.00  0.00    +0.000 C 
ATOM     21  F   UNL     1       6.461   4.182  11.861  0.00  0.00    +0.000 F 
ATOM     22  F   UNL     1       6.313   2.553  13.296  0.00  0.00    +0.000 F 
ATOM     23  F   UNL     1       4.856   4.180  13.331  0.00  0.00    +0.000 F 
ENDBRANCH  18  20
ENDBRANCH  17  18
ENDBRANCH   6  17
TORSDOF 5
ENDMDL
MODEL 3
REMARK VINA RESULT:      -7.0      0.152      1.017
REMARK  Name = 
REMARK  6 active torsions:
REMARK  status: ('A' for Active; 'I' for Inactive)
REMARK    1  A    between atoms: C_1  and  O_2
REMARK    2  A    between atoms: O_2  and  C_3
REMARK    3  A    between atoms: C_6  and  C_7
REMARK    4  A    between atoms: N_12  and  C_13
REMARK    5  A    between atoms: C_13  and  C_14
REMARK    6  A    between atoms: C_14  and  C_16
REMARK                            x       y       z     vdW  Elec       q    Type
REMARK                         _______ _______ _______ _____ _____    ______ ____
ROOT
ATOM      1  C   UNL     1       2.475   8.644  17.534  0.00  0.00    +0.000 C 
ATOM      2  C   UNL     1       2.775   7.521  18.203  0.00  0.00    +0.000 C 
ATOM      3  S   UNL     1       2.156   7.003  19.725  0.00  0.00    +0.000 S 
ATOM      4  C   UNL     1       3.121   5.541  19.714  0.00  0.00    +0.000 C 
ATOM      5  O   UNL     1       3.080   4.696  20.596  0.00  0.00    +0.000 OA
ATOM      6  N   UNL     1       3.926   5.518  18.609  0.00  0.00    +0.000 N 
ATOM      7  C   UNL     1       3.778   6.541  17.702  0.00  0.00    +0.000 C 
ATOM      8  O   UNL     1       4.410   6.664  16.659  0.00  0.00    +0.000 OA
ENDROOT
BRANCH   1  12
ATOM      9  C   UNL     1      -0.096  11.763  18.929  0.00  0.00    +0.000 A 
ATOM     10  C   UNL     1       1.288  11.943  18.892  0.00  0.00    +0.000 A 
ATOM     11  C   UNL     1       2.124  10.922  18.430  0.00  0.00    +0.000 A 
ATOM     12  C   UNL     1       1.582   9.701  18.016  0.00  0.00    +0.000 A 
ATOM     13  C   UNL     1       0.200   9.511  18.078  0.00  0.00    +0.000 A 
ATOM     14  C   UNL     1      -0.637  10.537  18.535  0.00  0.00    +0.000 A 
BRANCH   9  16
ATOM     15  C   UNL     1      -2.174  12.569  19.715  0.00  0.00    +0.000 C 
ATOM     16  O   UNL     1      -0.810  12.828  19.403  0.00  0.00    +0.000 OA
ENDBRANCH   9  16
ENDBRANCH   1  12
BRANCH   6  17
ATOM     17  C   UNL     1       4.891   4.456  18.403  0.00  0.00    +0.000 C 
BRANCH  17  18
ATOM     18  C   UNL     1       6.309   4.909  18.696  0.00  0.00    +0.000 C 
ATOM     19  O   UNL     1       6.651   5.318  19.810  0.00  0.00    +0.000 OA
BRANCH  18  20
ATOM     20  C   UNL     1       7.252   4.800  17.512  0.00  0.00    +0.000 C 
ATOM     21  F   UNL     1       7.620   6.024  17.033  0.00  0.00    +0.000 F 
ATOM     22  F   UNL     1       8.406   4.154  17.821  0.00  0.00    +0.000 F 
ATOM     23  F   UNL     1       6.697   4.139  16.461  0.00  0.00    +0.000 F 
ENDBRANCH  18  20
ENDBRANCH  17  18
ENDBRANCH   6  17
TORSDOF 5
ENDMDL
MODEL 4
REMARK VINA RESULT:      -7.0      2.908      3.957
REMARK  Name = 
REMARK  6 active torsions:
REMARK  status: ('A' for Active; 'I' for Inactive)
REMARK    1  A    between atoms: C_1  and  O_2
REMARK    2  A    between atoms: O_2  and  C_3
REMARK    3  A    between atoms: C_6  and  C_7
REMARK    4  A    between atoms: N_12  and  C_13
REMARK    5  A    between atoms: C_13  and  C_14
REMARK    6  A    between atoms: C_14  and  C_16
REMARK                            x       y       z     vdW  Elec       q    Type
REMARK                         _______ _______ _______ _____ _____    ______ ____
ROOT
ATOM      1  C   UNL     1       3.034   6.055  17.906  0.00  0.00    +0.000 C 
ATOM      2  C   UNL     1       4.308   6.035  17.487  0.00  0.00    +0.000 C 
ATOM      3  S   UNL     1       5.496   7.269  17.665  0.00  0.00    +0.000 S 
ATOM      4  C   UNL     1       6.715   6.333  16.827  0.00  0.00    +0.000 C 
ATOM      5  O   UNL     1       7.864   6.714  16.656  0.00  0.00    +0.000 OA
ATOM      6  N   UNL     1       6.179   5.158  16.378  0.00  0.00    +0.000 N 
ATOM      7  C   UNL     1       4.877   4.888  16.726  0.00  0.00    +0.000 C 
ATOM      8  O   UNL     1       4.251   3.880  16.418  0.00  0.00    +0.000 OA
ENDROOT
BRANCH   1  12
ATOM      9  C   UNL     1       1.102   9.380  19.777  0.00  0.00    +0.000 A 
ATOM     10  C   UNL     1       1.398   9.402  18.412  0.00  0.00    +0.000 A 
ATOM     11  C   UNL     1       2.025   8.311  17.804  0.00  0.00    +0.000 A 
ATOM     12  C   UNL     1       2.379   7.189  18.562  0.00  0.00    +0.000 A 
ATOM     13  C   UNL     1       2.107   7.178  19.932  0.00  0.00    +0.000 A 
ATOM     14  C   UNL     1       1.472   8.269  20.538  0.00  0.00    +0.000 A 
BRANCH   9  16
ATOM     15  C   UNL     1      -0.016  10.411  21.586  0.00  0.00    +0.000 C 
ATOM     16  O   UNL     1       0.493  10.504  20.260  0.00  0.00    +0.000 OA
ENDBRANCH   9  16
ENDBRANCH   1  12
BRANCH   6  17
ATOM     17  C   UNL     1       6.955   4.234  15.573  0.00  0.00    +0.000 C 
BRANCH  17  18
ATOM     18  C   UNL     1       7.051   4.681  14.127  0.00  0.00    +0.000 C 
ATOM     19  O   UNL     1       7.803   5.592  13.769  0.00  0.00    +0.000 OA
BRANCH  18  20
ATOM     20  C   UNL     1       6.160   3.902  13.177  0.00  0.00    +0.000 C 
ATOM     21  F   UNL     1       6.428   4.186  11.870  0.00  0.00    +0.000 F 
ATOM     22  F   UNL     1       6.305   2.558  13.308  0.00  0.00    +0.000 F 
ATOM     23  F   UNL     1       4.839   4.176  13.356  0.00  0.00    +0.000 F 
ENDBRANCH  18  20
ENDBRANCH  17  18
ENDBRANCH   6  17
TORSDOF 5
ENDMDL
MODEL 5
REMARK VINA RESULT:      -6.9      0.954      1.011
REMARK  Name = 
REMARK  6 active torsions:
REMARK  status: ('A' for Active; 'I' for Inactive)
REMARK    1  A    between atoms: C_1  and  O_2
REMARK    2  A    between atoms: O_2  and  C_3
REMARK    3  A    between atoms: C_6  and  C_7
REMARK    4  A    between atoms: N_12  and  C_13
REMARK    5  A    between atoms: C_13  and  C_14
REMARK    6  A    between atoms: C_14  and  C_16
REMARK                            x       y       z     vdW  Elec       q    Type
REMARK                         _______ _______ _______ _____ _____    ______ ____
ROOT
ATOM      1  C   UNL     1       2.187   8.372  18.217  0.00  0.00    +0.000 C 
ATOM      2  C   UNL     1       2.567   7.159  18.647  0.00  0.00    +0.000 C 
ATOM      3  S   UNL     1       1.967   6.287  20.005  0.00  0.00    +0.000 S 
ATOM      4  C   UNL     1       3.048   4.939  19.723  0.00  0.00    +0.000 C 
ATOM      5  O   UNL     1       3.061   3.926  20.408  0.00  0.00    +0.000 OA
ATOM      6  N   UNL     1       3.871   5.210  18.665  0.00  0.00    +0.000 N 
ATOM      7  C   UNL     1       3.656   6.386  17.987  0.00  0.00    +0.000 C 
ATOM      8  O   UNL     1       4.292   6.774  17.014  0.00  0.00    +0.000 OA
ENDROOT
BRANCH   1  12
ATOM      9  C   UNL     1      -0.716  10.875  20.110  0.00  0.00    +0.000 A 
ATOM     10  C   UNL     1      -0.741  10.672  18.729  0.00  0.00    +0.000 A 
ATOM     11  C   UNL     1       0.207   9.849  18.115  0.00  0.00    +0.000 A 
ATOM     12  C   UNL     1       1.204   9.232  18.878  0.00  0.00    +0.000 A 
ATOM     13  C   UNL     1       1.245   9.455  20.256  0.00  0.00    +0.000 A 
ATOM     14  C   UNL     1       0.290  10.275  20.871  0.00  0.00    +0.000 A 
BRANCH   9  16
ATOM     15  C   UNL     1      -2.560  12.271  19.624  0.00  0.00    +0.000 C 
ATOM     16  O   UNL     1      -1.689  11.703  20.596  0.00  0.00    +0.000 OA
ENDBRANCH   9  16
ENDBRANCH   1  12
BRANCH   6  17
ATOM     17  C   UNL     1       4.923   4.292  18.275  0.00  0.00    +0.000 C 
BRANCH  17  18
ATOM     18  C   UNL     1       6.300   4.815  18.640  0.00  0.00    +0.000 C 
ATOM     19  O   UNL     1       6.577   5.194  19.781  0.00  0.00    +0.000 OA
BRANCH  18  20
ATOM     20  C   UNL     1       7.289   4.811  17.490  0.00  0.00    +0.000 C 
ATOM     21  F   UNL     1       7.696   6.070  17.157  0.00  0.00    +0.000 F 
ATOM     22  F   UNL     1       8.419   4.113  17.774  0.00  0.00    +0.000 F 
ATOM     23  F   UNL     1       6.769   4.274  16.353  0.00  0.00    +0.000 F 
ENDBRANCH  18  20
ENDBRANCH  17  18
ENDBRANCH   6  17
TORSDOF 5
ENDMDL
MODEL 6
REMARK VINA RESULT:      -6.9      1.160      1.589
REMARK  Name = 
REMARK  6 active torsions:
REMARK  status: ('A' for Active; 'I' for Inactive)
REMARK    1  A    between atoms: C_1  and  O_2
REMARK    2  A    between atoms: O_2  and  C_3
REMARK    3  A    between atoms: C_6  and  C_7
REMARK    4  A    between atoms: N_12  and  C_13
REMARK    5  A    between atoms: C_13  and  C_14
REMARK    6  A    between atoms: C_14  and  C_16
REMARK                            x       y       z     vdW  Elec       q    Type
REMARK                         _______ _______ _______ _____ _____    ______ ____
ROOT
ATOM      1  C   UNL     1       2.173   8.432  18.177  0.00  0.00    +0.000 C 
ATOM      2  C   UNL     1       2.556   7.217  18.599  0.00  0.00    +0.000 C 
ATOM      3  S   UNL     1       1.973   6.344  19.964  0.00  0.00    +0.000 S 
ATOM      4  C   UNL     1       3.046   4.993  19.664  0.00  0.00    +0.000 C 
ATOM      5  O   UNL     1       3.067   3.980  20.346  0.00  0.00    +0.000 OA
ATOM      6  N   UNL     1       3.855   5.265  18.595  0.00  0.00    +0.000 N 
ATOM      7  C   UNL     1       3.633   6.443  17.922  0.00  0.00    +0.000 C 
ATOM      8  O   UNL     1       4.257   6.831  16.941  0.00  0.00    +0.000 OA
ENDROOT
BRANCH   1  12
ATOM      9  C   UNL     1      -0.630  10.958  20.186  0.00  0.00    +0.000 A 
ATOM     10  C   UNL     1       0.445  10.396  20.877  0.00  0.00    +0.000 A 
ATOM     11  C   UNL     1       1.362   9.575  20.214  0.00  0.00    +0.000 A 
ATOM     12  C   UNL     1       1.201   9.293  18.854  0.00  0.00    +0.000 A 
ATOM     13  C   UNL     1       0.111   9.835  18.169  0.00  0.00    +0.000 A 
ATOM     14  C   UNL     1      -0.803  10.663  18.832  0.00  0.00    +0.000 A 
BRANCH   9  16
ATOM     15  C   UNL     1      -1.326  11.606  22.350  0.00  0.00    +0.000 C 
ATOM     16  O   UNL     1      -1.462  11.739  20.939  0.00  0.00    +0.000 OA
ENDBRANCH   9  16
ENDBRANCH   1  12
BRANCH   6  17
ATOM     17  C   UNL     1       4.899   4.344  18.188  0.00  0.00    +0.000 C 
BRANCH  17  18
ATOM     18  C   UNL     1       6.277   4.827  18.601  0.00  0.00    +0.000 C 
ATOM     19  O   UNL     1       6.527   5.191  19.754  0.00  0.00    +0.000 OA
BRANCH  18  20
ATOM     20  C   UNL     1       7.303   4.805  17.484  0.00  0.00    +0.000 C 
ATOM     21  F   UNL     1       8.451   4.166  17.852  0.00  0.00    +0.000 F 
ATOM     22  F   UNL     1       6.853   4.162  16.374  0.00  0.00    +0.000 F 
ATOM     23  F   UNL     1       7.678   6.053  17.093  0.00  0.00    +0.000 F 
ENDBRANCH  18  20
ENDBRANCH  17  18
ENDBRANCH   6  17
TORSDOF 5
ENDMDL
MODEL 7
REMARK VINA RESULT:      -6.8      0.861      1.404
REMARK  Name = 
REMARK  6 active torsions:
REMARK  status: ('A' for Active; 'I' for Inactive)
REMARK    1  A    between atoms: C_1  and  O_2
REMARK    2  A    between atoms: O_2  and  C_3
REMARK    3  A    between atoms: C_6  and  C_7
REMARK    4  A    between atoms: N_12  and  C_13
REMARK    5  A    between atoms: C_13  and  C_14
REMARK    6  A    between atoms: C_14  and  C_16
REMARK                            x       y       z     vdW  Elec       q    Type
REMARK                         _______ _______ _______ _____ _____    ______ ____
ROOT
ATOM      1  C   UNL     1       2.196   8.378  17.983  0.00  0.00    +0.000 C 
ATOM      2  C   UNL     1       2.573   7.189  18.476  0.00  0.00    +0.000 C 
ATOM      3  S   UNL     1       1.957   6.382  19.867  0.00  0.00    +0.000 S 
ATOM      4  C   UNL     1       3.044   5.024  19.663  0.00  0.00    +0.000 C 
ATOM      5  O   UNL     1       3.051   4.046  20.396  0.00  0.00    +0.000 OA
ATOM      6  N   UNL     1       3.881   5.247  18.605  0.00  0.00    +0.000 N 
ATOM      7  C   UNL     1       3.672   6.388  17.868  0.00  0.00    +0.000 C 
ATOM      8  O   UNL     1       4.321   6.731  16.886  0.00  0.00    +0.000 OA
ENDROOT
BRANCH   1  12
ATOM      9  C   UNL     1      -0.673  10.989  19.781  0.00  0.00    +0.000 A 
ATOM     10  C   UNL     1       0.468  10.591  20.483  0.00  0.00    +0.000 A 
ATOM     11  C   UNL     1       1.405   9.741  19.889  0.00  0.00    +0.000 A 
ATOM     12  C   UNL     1       1.202   9.266  18.589  0.00  0.00    +0.000 A 
ATOM     13  C   UNL     1       0.048   9.644  17.897  0.00  0.00    +0.000 A 
ATOM     14  C   UNL     1      -0.887  10.501  18.491  0.00  0.00    +0.000 A 
BRANCH   9  16
ATOM     15  C   UNL     1      -1.618  13.147  19.970  0.00  0.00    +0.000 C 
ATOM     16  O   UNL     1      -1.518  11.817  20.466  0.00  0.00    +0.000 OA
ENDBRANCH   9  16
ENDBRANCH   1  12
BRANCH   6  17
ATOM     17  C   UNL     1       4.941   4.314  18.273  0.00  0.00    +0.000 C 
BRANCH  17  18
ATOM     18  C   UNL     1       6.308   4.845  18.658  0.00  0.00    +0.000 C 
ATOM     19  O   UNL     1       6.566   5.229  19.803  0.00  0.00    +0.000 OA
BRANCH  18  20
ATOM     20  C   UNL     1       7.315   4.845  17.523  0.00  0.00    +0.000 C 
ATOM     21  F   UNL     1       6.822   4.250  16.398  0.00  0.00    +0.000 F 
ATOM     22  F   UNL     1       7.687   6.098  17.154  0.00  0.00    +0.000 F 
ATOM     23  F   UNL     1       8.455   4.170  17.834  0.00  0.00    +0.000 F 
ENDBRANCH  18  20
ENDBRANCH  17  18
ENDBRANCH   6  17
TORSDOF 5
ENDMDL
MODEL 8
REMARK VINA RESULT:      -6.8      2.233      2.472
REMARK  Name = 
REMARK  6 active torsions:
REMARK  status: ('A' for Active; 'I' for Inactive)
REMARK    1  A    between atoms: C_1  and  O_2
REMARK    2  A    between atoms: O_2  and  C_3
REMARK    3  A    between atoms: C_6  and  C_7
REMARK    4  A    between atoms: N_12  and  C_13
REMARK    5  A    between atoms: C_13  and  C_14
REMARK    6  A    between atoms: C_14  and  C_16
REMARK                            x       y       z     vdW  Elec       q    Type
REMARK                         _______ _______ _______ _____ _____    ______ ____
ROOT
ATOM      1  C   UNL     1       1.978   8.332  19.300  0.00  0.00    +0.000 C 
ATOM      2  C   UNL     1       2.356   7.045  19.312  0.00  0.00    +0.000 C 
ATOM      3  S   UNL     1       1.935   5.834  20.462  0.00  0.00    +0.000 S 
ATOM      4  C   UNL     1       2.882   4.609  19.643  0.00  0.00    +0.000 C 
ATOM      5  O   UNL     1       2.950   3.446  20.013  0.00  0.00    +0.000 OA
ATOM      6  N   UNL     1       3.538   5.158  18.577  0.00  0.00    +0.000 N 
ATOM      7  C   UNL     1       3.282   6.478  18.292  0.00  0.00    +0.000 C 
ATOM      8  O   UNL     1       3.774   7.117  17.370  0.00  0.00    +0.000 OA
ENDROOT
BRANCH   1  12
ATOM      9  C   UNL     1      -0.372  10.221  22.332  0.00  0.00    +0.000 A 
ATOM     10  C   UNL     1       0.613   9.290  22.669  0.00  0.00    +0.000 A 
ATOM     11  C   UNL     1       1.382   8.679  21.675  0.00  0.00    +0.000 A 
ATOM     12  C   UNL     1       1.161   8.982  20.327  0.00  0.00    +0.000 A 
ATOM     13  C   UNL     1       0.158   9.894  19.988  0.00  0.00    +0.000 A 
ATOM     14  C   UNL     1      -0.607  10.510  20.986  0.00  0.00    +0.000 A 
BRANCH   9  16
ATOM     15  C   UNL     1      -2.021  11.748  23.062  0.00  0.00    +0.000 C 
ATOM     16  O   UNL     1      -1.062  10.748  23.387  0.00  0.00    +0.000 OA
ENDBRANCH   9  16
ENDBRANCH   1  12
BRANCH   6  17
ATOM     17  C   UNL     1       4.464   4.377  17.779  0.00  0.00    +0.000 C 
BRANCH  17  18
ATOM     18  C   UNL     1       5.905   4.605  18.192  0.00  0.00    +0.000 C 
ATOM     19  O   UNL     1       6.305   4.376  19.338  0.00  0.00    +0.000 OA
BRANCH  18  20
ATOM     20  C   UNL     1       6.797   5.116  17.076  0.00  0.00    +0.000 C 
ATOM     21  F   UNL     1       7.770   4.220  16.743  0.00  0.00    +0.000 F 
ATOM     22  F   UNL     1       6.110   5.368  15.932  0.00  0.00    +0.000 F 
ATOM     23  F   UNL     1       7.445   6.265  17.409  0.00  0.00    +0.000 F 
ENDBRANCH  18  20
ENDBRANCH  17  18
ENDBRANCH   6  17
TORSDOF 5
ENDMDL
MODEL 9
REMARK VINA RESULT:      -6.7      2.277      2.333
REMARK  Name = 
REMARK  6 active torsions:
REMARK  status: ('A' for Active; 'I' for Inactive)
REMARK    1  A    between atoms: C_1  and  O_2
REMARK    2  A    between atoms: O_2  and  C_3
REMARK    3  A    between atoms: C_6  and  C_7
REMARK    4  A    between atoms: N_12  and  C_13
REMARK    5  A    between atoms: C_13  and  C_14
REMARK    6  A    between atoms: C_14  and  C_16
REMARK                            x       y       z     vdW  Elec       q    Type
REMARK                         _______ _______ _______ _____ _____    ______ ____
ROOT
ATOM      1  C   UNL     1       1.957   8.325  19.396  0.00  0.00    +0.000 C 
ATOM      2  C   UNL     1       2.320   7.034  19.371  0.00  0.00    +0.000 C 
ATOM      3  S   UNL     1       1.917   5.803  20.506  0.00  0.00    +0.000 S 
ATOM      4  C   UNL     1       2.827   4.586  19.636  0.00  0.00    +0.000 C 
ATOM      5  O   UNL     1       2.892   3.415  19.979  0.00  0.00    +0.000 OA
ATOM      6  N   UNL     1       3.461   5.151  18.564  0.00  0.00    +0.000 N 
ATOM      7  C   UNL     1       3.211   6.479  18.314  0.00  0.00    +0.000 C 
ATOM      8  O   UNL     1       3.686   7.132  17.392  0.00  0.00    +0.000 OA
ENDROOT
BRANCH   1  12
ATOM      9  C   UNL     1      -0.361  10.190  22.467  0.00  0.00    +0.000 A 
ATOM     10  C   UNL     1      -0.581  10.496  21.123  0.00  0.00    +0.000 A 
ATOM     11  C   UNL     1       0.176   9.880  20.122  0.00  0.00    +0.000 A 
ATOM     12  C   UNL     1       1.175   8.961  20.459  0.00  0.00    +0.000 A 
ATOM     13  C   UNL     1       1.413   8.674  21.806  0.00  0.00    +0.000 A 
ATOM     14  C   UNL     1       0.649   9.287  22.807  0.00  0.00    +0.000 A 
BRANCH   9  16
ATOM     15  C   UNL     1      -1.953  11.903  22.807  0.00  0.00    +0.000 C 
ATOM     16  O   UNL     1      -1.159  10.857  23.355  0.00  0.00    +0.000 OA
ENDBRANCH   9  16
ENDBRANCH   1  12
BRANCH   6  17
ATOM     17  C   UNL     1       4.355   4.377  17.724  0.00  0.00    +0.000 C 
BRANCH  17  18
ATOM     18  C   UNL     1       5.809   4.572  18.110  0.00  0.00    +0.000 C 
ATOM     19  O   UNL     1       6.236   4.283  19.232  0.00  0.00    +0.000 OA
BRANCH  18  20
ATOM     20  C   UNL     1       6.676   5.131  16.998  0.00  0.00    +0.000 C 
ATOM     21  F   UNL     1       7.269   6.308  17.351  0.00  0.00    +0.000 F 
ATOM     22  F   UNL     1       7.685   4.292  16.648  0.00  0.00    +0.000 F 
ATOM     23  F   UNL     1       5.970   5.394  15.865  0.00  0.00    +0.000 F 
ENDBRANCH  18  20
ENDBRANCH  17  18
ENDBRANCH   6  17
TORSDOF 5
ENDMDL
