MODEL 1
REMARK VINA RESULT:      -7.0      0.000      0.000
REMARK  Name = 
REMARK  3 active torsions:
REMARK  status: ('A' for Active; 'I' for Inactive)
REMARK    1  A    between atoms: C_1  and  O_2
REMARK    2  A    between atoms: O_2  and  C_3
REMARK    3  A    between atoms: N_13  and  C_14
REMARK                            x       y       z     vdW  Elec       q    Type
REMARK                         _______ _______ _______ _____ _____    ______ ____
ROOT
ATOM      1  C   UNL     1       2.637   4.246  17.868  0.00  0.00    +0.000 A 
ATOM      2  C   UNL     1       1.806   3.121  17.939  0.00  0.00    +0.000 A 
ATOM      3  C   UNL     1       0.993   2.908  19.055  0.00  0.00    +0.000 A 
ATOM      4  C   UNL     1       0.992   3.824  20.101  0.00  0.00    +0.000 A 
ATOM      5  C   UNL     1       1.813   4.946  20.024  0.00  0.00    +0.000 A 
ATOM      6  C   UNL     1       2.677   5.145  18.942  0.00  0.00    +0.000 A 
ATOM      7  C   UNL     1       3.561   6.356  18.973  0.00  0.00    +0.000 C 
ATOM      8  N   UNL     1       2.753   7.550  18.776  0.00  0.00    +0.000 N 
ATOM      9  C   UNL     1       1.817   7.899  19.777  0.00  0.00    +0.000 A 
ATOM     10  C   UNL     1       1.193   9.155  19.708  0.00  0.00    +0.000 A 
ATOM     11  N   UNL     1       1.548  10.021  18.629  0.00  0.00    +0.000 N 
ATOM     12  N   UNL     1       0.298   9.584  20.621  0.00  0.00    +0.000 NA
ATOM     13  C   UNL     1      -0.021   8.738  21.598  0.00  0.00    +0.000 A 
ATOM     14  N   UNL     1       0.453   7.503  21.746  0.00  0.00    +0.000 NA
ATOM     15  C   UNL     1       1.340   7.091  20.814  0.00  0.00    +0.000 A 
ATOM     16  O   UNL     1       1.812   5.822  21.081  0.00  0.00    +0.000 OA
ATOM     17  H   UNL     1       3.314   8.369  18.537  0.00  0.00    +0.000 HD
ATOM     18  H   UNL     1       1.371   9.526  17.758  0.00  0.00    +0.000 HD
ENDROOT
BRANCH  11  19
ATOM     19  C   UNL     1       1.195  11.391  18.608  0.00  0.00    +0.000 A 
ATOM     20  C   UNL     1      -0.162  11.752  18.570  0.00  0.00    +0.000 A 
ATOM     21  C   UNL     1      -0.554  13.079  18.411  0.00  0.00    +0.000 A 
ATOM     22  C   UNL     1       0.415  14.071  18.298  0.00  0.00    +0.000 A 
ATOM     23  C   UNL     1       1.765  13.729  18.375  0.00  0.00    +0.000 A 
ATOM     24 BR   UNL     1       3.072  15.087  18.207  0.00  0.00    +0.000 Br
ATOM     25  C   UNL     1       2.163  12.398  18.543  0.00  0.00    +0.000 A 
ENDBRANCH  11  19
BRANCH   1  27
ATOM     26  C   UNL     1       4.677   3.764  16.782  0.00  0.00    +0.000 C 
ATOM     27  O   UNL     1       3.463   4.509  16.807  0.00  0.00    +0.000 OA
ENDBRANCH   1  27
TORSDOF 2
ENDMDL
MODEL 2
REMARK VINA RESULT:      -7.0      3.424      7.249
REMARK  Name = 
REMARK  3 active torsions:
REMARK  status: ('A' for Active; 'I' for Inactive)
REMARK    1  A    between atoms: C_1  and  O_2
REMARK    2  A    between atoms: O_2  and  C_3
REMARK    3  A    between atoms: N_13  and  C_14
REMARK                            x       y       z     vdW  Elec       q    Type
REMARK                         _______ _______ _______ _____ _____    ______ ____
ROOT
ATOM      1  C   UNL     1       0.982  11.552  19.544  0.00  0.00    +0.000 A 
ATOM      2  C   UNL     1       0.815  12.097  20.824  0.00  0.00    +0.000 A 
ATOM      3  C   UNL     1       0.505  11.276  21.911  0.00  0.00    +0.000 A 
ATOM      4  C   UNL     1       0.376   9.903  21.732  0.00  0.00    +0.000 A 
ATOM      5  C   UNL     1       0.550   9.363  20.460  0.00  0.00    +0.000 A 
ATOM      6  C   UNL     1       0.803  10.177  19.350  0.00  0.00    +0.000 A 
ATOM      7  C   UNL     1       0.924   9.509  18.014  0.00  0.00    +0.000 C 
ATOM      8  N   UNL     1       2.166   8.751  17.962  0.00  0.00    +0.000 N 
ATOM      9  C   UNL     1       2.302   7.630  18.815  0.00  0.00    +0.000 A 
ATOM     10  C   UNL     1       3.393   6.766  18.623  0.00  0.00    +0.000 A 
ATOM     11  N   UNL     1       4.304   7.063  17.563  0.00  0.00    +0.000 N 
ATOM     12  N   UNL     1       3.602   5.666  19.373  0.00  0.00    +0.000 NA
ATOM     13  C   UNL     1       2.742   5.438  20.363  0.00  0.00    +0.000 A 
ATOM     14  N   UNL     1       1.704   6.206  20.687  0.00  0.00    +0.000 NA
ATOM     15  C   UNL     1       1.520   7.308  19.928  0.00  0.00    +0.000 A 
ATOM     16  O   UNL     1       0.393   8.008  20.306  0.00  0.00    +0.000 OA
ATOM     17  H   UNL     1       2.426   8.485  17.011  0.00  0.00    +0.000 HD
ATOM     18  H   UNL     1       4.661   8.004  17.711  0.00  0.00    +0.000 HD
ENDROOT
BRANCH  11  19
ATOM     19  C   UNL     1       5.268   6.133  17.108  0.00  0.00    +0.000 A 
ATOM     20  C   UNL     1       6.425   5.911  17.874  0.00  0.00    +0.000 A 
ATOM     21  C   UNL     1       7.463   5.111  17.402  0.00  0.00    +0.000 A 
ATOM     22  C   UNL     1       7.350   4.507  16.154  0.00  0.00    +0.000 A 
ATOM     23  C   UNL     1       6.188   4.687  15.403  0.00  0.00    +0.000 A 
ATOM     24 BR   UNL     1       6.054   3.871  13.701  0.00  0.00    +0.000 Br
ATOM     25  C   UNL     1       5.140   5.485  15.876  0.00  0.00    +0.000 A 
ENDBRANCH  11  19
BRANCH   1  27
ATOM     26  C   UNL     1       2.578  12.885  18.426  0.00  0.00    +0.000 C 
ATOM     27  O   UNL     1       1.278  12.302  18.437  0.00  0.00    +0.000 OA
ENDBRANCH   1  27
TORSDOF 2
ENDMDL
MODEL 3
REMARK VINA RESULT:      -6.8      7.060      9.072
REMARK  Name = 
REMARK  3 active torsions:
REMARK  status: ('A' for Active; 'I' for Inactive)
REMARK    1  A    between atoms: C_1  and  O_2
REMARK    2  A    between atoms: O_2  and  C_3
REMARK    3  A    between atoms: N_13  and  C_14
REMARK                            x       y       z     vdW  Elec       q    Type
REMARK                         _______ _______ _______ _____ _____    ______ ____
ROOT
ATOM      1  C   UNL     1       9.046  11.281  18.444  0.00  0.00    +0.000 A 
ATOM      2  C   UNL     1      10.106  11.038  19.327  0.00  0.00    +0.000 A 
ATOM      3  C   UNL     1      10.953  12.076  19.723  0.00  0.00    +0.000 A 
ATOM      4  C   UNL     1      10.738  13.367  19.253  0.00  0.00    +0.000 A 
ATOM      5  C   UNL     1       9.679  13.607  18.382  0.00  0.00    +0.000 A 
ATOM      6  C   UNL     1       8.857  12.570  17.928  0.00  0.00    +0.000 A 
ATOM      7  C   UNL     1       7.775  12.918  16.951  0.00  0.00    +0.000 C 
ATOM      8  N   UNL     1       6.737  13.681  17.629  0.00  0.00    +0.000 N 
ATOM      9  C   UNL     1       7.062  14.970  18.113  0.00  0.00    +0.000 A 
ATOM     10  C   UNL     1       6.024  15.800  18.568  0.00  0.00    +0.000 A 
ATOM     11  N   UNL     1       4.688  15.296  18.508  0.00  0.00    +0.000 N 
ATOM     12  N   UNL     1       6.229  17.048  19.034  0.00  0.00    +0.000 NA
ATOM     13  C   UNL     1       7.490  17.471  19.093  0.00  0.00    +0.000 A 
ATOM     14  N   UNL     1       8.566  16.766  18.748  0.00  0.00    +0.000 NA
ATOM     15  C   UNL     1       8.336  15.515  18.294  0.00  0.00    +0.000 A 
ATOM     16  O   UNL     1       9.504  14.886  17.913  0.00  0.00    +0.000 OA
ATOM     17  H   UNL     1       5.870  13.730  17.092  0.00  0.00    +0.000 HD
ATOM     18  H   UNL     1       4.657  14.425  19.032  0.00  0.00    +0.000 HD
ENDROOT
BRANCH  11  19
ATOM     19  C   UNL     1       3.556  16.127  18.680  0.00  0.00    +0.000 A 
ATOM     20  C   UNL     1       2.961  16.224  19.949  0.00  0.00    +0.000 A 
ATOM     21  C   UNL     1       1.768  16.918  20.138  0.00  0.00    +0.000 A 
ATOM     22  C   UNL     1       1.156  17.538  19.053  0.00  0.00    +0.000 A 
ATOM     23  C   UNL     1       1.760  17.483  17.797  0.00  0.00    +0.000 A 
ATOM     24 BR   UNL     1       0.910  18.320  16.327  0.00  0.00    +0.000 Br
ATOM     25  C   UNL     1       2.962  16.793  17.604  0.00  0.00    +0.000 A 
ENDBRANCH  11  19
BRANCH   1  27
ATOM     26  C   UNL     1       8.557   8.973  18.347  0.00  0.00    +0.000 C 
ATOM     27  O   UNL     1       8.185  10.307  18.011  0.00  0.00    +0.000 OA
ENDBRANCH   1  27
TORSDOF 2
ENDMDL
MODEL 4
REMARK VINA RESULT:      -6.7      4.961      8.573
REMARK  Name = 
REMARK  3 active torsions:
REMARK  status: ('A' for Active; 'I' for Inactive)
REMARK    1  A    between atoms: C_1  and  O_2
REMARK    2  A    between atoms: O_2  and  C_3
REMARK    3  A    between atoms: N_13  and  C_14
REMARK                            x       y       z     vdW  Elec       q    Type
REMARK                         _______ _______ _______ _____ _____    ______ ____
ROOT
ATOM      1  C   UNL     1      -4.727  13.005  22.081  0.00  0.00    +0.000 A 
ATOM      2  C   UNL     1      -6.080  12.662  22.210  0.00  0.00    +0.000 A 
ATOM      3  C   UNL     1      -6.820  12.261  21.096  0.00  0.00    +0.000 A 
ATOM      4  C   UNL     1      -6.212  12.182  19.847  0.00  0.00    +0.000 A 
ATOM      5  C   UNL     1      -4.866  12.516  19.723  0.00  0.00    +0.000 A 
ATOM      6  C   UNL     1      -4.124  12.976  20.817  0.00  0.00    +0.000 A 
ATOM      7  C   UNL     1      -2.696  13.360  20.574  0.00  0.00    +0.000 C 
ATOM      8  N   UNL     1      -1.909  12.162  20.320  0.00  0.00    +0.000 N 
ATOM      9  C   UNL     1      -2.173  11.424  19.142  0.00  0.00    +0.000 A 
ATOM     10  C   UNL     1      -1.285  10.401  18.774  0.00  0.00    +0.000 A 
ATOM     11  N   UNL     1      -0.149  10.167  19.610  0.00  0.00    +0.000 N 
ATOM     12  N   UNL     1      -1.441   9.652  17.664  0.00  0.00    +0.000 NA
ATOM     13  C   UNL     1      -2.523   9.888  16.925  0.00  0.00    +0.000 A 
ATOM     14  N   UNL     1      -3.469  10.787  17.191  0.00  0.00    +0.000 NA
ATOM     15  C   UNL     1      -3.295  11.517  18.314  0.00  0.00    +0.000 A 
ATOM     16  O   UNL     1      -4.297  12.453  18.475  0.00  0.00    +0.000 OA
ATOM     17  H   UNL     1      -0.905  12.327  20.397  0.00  0.00    +0.000 HD
ATOM     18  H   UNL     1      -0.486   9.977  20.551  0.00  0.00    +0.000 HD
ENDROOT
BRANCH  11  19
ATOM     19  C   UNL     1       0.940   9.361  19.202  0.00  0.00    +0.000 A 
ATOM     20  C   UNL     1       1.682   9.730  18.069  0.00  0.00    +0.000 A 
ATOM     21  C   UNL     1       2.673   8.899  17.550  0.00  0.00    +0.000 A 
ATOM     22  C   UNL     1       2.944   7.685  18.172  0.00  0.00    +0.000 A 
ATOM     23  C   UNL     1       2.242   7.328  19.323  0.00  0.00    +0.000 A 
ATOM     24 BR   UNL     1       2.611   5.666  20.152  0.00  0.00    +0.000 Br
ATOM     25  C   UNL     1       1.250   8.162  19.851  0.00  0.00    +0.000 A 
ENDBRANCH  11  19
BRANCH   1  27
ATOM     26  C   UNL     1      -4.048  12.619  24.309  0.00  0.00    +0.000 C 
ATOM     27  O   UNL     1      -3.948  13.414  23.131  0.00  0.00    +0.000 OA
ENDBRANCH   1  27
TORSDOF 2
ENDMDL
MODEL 5
REMARK VINA RESULT:      -6.7      2.019      2.474
REMARK  Name = 
REMARK  3 active torsions:
REMARK  status: ('A' for Active; 'I' for Inactive)
REMARK    1  A    between atoms: C_1  and  O_2
REMARK    2  A    between atoms: O_2  and  C_3
REMARK    3  A    between atoms: N_13  and  C_14
REMARK                            x       y       z     vdW  Elec       q    Type
REMARK                         _______ _______ _______ _____ _____    ______ ____
ROOT
ATOM      1  C   UNL     1       4.352   3.959  16.671  0.00  0.00    +0.000 A 
ATOM      2  C   UNL     1       3.899   2.637  16.776  0.00  0.00    +0.000 A 
ATOM      3  C   UNL     1       3.369   2.161  17.978  0.00  0.00    +0.000 A 
ATOM      4  C   UNL     1       3.274   3.005  19.079  0.00  0.00    +0.000 A 
ATOM      5  C   UNL     1       3.717   4.320  18.970  0.00  0.00    +0.000 A 
ATOM      6  C   UNL     1       4.304   4.798  17.792  0.00  0.00    +0.000 A 
ATOM      7  C   UNL     1       4.798   6.213  17.787  0.00  0.00    +0.000 C 
ATOM      8  N   UNL     1       3.662   7.122  17.799  0.00  0.00    +0.000 N 
ATOM      9  C   UNL     1       2.838   7.150  18.947  0.00  0.00    +0.000 A 
ATOM     10  C   UNL     1       1.877   8.168  19.064  0.00  0.00    +0.000 A 
ATOM     11  N   UNL     1       1.794   9.133  18.013  0.00  0.00    +0.000 N 
ATOM     12  N   UNL     1       1.055   8.288  20.126  0.00  0.00    +0.000 NA
ATOM     13  C   UNL     1       1.151   7.357  21.072  0.00  0.00    +0.000 A 
ATOM     14  N   UNL     1       1.976   6.312  21.057  0.00  0.00    +0.000 NA
ATOM     15  C   UNL     1       2.782   6.207  19.978  0.00  0.00    +0.000 A 
ATOM     16  O   UNL     1       3.634   5.125  20.079  0.00  0.00    +0.000 OA
ATOM     17  H   UNL     1       3.920   8.077  17.545  0.00  0.00    +0.000 HD
ATOM     18  H   UNL     1       1.629   8.634  17.142  0.00  0.00    +0.000 HD
ENDROOT
BRANCH  11  19
ATOM     19  C   UNL     1       1.066  10.339  18.146  0.00  0.00    +0.000 A 
ATOM     20  C   UNL     1       1.754  11.531  18.424  0.00  0.00    +0.000 A 
ATOM     21  C   UNL     1       1.072  12.714  18.699  0.00  0.00    +0.000 A 
ATOM     22  C   UNL     1      -0.320  12.722  18.686  0.00  0.00    +0.000 A 
ATOM     23  C   UNL     1      -1.013  11.553  18.370  0.00  0.00    +0.000 A 
ATOM     24 BR   UNL     1      -2.905  11.575  18.369  0.00  0.00    +0.000 Br
ATOM     25  C   UNL     1      -0.331  10.365  18.087  0.00  0.00    +0.000 A 
ENDBRANCH  11  19
BRANCH   1  27
ATOM     26  C   UNL     1       6.124   3.909  15.112  0.00  0.00    +0.000 C 
ATOM     27  O   UNL     1       4.888   4.485  15.526  0.00  0.00    +0.000 OA
ENDBRANCH   1  27
TORSDOF 2
ENDMDL
MODEL 6
REMARK VINA RESULT:      -6.6      4.701      8.551
REMARK  Name = 
REMARK  3 active torsions:
REMARK  status: ('A' for Active; 'I' for Inactive)
REMARK    1  A    between atoms: C_1  and  O_2
REMARK    2  A    between atoms: O_2  and  C_3
REMARK    3  A    between atoms: N_13  and  C_14
REMARK                            x       y       z     vdW  Elec       q    Type
REMARK                         _______ _______ _______ _____ _____    ______ ____
ROOT
ATOM      1  C   UNL     1      -2.144  13.877  23.471  0.00  0.00    +0.000 A 
ATOM      2  C   UNL     1      -3.455  13.868  23.963  0.00  0.00    +0.000 A 
ATOM      3  C   UNL     1      -4.534  13.637  23.107  0.00  0.00    +0.000 A 
ATOM      4  C   UNL     1      -4.311  13.398  21.755  0.00  0.00    +0.000 A 
ATOM      5  C   UNL     1      -3.007  13.400  21.270  0.00  0.00    +0.000 A 
ATOM      6  C   UNL     1      -1.918  13.687  22.101  0.00  0.00    +0.000 A 
ATOM      7  C   UNL     1      -0.556  13.717  21.476  0.00  0.00    +0.000 C 
ATOM      8  N   UNL     1      -0.156  12.363  21.124  0.00  0.00    +0.000 N 
ATOM      9  C   UNL     1      -0.880  11.692  20.112  0.00  0.00    +0.000 A 
ATOM     10  C   UNL     1      -0.374  10.481  19.610  0.00  0.00    +0.000 A 
ATOM     11  N   UNL     1       0.858   9.997  20.147  0.00  0.00    +0.000 N 
ATOM     12  N   UNL     1      -0.983   9.775  18.637  0.00  0.00    +0.000 NA
ATOM     13  C   UNL     1      -2.140  10.250  18.179  0.00  0.00    +0.000 A 
ATOM     14  N   UNL     1      -2.754  11.351  18.607  0.00  0.00    +0.000 NA
ATOM     15  C   UNL     1      -2.130  12.036  19.589  0.00  0.00    +0.000 A 
ATOM     16  O   UNL     1      -2.816  13.186  19.927  0.00  0.00    +0.000 OA
ATOM     17  H   UNL     1       0.844  12.286  20.932  0.00  0.00    +0.000 HD
ATOM     18  H   UNL     1       0.748   9.907  21.155  0.00  0.00    +0.000 HD
ENDROOT
BRANCH  11  19
ATOM     19  C   UNL     1       1.590   8.949  19.540  0.00  0.00    +0.000 A 
ATOM     20  C   UNL     1       2.072   9.115  18.231  0.00  0.00    +0.000 A 
ATOM     21  C   UNL     1       2.677   8.065  17.544  0.00  0.00    +0.000 A 
ATOM     22  C   UNL     1       2.821   6.830  18.168  0.00  0.00    +0.000 A 
ATOM     23  C   UNL     1       2.384   6.666  19.483  0.00  0.00    +0.000 A 
ATOM     24 BR   UNL     1       2.574   4.977  20.314  0.00  0.00    +0.000 Br
ATOM     25  C   UNL     1       1.782   7.720  20.179  0.00  0.00    +0.000 A 
ENDBRANCH  11  19
BRANCH   1  27
ATOM     26  C   UNL     1      -1.095  15.288  25.047  0.00  0.00    +0.000 C 
ATOM     27  O   UNL     1      -1.044  14.105  24.255  0.00  0.00    +0.000 OA
ENDBRANCH   1  27
TORSDOF 2
ENDMDL
MODEL 7
REMARK VINA RESULT:      -6.6      1.420      1.750
REMARK  Name = 
REMARK  3 active torsions:
REMARK  status: ('A' for Active; 'I' for Inactive)
REMARK    1  A    between atoms: C_1  and  O_2
REMARK    2  A    between atoms: O_2  and  C_3
REMARK    3  A    between atoms: N_13  and  C_14
REMARK                            x       y       z     vdW  Elec       q    Type
REMARK                         _______ _______ _______ _____ _____    ______ ____
ROOT
ATOM      1  C   UNL     1       4.275   4.121  16.657  0.00  0.00    +0.000 A 
ATOM      2  C   UNL     1       3.808   2.801  16.703  0.00  0.00    +0.000 A 
ATOM      3  C   UNL     1       3.258   2.282  17.878  0.00  0.00    +0.000 A 
ATOM      4  C   UNL     1       3.156   3.083  19.011  0.00  0.00    +0.000 A 
ATOM      5  C   UNL     1       3.613   4.396  18.960  0.00  0.00    +0.000 A 
ATOM      6  C   UNL     1       4.221   4.914  17.811  0.00  0.00    +0.000 A 
ATOM      7  C   UNL     1       4.729   6.323  17.869  0.00  0.00    +0.000 C 
ATOM      8  N   UNL     1       3.601   7.244  17.902  0.00  0.00    +0.000 N 
ATOM      9  C   UNL     1       2.762   7.234  19.040  0.00  0.00    +0.000 A 
ATOM     10  C   UNL     1       1.810   8.257  19.185  0.00  0.00    +0.000 A 
ATOM     11  N   UNL     1       1.750   9.263  18.173  0.00  0.00    +0.000 N 
ATOM     12  N   UNL     1       0.975   8.343  20.240  0.00  0.00    +0.000 NA
ATOM     13  C   UNL     1       1.049   7.373  21.149  0.00  0.00    +0.000 A 
ATOM     14  N   UNL     1       1.864   6.321  21.102  0.00  0.00    +0.000 NA
ATOM     15  C   UNL     1       2.684   6.251  20.031  0.00  0.00    +0.000 A 
ATOM     16  O   UNL     1       3.523   5.157  20.100  0.00  0.00    +0.000 OA
ATOM     17  H   UNL     1       3.872   8.205  17.690  0.00  0.00    +0.000 HD
ATOM     18  H   UNL     1       1.593   8.801  17.280  0.00  0.00    +0.000 HD
ENDROOT
BRANCH  11  19
ATOM     19  C   UNL     1       1.032  10.470  18.344  0.00  0.00    +0.000 A 
ATOM     20  C   UNL     1      -0.366  10.465  18.203  0.00  0.00    +0.000 A 
ATOM     21  C   UNL     1      -1.099  11.650  18.227  0.00  0.00    +0.000 A 
ATOM     22  C   UNL     1      -0.440  12.861  18.407  0.00  0.00    +0.000 A 
ATOM     23  C   UNL     1       0.943  12.874  18.590  0.00  0.00    +0.000 A 
ATOM     24 BR   UNL     1       1.828  14.530  18.820  0.00  0.00    +0.000 Br
ATOM     25  C   UNL     1       1.683  11.686  18.573  0.00  0.00    +0.000 A 
ENDBRANCH  11  19
BRANCH   1  27
ATOM     26  C   UNL     1       6.004   4.041  15.051  0.00  0.00    +0.000 C 
ATOM     27  O   UNL     1       4.832   4.687  15.541  0.00  0.00    +0.000 OA
ENDBRANCH   1  27
TORSDOF 2
ENDMDL
MODEL 8
REMARK VINA RESULT:      -6.6      1.069      1.409
REMARK  Name = 
REMARK  3 active torsions:
REMARK  status: ('A' for Active; 'I' for Inactive)
REMARK    1  A    between atoms: C_1  and  O_2
REMARK    2  A    between atoms: O_2  and  C_3
REMARK    3  A    between atoms: N_13  and  C_14
REMARK                            x       y       z     vdW  Elec       q    Type
REMARK                         _______ _______ _______ _____ _____    ______ ____
ROOT
ATOM      1  C   UNL     1       2.717   4.136  17.761  0.00  0.00    +0.000 A 
ATOM      2  C   UNL     1       1.840   3.043  17.797  0.00  0.00    +0.000 A 
ATOM      3  C   UNL     1       0.989   2.852  18.888  0.00  0.00    +0.000 A 
ATOM      4  C   UNL     1       0.994   3.758  19.943  0.00  0.00    +0.000 A 
ATOM      5  C   UNL     1       1.861   4.847  19.901  0.00  0.00    +0.000 A 
ATOM      6  C   UNL     1       2.762   5.022  18.844  0.00  0.00    +0.000 A 
ATOM      7  C   UNL     1       3.691   6.196  18.913  0.00  0.00    +0.000 C 
ATOM      8  N   UNL     1       2.937   7.424  18.706  0.00  0.00    +0.000 N 
ATOM      9  C   UNL     1       1.987   7.800  19.684  0.00  0.00    +0.000 A 
ATOM     10  C   UNL     1       1.415   9.080  19.611  0.00  0.00    +0.000 A 
ATOM     11  N   UNL     1       1.834   9.942  18.552  0.00  0.00    +0.000 N 
ATOM     12  N   UNL     1       0.512   9.536  20.504  0.00  0.00    +0.000 NA
ATOM     13  C   UNL     1       0.133   8.694  21.463  0.00  0.00    +0.000 A 
ATOM     14  N   UNL     1       0.554   7.439  21.611  0.00  0.00    +0.000 NA
ATOM     15  C   UNL     1       1.450   7.002  20.699  0.00  0.00    +0.000 A 
ATOM     16  O   UNL     1       1.864   5.712  20.966  0.00  0.00    +0.000 OA
ATOM     17  H   UNL     1       3.536   8.222  18.492  0.00  0.00    +0.000 HD
ATOM     18  H   UNL     1       1.663   9.462  17.671  0.00  0.00    +0.000 HD
ENDROOT
BRANCH  11  19
ATOM     19  C   UNL     1       1.536  11.325  18.535  0.00  0.00    +0.000 A 
ATOM     20  C   UNL     1       2.491  12.228  18.040  0.00  0.00    +0.000 A 
ATOM     21  C   UNL     1       2.299  13.605  18.131  0.00  0.00    +0.000 A 
ATOM     22  C   UNL     1       1.134  14.099  18.710  0.00  0.00    +0.000 A 
ATOM     23  C   UNL     1       0.161  13.210  19.166  0.00  0.00    +0.000 A 
ATOM     24 BR   UNL     1      -1.413  13.896  19.963  0.00  0.00    +0.000 Br
ATOM     25  C   UNL     1       0.346  11.827  19.071  0.00  0.00    +0.000 A 
ENDBRANCH  11  19
BRANCH   1  27
ATOM     26  C   UNL     1       4.786   3.614  16.750  0.00  0.00    +0.000 C 
ATOM     27  O   UNL     1       3.582   4.376  16.726  0.00  0.00    +0.000 OA
ENDBRANCH   1  27
TORSDOF 2
ENDMDL
MODEL 9
REMARK VINA RESULT:      -6.6      3.637      7.652
REMARK  Name = 
REMARK  3 active torsions:
REMARK  status: ('A' for Active; 'I' for Inactive)
REMARK    1  A    between atoms: C_1  and  O_2
REMARK    2  A    between atoms: O_2  and  C_3
REMARK    3  A    between atoms: N_13  and  C_14
REMARK                            x       y       z     vdW  Elec       q    Type
REMARK                         _______ _______ _______ _____ _____    ______ ____
ROOT
ATOM      1  C   UNL     1       0.780  14.094  19.565  0.00  0.00    +0.000 A 
ATOM      2  C   UNL     1       0.908  14.871  20.724  0.00  0.00    +0.000 A 
ATOM      3  C   UNL     1       0.475  14.382  21.959  0.00  0.00    +0.000 A 
ATOM      4  C   UNL     1      -0.075  13.108  22.049  0.00  0.00    +0.000 A 
ATOM      5  C   UNL     1      -0.193  12.335  20.897  0.00  0.00    +0.000 A 
ATOM      6  C   UNL     1       0.181  12.830  19.643  0.00  0.00    +0.000 A 
ATOM      7  C   UNL     1      -0.033  11.943  18.454  0.00  0.00    +0.000 C 
ATOM      8  N   UNL     1       0.916  10.839  18.497  0.00  0.00    +0.000 N 
ATOM      9  C   UNL     1       0.795   9.892  19.540  0.00  0.00    +0.000 A 
ATOM     10  C   UNL     1       1.554   8.713  19.472  0.00  0.00    +0.000 A 
ATOM     11  N   UNL     1       2.405   8.529  18.339  0.00  0.00    +0.000 N 
ATOM     12  N   UNL     1       1.498   7.744  20.408  0.00  0.00    +0.000 NA
ATOM     13  C   UNL     1       0.709   7.965  21.458  0.00  0.00    +0.000 A 
ATOM     14  N   UNL     1      -0.017   9.060  21.672  0.00  0.00    +0.000 NA
ATOM     15  C   UNL     1       0.064  10.020  20.725  0.00  0.00    +0.000 A 
ATOM     16  O   UNL     1      -0.761  11.090  21.010  0.00  0.00    +0.000 OA
ATOM     17  H   UNL     1       0.991  10.350  17.604  0.00  0.00    +0.000 HD
ATOM     18  H   UNL     1       3.039   9.323  18.290  0.00  0.00    +0.000 HD
ENDROOT
BRANCH  11  19
ATOM     19  C   UNL     1       2.999   7.282  18.030  0.00  0.00    +0.000 A 
ATOM     20  C   UNL     1       4.262   7.256  17.416  0.00  0.00    +0.000 A 
ATOM     21  C   UNL     1       4.825   6.062  16.970  0.00  0.00    +0.000 A 
ATOM     22  C   UNL     1       4.131   4.869  17.146  0.00  0.00    +0.000 A 
ATOM     23  C   UNL     1       2.895   4.879  17.792  0.00  0.00    +0.000 A 
ATOM     24 BR   UNL     1       1.956   3.250  18.013  0.00  0.00    +0.000 Br
ATOM     25  C   UNL     1       2.329   6.075  18.248  0.00  0.00    +0.000 A 
ENDBRANCH  11  19
BRANCH   1  27
ATOM     26  C   UNL     1       2.581  14.696  18.162  0.00  0.00    +0.000 C 
ATOM     27  O   UNL     1       1.177  14.517  18.324  0.00  0.00    +0.000 OA
ENDBRANCH   1  27
TORSDOF 2
ENDMDL
