MODEL 1
REMARK VINA RESULT:      -5.6      0.000      0.000
REMARK  Name = 
REMARK  6 active torsions:
REMARK  status: ('A' for Active; 'I' for Inactive)
REMARK    1  A    between atoms: C_1  and  C_2
REMARK    2  A    between atoms: C_2  and  C_3
REMARK    3  A    between atoms: C_2  and  C_4
REMARK    4  A    between atoms: C_2  and  O_5
REMARK    5  A    between atoms: O_5  and  C_6
REMARK    6  A    between atoms: C_6  and  C_8
REMARK                            x       y       z     vdW  Elec       q    Type
REMARK                         _______ _______ _______ _____ _____    ______ ____
ROOT
ATOM      1  C   UNL     1       5.005   4.187  18.514  0.00  0.00    +0.000 C 
ATOM      2  O   UNL     1       5.633   3.776  19.479  0.00  0.00    +0.000 OA
ENDROOT
BRANCH   1   3
ATOM      3  C   UNL     1       5.651   4.397  17.195  0.00  0.00    +0.000 A 
ATOM      4  C   UNL     1       7.039   4.470  17.153  0.00  0.00    +0.000 A 
ATOM      5  N   UNL     1       7.728   4.641  15.995  0.00  0.00    +0.000 NA
ATOM      6  C   UNL     1       6.967   4.734  14.882  0.00  0.00    +0.000 A 
ATOM      7  C   UNL     1       5.582   4.667  14.920  0.00  0.00    +0.000 A 
ATOM      8  N   UNL     1       4.888   4.499  16.072  0.00  0.00    +0.000 NA
ENDBRANCH   1   3
BRANCH   1   9
ATOM      9  O   UNL     1       3.684   4.499  18.485  0.00  0.00    +0.000 OA
BRANCH   9  11
ATOM     10  C   UNL     1       2.351   3.345  20.210  0.00  0.00    +0.000 C 
ATOM     11  C   UNL     1       2.697   3.461  18.720  0.00  0.00    +0.000 C 
ATOM     12  C   UNL     1       3.160   2.125  18.124  0.00  0.00    +0.000 C 
ATOM     13  C   UNL     1       1.429   3.907  17.972  0.00  0.00    +0.000 C 
ENDBRANCH   9  11
ENDBRANCH   1   9
TORSDOF 3
ENDMDL
MODEL 2
REMARK VINA RESULT:      -5.5      1.597      2.134
REMARK  Name = 
REMARK  6 active torsions:
REMARK  status: ('A' for Active; 'I' for Inactive)
REMARK    1  A    between atoms: C_1  and  C_2
REMARK    2  A    between atoms: C_2  and  C_3
REMARK    3  A    between atoms: C_2  and  C_4
REMARK    4  A    between atoms: C_2  and  O_5
REMARK    5  A    between atoms: O_5  and  C_6
REMARK    6  A    between atoms: C_6  and  C_8
REMARK                            x       y       z     vdW  Elec       q    Type
REMARK                         _______ _______ _______ _____ _____    ______ ____
ROOT
ATOM      1  C   UNL     1       4.523   3.487  19.466  0.00  0.00    +0.000 C 
ATOM      2  O   UNL     1       4.824   2.425  19.991  0.00  0.00    +0.000 OA
ENDROOT
BRANCH   1   3
ATOM      3  C   UNL     1       5.540   4.352  18.818  0.00  0.00    +0.000 A 
ATOM      4  C   UNL     1       5.536   4.436  17.431  0.00  0.00    +0.000 A 
ATOM      5  N   UNL     1       6.411   5.214  16.741  0.00  0.00    +0.000 NA
ATOM      6  C   UNL     1       7.288   5.905  17.503  0.00  0.00    +0.000 A 
ATOM      7  C   UNL     1       7.298   5.820  18.888  0.00  0.00    +0.000 A 
ATOM      8  N   UNL     1       6.431   5.045  19.581  0.00  0.00    +0.000 NA
ENDBRANCH   1   3
BRANCH   1   9
ATOM      9  O   UNL     1       3.278   4.023  19.385  0.00  0.00    +0.000 OA
BRANCH   9  11
ATOM     10  C   UNL     1       1.153   2.810  19.690  0.00  0.00    +0.000 C 
ATOM     11  C   UNL     1       2.226   3.292  18.705  0.00  0.00    +0.000 C 
ATOM     12  C   UNL     1       2.811   2.142  17.874  0.00  0.00    +0.000 C 
ATOM     13  C   UNL     1       1.569   4.295  17.741  0.00  0.00    +0.000 C 
ENDBRANCH   9  11
ENDBRANCH   1   9
TORSDOF 3
ENDMDL
MODEL 3
REMARK VINA RESULT:      -5.4      1.205      1.650
REMARK  Name = 
REMARK  6 active torsions:
REMARK  status: ('A' for Active; 'I' for Inactive)
REMARK    1  A    between atoms: C_1  and  C_2
REMARK    2  A    between atoms: C_2  and  C_3
REMARK    3  A    between atoms: C_2  and  C_4
REMARK    4  A    between atoms: C_2  and  O_5
REMARK    5  A    between atoms: O_5  and  C_6
REMARK    6  A    between atoms: C_6  and  C_8
REMARK                            x       y       z     vdW  Elec       q    Type
REMARK                         _______ _______ _______ _____ _____    ______ ____
ROOT
ATOM      1  C   UNL     1       5.070   4.736  18.573  0.00  0.00    +0.000 C 
ATOM      2  O   UNL     1       5.609   5.235  19.550  0.00  0.00    +0.000 OA
ENDROOT
BRANCH   1   3
ATOM      3  C   UNL     1       5.716   4.742  17.237  0.00  0.00    +0.000 A 
ATOM      4  C   UNL     1       6.774   5.619  17.028  0.00  0.00    +0.000 A 
ATOM      5  N   UNL     1       7.445   5.689  15.849  0.00  0.00    +0.000 NA
ATOM      6  C   UNL     1       7.011   4.841  14.890  0.00  0.00    +0.000 A 
ATOM      7  C   UNL     1       5.952   3.968  15.093  0.00  0.00    +0.000 A 
ATOM      8  N   UNL     1       5.277   3.894  16.265  0.00  0.00    +0.000 NA
ENDBRANCH   1   3
BRANCH   1   9
ATOM      9  O   UNL     1       3.859   4.123  18.545  0.00  0.00    +0.000 OA
BRANCH   9  11
ATOM     10  C   UNL     1       2.761   6.290  18.121  0.00  0.00    +0.000 C 
ATOM     11  C   UNL     1       2.655   4.903  18.768  0.00  0.00    +0.000 C 
ATOM     12  C   UNL     1       2.326   4.983  20.265  0.00  0.00    +0.000 C 
ATOM     13  C   UNL     1       1.520   4.138  18.067  0.00  0.00    +0.000 C 
ENDBRANCH   9  11
ENDBRANCH   1   9
TORSDOF 3
ENDMDL
MODEL 4
REMARK VINA RESULT:      -5.4      1.925      2.573
REMARK  Name = 
REMARK  6 active torsions:
REMARK  status: ('A' for Active; 'I' for Inactive)
REMARK    1  A    between atoms: C_1  and  C_2
REMARK    2  A    between atoms: C_2  and  C_3
REMARK    3  A    between atoms: C_2  and  C_4
REMARK    4  A    between atoms: C_2  and  O_5
REMARK    5  A    between atoms: O_5  and  C_6
REMARK    6  A    between atoms: C_6  and  C_8
REMARK                            x       y       z     vdW  Elec       q    Type
REMARK                         _______ _______ _______ _____ _____    ______ ____
ROOT
ATOM      1  C   UNL     1       4.389   2.956  19.543  0.00  0.00    +0.000 C 
ATOM      2  O   UNL     1       5.020   2.202  20.269  0.00  0.00    +0.000 OA
ENDROOT
BRANCH   1   3
ATOM      3  C   UNL     1       5.053   4.033  18.768  0.00  0.00    +0.000 A 
ATOM      4  C   UNL     1       4.526   4.363  17.525  0.00  0.00    +0.000 A 
ATOM      5  N   UNL     1       5.048   5.345  16.746  0.00  0.00    +0.000 NA
ATOM      6  C   UNL     1       6.118   5.984  17.268  0.00  0.00    +0.000 A 
ATOM      7  C   UNL     1       6.651   5.655  18.506  0.00  0.00    +0.000 A 
ATOM      8  N   UNL     1       6.137   4.675  19.287  0.00  0.00    +0.000 NA
ENDBRANCH   1   3
BRANCH   1   9
ATOM      9  O   UNL     1       3.048   2.934  19.329  0.00  0.00    +0.000 OA
BRANCH   9  11
ATOM     10  C   UNL     1       2.349   4.966  20.538  0.00  0.00    +0.000 C 
ATOM     11  C   UNL     1       2.152   3.457  20.344  0.00  0.00    +0.000 C 
ATOM     12  C   UNL     1       2.300   2.677  21.657  0.00  0.00    +0.000 C 
ATOM     13  C   UNL     1       0.728   3.230  19.808  0.00  0.00    +0.000 C 
ENDBRANCH   9  11
ENDBRANCH   1   9
TORSDOF 3
ENDMDL
MODEL 5
REMARK VINA RESULT:      -5.4      1.284      1.784
REMARK  Name = 
REMARK  6 active torsions:
REMARK  status: ('A' for Active; 'I' for Inactive)
REMARK    1  A    between atoms: C_1  and  C_2
REMARK    2  A    between atoms: C_2  and  C_3
REMARK    3  A    between atoms: C_2  and  C_4
REMARK    4  A    between atoms: C_2  and  O_5
REMARK    5  A    between atoms: O_5  and  C_6
REMARK    6  A    between atoms: C_6  and  C_8
REMARK                            x       y       z     vdW  Elec       q    Type
REMARK                         _______ _______ _______ _____ _____    ______ ____
ROOT
ATOM      1  C   UNL     1       5.147   4.819  18.688  0.00  0.00    +0.000 C 
ATOM      2  O   UNL     1       5.681   5.381  19.633  0.00  0.00    +0.000 OA
ENDROOT
BRANCH   1   3
ATOM      3  C   UNL     1       5.778   4.778  17.346  0.00  0.00    +0.000 A 
ATOM      4  C   UNL     1       6.797   5.684  17.077  0.00  0.00    +0.000 A 
ATOM      5  N   UNL     1       7.452   5.717  15.888  0.00  0.00    +0.000 NA
ATOM      6  C   UNL     1       7.044   4.800  14.982  0.00  0.00    +0.000 A 
ATOM      7  C   UNL     1       6.026   3.897  15.245  0.00  0.00    +0.000 A 
ATOM      8  N   UNL     1       5.366   3.860  16.428  0.00  0.00    +0.000 NA
ENDBRANCH   1   3
BRANCH   1   9
ATOM      9  O   UNL     1       3.955   4.168  18.706  0.00  0.00    +0.000 OA
BRANCH   9  11
ATOM     10  C   UNL     1       1.600   4.205  17.973  0.00  0.00    +0.000 C 
ATOM     11  C   UNL     1       2.721   4.933  18.726  0.00  0.00    +0.000 C 
ATOM     12  C   UNL     1       2.952   6.354  18.193  0.00  0.00    +0.000 C 
ATOM     13  C   UNL     1       2.312   5.036  20.205  0.00  0.00    +0.000 C 
ENDBRANCH   9  11
ENDBRANCH   1   9
TORSDOF 3
ENDMDL
MODEL 6
REMARK VINA RESULT:      -5.4      1.136      1.639
REMARK  Name = 
REMARK  6 active torsions:
REMARK  status: ('A' for Active; 'I' for Inactive)
REMARK    1  A    between atoms: C_1  and  C_2
REMARK    2  A    between atoms: C_2  and  C_3
REMARK    3  A    between atoms: C_2  and  C_4
REMARK    4  A    between atoms: C_2  and  O_5
REMARK    5  A    between atoms: O_5  and  C_6
REMARK    6  A    between atoms: C_6  and  C_8
REMARK                            x       y       z     vdW  Elec       q    Type
REMARK                         _______ _______ _______ _____ _____    ______ ____
ROOT
ATOM      1  C   UNL     1       4.241   4.574  18.859  0.00  0.00    +0.000 C 
ATOM      2  O   UNL     1       4.192   5.555  19.586  0.00  0.00    +0.000 OA
ENDROOT
BRANCH   1   3
ATOM      3  C   UNL     1       5.196   4.488  17.727  0.00  0.00    +0.000 A 
ATOM      4  C   UNL     1       6.546   4.678  17.996  0.00  0.00    +0.000 A 
ATOM      5  N   UNL     1       7.502   4.602  17.035  0.00  0.00    +0.000 NA
ATOM      6  C   UNL     1       7.047   4.324  15.793  0.00  0.00    +0.000 A 
ATOM      7  C   UNL     1       5.700   4.138  15.519  0.00  0.00    +0.000 A 
ATOM      8  N   UNL     1       4.740   4.215  16.472  0.00  0.00    +0.000 NA
ENDBRANCH   1   3
BRANCH   1   9
ATOM      9  O   UNL     1       3.477   3.455  18.962  0.00  0.00    +0.000 OA
BRANCH   9  11
ATOM     10  C   UNL     1       1.575   4.481  17.775  0.00  0.00    +0.000 C 
ATOM     11  C   UNL     1       2.031   3.569  18.921  0.00  0.00    +0.000 C 
ATOM     12  C   UNL     1       1.481   4.022  20.280  0.00  0.00    +0.000 C 
ATOM     13  C   UNL     1       1.504   2.152  18.638  0.00  0.00    +0.000 C 
ENDBRANCH   9  11
ENDBRANCH   1   9
TORSDOF 3
ENDMDL
MODEL 7
REMARK VINA RESULT:      -5.4      1.570      2.339
REMARK  Name = 
REMARK  6 active torsions:
REMARK  status: ('A' for Active; 'I' for Inactive)
REMARK    1  A    between atoms: C_1  and  C_2
REMARK    2  A    between atoms: C_2  and  C_3
REMARK    3  A    between atoms: C_2  and  C_4
REMARK    4  A    between atoms: C_2  and  O_5
REMARK    5  A    between atoms: O_5  and  C_6
REMARK    6  A    between atoms: C_6  and  C_8
REMARK                            x       y       z     vdW  Elec       q    Type
REMARK                         _______ _______ _______ _____ _____    ______ ____
ROOT
ATOM      1  C   UNL     1       3.197   3.294  17.897  0.00  0.00    +0.000 C 
ATOM      2  O   UNL     1       2.330   3.318  17.036  0.00  0.00    +0.000 OA
ENDROOT
BRANCH   1   3
ATOM      3  C   UNL     1       4.571   3.788  17.635  0.00  0.00    +0.000 A 
ATOM      4  C   UNL     1       5.363   4.124  18.728  0.00  0.00    +0.000 A 
ATOM      5  N   UNL     1       6.639   4.568  18.598  0.00  0.00    +0.000 NA
ATOM      6  C   UNL     1       7.089   4.658  17.327  0.00  0.00    +0.000 A 
ATOM      7  C   UNL     1       6.302   4.329  16.234  0.00  0.00    +0.000 A 
ATOM      8  N   UNL     1       5.027   3.888  16.355  0.00  0.00    +0.000 NA
ENDBRANCH   1   3
BRANCH   1   9
ATOM      9  O   UNL     1       3.057   2.840  19.169  0.00  0.00    +0.000 OA
BRANCH   9  11
ATOM     10  C   UNL     1       1.961   4.938  19.863  0.00  0.00    +0.000 C 
ATOM     11  C   UNL     1       2.036   3.414  20.027  0.00  0.00    +0.000 C 
ATOM     12  C   UNL     1       2.253   2.996  21.487  0.00  0.00    +0.000 C 
ATOM     13  C   UNL     1       0.701   2.819  19.550  0.00  0.00    +0.000 C 
ENDBRANCH   9  11
ENDBRANCH   1   9
TORSDOF 3
ENDMDL
MODEL 8
REMARK VINA RESULT:      -5.4      2.344      4.755
REMARK  Name = 
REMARK  6 active torsions:
REMARK  status: ('A' for Active; 'I' for Inactive)
REMARK    1  A    between atoms: C_1  and  C_2
REMARK    2  A    between atoms: C_2  and  C_3
REMARK    3  A    between atoms: C_2  and  C_4
REMARK    4  A    between atoms: C_2  and  O_5
REMARK    5  A    between atoms: O_5  and  C_6
REMARK    6  A    between atoms: C_6  and  C_8
REMARK                            x       y       z     vdW  Elec       q    Type
REMARK                         _______ _______ _______ _____ _____    ______ ____
ROOT
ATOM      1  C   UNL     1       4.856   4.365  18.738  0.00  0.00    +0.000 C 
ATOM      2  O   UNL     1       5.793   3.884  19.359  0.00  0.00    +0.000 OA
ENDROOT
BRANCH   1   3
ATOM      3  C   UNL     1       3.510   3.741  18.751  0.00  0.00    +0.000 A 
ATOM      4  C   UNL     1       2.585   4.167  17.805  0.00  0.00    +0.000 A 
ATOM      5  N   UNL     1       1.333   3.648  17.719  0.00  0.00    +0.000 NA
ATOM      6  C   UNL     1       1.049   2.682  18.621  0.00  0.00    +0.000 A 
ATOM      7  C   UNL     1       1.967   2.258  19.570  0.00  0.00    +0.000 A 
ATOM      8  N   UNL     1       3.216   2.773  19.663  0.00  0.00    +0.000 NA
ENDBRANCH   1   3
BRANCH   1   9
ATOM      9  O   UNL     1       4.884   5.490  17.979  0.00  0.00    +0.000 OA
BRANCH   9  11
ATOM     10  C   UNL     1       5.998   4.212  16.188  0.00  0.00    +0.000 C 
ATOM     11  C   UNL     1       5.806   5.577  16.861  0.00  0.00    +0.000 C 
ATOM     12  C   UNL     1       7.137   6.203  17.300  0.00  0.00    +0.000 C 
ATOM     13  C   UNL     1       5.145   6.521  15.842  0.00  0.00    +0.000 C 
ENDBRANCH   9  11
ENDBRANCH   1   9
TORSDOF 3
ENDMDL
MODEL 9
REMARK VINA RESULT:      -5.4      1.146      1.412
REMARK  Name = 
REMARK  6 active torsions:
REMARK  status: ('A' for Active; 'I' for Inactive)
REMARK    1  A    between atoms: C_1  and  C_2
REMARK    2  A    between atoms: C_2  and  C_3
REMARK    3  A    between atoms: C_2  and  C_4
REMARK    4  A    between atoms: C_2  and  O_5
REMARK    5  A    between atoms: O_5  and  C_6
REMARK    6  A    between atoms: C_6  and  C_8
REMARK                            x       y       z     vdW  Elec       q    Type
REMARK                         _______ _______ _______ _____ _____    ______ ____
ROOT
ATOM      1  C   UNL     1       5.328   4.371  18.371  0.00  0.00    +0.000 C 
ATOM      2  O   UNL     1       5.987   4.646  19.364  0.00  0.00    +0.000 OA
ENDROOT
BRANCH   1   3
ATOM      3  C   UNL     1       5.880   4.524  17.002  0.00  0.00    +0.000 A 
ATOM      4  C   UNL     1       6.968   5.371  16.828  0.00  0.00    +0.000 A 
ATOM      5  N   UNL     1       7.559   5.565  15.621  0.00  0.00    +0.000 NA
ATOM      6  C   UNL     1       7.014   4.872  14.596  0.00  0.00    +0.000 A 
ATOM      7  C   UNL     1       5.926   4.029  14.765  0.00  0.00    +0.000 A 
ATOM      8  N   UNL     1       5.329   3.832  15.965  0.00  0.00    +0.000 NA
ENDBRANCH   1   3
BRANCH   1   9
ATOM      9  O   UNL     1       4.054   3.902  18.352  0.00  0.00    +0.000 OA
BRANCH   9  11
ATOM     10  C   UNL     1       2.682   4.905  20.139  0.00  0.00    +0.000 C 
ATOM     11  C   UNL     1       2.953   4.806  18.633  0.00  0.00    +0.000 C 
ATOM     12  C   UNL     1       1.702   4.403  17.841  0.00  0.00    +0.000 C 
ATOM     13  C   UNL     1       3.408   6.190  18.140  0.00  0.00    +0.000 C 
ENDBRANCH   9  11
ENDBRANCH   1   9
TORSDOF 3
ENDMDL
