MODEL 1
REMARK VINA RESULT:      -9.5      0.000      0.000
REMARK  Name = 
REMARK  2 active torsions:
REMARK  status: ('A' for Active; 'I' for Inactive)
REMARK    1  A    between atoms: C_2  and  C_4
REMARK    2  A    between atoms: C_11  and  C_12
REMARK                            x       y       z     vdW  Elec       q    Type
REMARK                         _______ _______ _______ _____ _____    ______ ____
ROOT
ATOM      1  C   UNL     1       5.927   4.746  15.521  0.00  0.00    +0.000 A 
ATOM      2  C   UNL     1       5.720   3.477  16.054  0.00  0.00    +0.000 A 
ATOM      3  C   UNL     1       4.816   3.289  17.101  0.00  0.00    +0.000 A 
ATOM      4  C   UNL     1       4.076   4.366  17.661  0.00  0.00    +0.000 A 
ATOM      5  C   UNL     1       4.298   5.641  17.113  0.00  0.00    +0.000 A 
ATOM      6  C   UNL     1       5.217   5.824  16.066  0.00  0.00    +0.000 A 
ATOM      7  C   UNL     1       3.595   6.742  17.607  0.00  0.00    +0.000 A 
ATOM      8  C   UNL     1       2.631   6.643  18.632  0.00  0.00    +0.000 A 
ATOM      9  C   UNL     1       2.373   5.351  19.184  0.00  0.00    +0.000 A 
ATOM     10  C   UNL     1       1.398   5.091  20.177  0.00  0.00    +0.000 A 
ATOM     11  C   UNL     1       1.274   3.838  20.748  0.00  0.00    +0.000 A 
ATOM     12  N   UNL     1       2.000   2.781  20.370  0.00  0.00    +0.000 NA
ATOM     13  C   UNL     1       2.880   3.001  19.369  0.00  0.00    +0.000 A 
ATOM     14  C   UNL     1       3.128   4.226  18.728  0.00  0.00    +0.000 A 
ENDROOT
BRANCH   8  15
ATOM     15  C   UNL     1       1.981   7.914  19.090  0.00  0.00    +0.000 A 
ATOM     16  C   UNL     1       1.745   8.983  18.199  0.00  0.00    +0.000 A 
ATOM     17  C   UNL     1       1.182  10.194  18.625  0.00  0.00    +0.000 A 
ATOM     18  C   UNL     1       0.799  10.347  19.951  0.00  0.00    +0.000 A 
ATOM     19 CL   UNL     1       0.073  11.814  20.475  0.00  0.00    +0.000 Cl
ATOM     20  C   UNL     1       1.017   9.318  20.859  0.00  0.00    +0.000 A 
ATOM     21  C   UNL     1       1.638   8.136  20.437  0.00  0.00    +0.000 A 
ENDBRANCH   8  15
BRANCH   1  23
ATOM     22  O   UNL     1       6.584   4.215  13.289  0.00  0.00    +0.000 OA
ATOM     23  C   UNL     1       6.785   4.929  14.311  0.00  0.00    +0.000 C 
ATOM     24  O   UNL     1       7.848   5.623  14.472  0.00  0.00    +0.000 OA
ENDBRANCH   1  23
TORSDOF 2
ENDMDL
MODEL 2
REMARK VINA RESULT:      -9.3      0.105      1.177
REMARK  Name = 
REMARK  2 active torsions:
REMARK  status: ('A' for Active; 'I' for Inactive)
REMARK    1  A    between atoms: C_2  and  C_4
REMARK    2  A    between atoms: C_11  and  C_12
REMARK                            x       y       z     vdW  Elec       q    Type
REMARK                         _______ _______ _______ _____ _____    ______ ____
ROOT
ATOM      1  C   UNL     1       5.970   4.631  15.524  0.00  0.00    +0.000 A 
ATOM      2  C   UNL     1       5.722   3.370  16.061  0.00  0.00    +0.000 A 
ATOM      3  C   UNL     1       4.796   3.212  17.092  0.00  0.00    +0.000 A 
ATOM      4  C   UNL     1       4.073   4.311  17.633  0.00  0.00    +0.000 A 
ATOM      5  C   UNL     1       4.338   5.576  17.082  0.00  0.00    +0.000 A 
ATOM      6  C   UNL     1       5.278   5.730  16.050  0.00  0.00    +0.000 A 
ATOM      7  C   UNL     1       3.655   6.698  17.557  0.00  0.00    +0.000 A 
ATOM      8  C   UNL     1       2.671   6.630  18.567  0.00  0.00    +0.000 A 
ATOM      9  C   UNL     1       2.371   5.348  19.121  0.00  0.00    +0.000 A 
ATOM     10  C   UNL     1       1.373   5.119  20.099  0.00  0.00    +0.000 A 
ATOM     11  C   UNL     1       1.207   3.873  20.674  0.00  0.00    +0.000 A 
ATOM     12  N   UNL     1       1.912   2.796  20.316  0.00  0.00    +0.000 NA
ATOM     13  C   UNL     1       2.814   2.988  19.329  0.00  0.00    +0.000 A 
ATOM     14  C   UNL     1       3.104   4.201  18.685  0.00  0.00    +0.000 A 
ENDROOT
BRANCH   8  15
ATOM     15  C   UNL     1       2.046   7.920  19.005  0.00  0.00    +0.000 A 
ATOM     16  C   UNL     1       1.658   8.132  20.345  0.00  0.00    +0.000 A 
ATOM     17  C   UNL     1       1.029   9.316  20.757  0.00  0.00    +0.000 A 
ATOM     18  C   UNL     1       0.815  10.337  19.842  0.00  0.00    +0.000 A 
ATOM     19 CL   UNL     1       0.080  11.807  20.345  0.00  0.00    +0.000 Cl
ATOM     20  C   UNL     1       1.182  10.165  18.512  0.00  0.00    +0.000 A 
ATOM     21  C   UNL     1       1.751   8.955  18.098  0.00  0.00    +0.000 A 
ENDBRANCH   8  15
BRANCH   1  23
ATOM     22  O   UNL     1       7.804   5.614  14.354  0.00  0.00    +0.000 OA
ATOM     23  C   UNL     1       6.853   4.784  14.328  0.00  0.00    +0.000 C 
ATOM     24  O   UNL     1       6.434   4.247  13.244  0.00  0.00    +0.000 OA
ENDBRANCH   1  23
TORSDOF 2
ENDMDL
MODEL 3
REMARK VINA RESULT:      -9.1      0.917      1.420
REMARK  Name = 
REMARK  2 active torsions:
REMARK  status: ('A' for Active; 'I' for Inactive)
REMARK    1  A    between atoms: C_2  and  C_4
REMARK    2  A    between atoms: C_11  and  C_12
REMARK                            x       y       z     vdW  Elec       q    Type
REMARK                         _______ _______ _______ _____ _____    ______ ____
ROOT
ATOM      1  C   UNL     1       6.501   4.844  14.715  0.00  0.00    +0.000 A 
ATOM      2  C   UNL     1       6.295   3.510  15.060  0.00  0.00    +0.000 A 
ATOM      3  C   UNL     1       5.359   3.171  16.038  0.00  0.00    +0.000 A 
ATOM      4  C   UNL     1       4.585   4.152  16.715  0.00  0.00    +0.000 A 
ATOM      5  C   UNL     1       4.806   5.492  16.356  0.00  0.00    +0.000 A 
ATOM      6  C   UNL     1       5.757   5.828  15.378  0.00  0.00    +0.000 A 
ATOM      7  C   UNL     1       4.071   6.508  16.973  0.00  0.00    +0.000 A 
ATOM      8  C   UNL     1       3.074   6.257  17.940  0.00  0.00    +0.000 A 
ATOM      9  C   UNL     1       2.817   4.899  18.299  0.00  0.00    +0.000 A 
ATOM     10  C   UNL     1       1.814   4.494  19.212  0.00  0.00    +0.000 A 
ATOM     11  C   UNL     1       1.689   3.173  19.599  0.00  0.00    +0.000 A 
ATOM     12  N   UNL     1       2.444   2.186  19.105  0.00  0.00    +0.000 NA
ATOM     13  C   UNL     1       3.353   2.552  18.176  0.00  0.00    +0.000 A 
ATOM     14  C   UNL     1       3.603   3.855  17.718  0.00  0.00    +0.000 A 
ENDROOT
BRANCH   8  15
ATOM     15  C   UNL     1       2.391   7.447  18.545  0.00  0.00    +0.000 A 
ATOM     16  C   UNL     1       2.095   7.504  19.924  0.00  0.00    +0.000 A 
ATOM     17  C   UNL     1       1.414   8.589  20.492  0.00  0.00    +0.000 A 
ATOM     18  C   UNL     1       1.051   9.668  19.698  0.00  0.00    +0.000 A 
ATOM     19 CL   UNL     1       0.250  11.021  20.392  0.00  0.00    +0.000 Cl
ATOM     20  C   UNL     1       1.324   9.649  18.335  0.00  0.00    +0.000 A 
ATOM     21  C   UNL     1       1.948   8.532  17.766  0.00  0.00    +0.000 A 
ENDBRANCH   8  15
BRANCH   1  23
ATOM     22  O   UNL     1       7.226   4.650  12.449  0.00  0.00    +0.000 OA
ATOM     23  C   UNL     1       7.396   5.200  13.573  0.00  0.00    +0.000 C 
ATOM     24  O   UNL     1       8.455   5.856  13.868  0.00  0.00    +0.000 OA
ENDBRANCH   1  23
TORSDOF 2
ENDMDL
MODEL 4
REMARK VINA RESULT:      -8.9      0.944      1.191
REMARK  Name = 
REMARK  2 active torsions:
REMARK  status: ('A' for Active; 'I' for Inactive)
REMARK    1  A    between atoms: C_2  and  C_4
REMARK    2  A    between atoms: C_11  and  C_12
REMARK                            x       y       z     vdW  Elec       q    Type
REMARK                         _______ _______ _______ _____ _____    ______ ____
ROOT
ATOM      1  C   UNL     1       6.491   4.746  14.883  0.00  0.00    +0.000 A 
ATOM      2  C   UNL     1       6.213   3.410  15.163  0.00  0.00    +0.000 A 
ATOM      3  C   UNL     1       5.214   3.074  16.077  0.00  0.00    +0.000 A 
ATOM      4  C   UNL     1       4.445   4.060  16.753  0.00  0.00    +0.000 A 
ATOM      5  C   UNL     1       4.740   5.403  16.461  0.00  0.00    +0.000 A 
ATOM      6  C   UNL     1       5.754   5.735  15.548  0.00  0.00    +0.000 A 
ATOM      7  C   UNL     1       4.015   6.424  17.080  0.00  0.00    +0.000 A 
ATOM      8  C   UNL     1       2.960   6.179  17.985  0.00  0.00    +0.000 A 
ATOM      9  C   UNL     1       2.629   4.820  18.274  0.00  0.00    +0.000 A 
ATOM     10  C   UNL     1       1.564   4.424  19.117  0.00  0.00    +0.000 A 
ATOM     11  C   UNL     1       1.365   3.095  19.443  0.00  0.00    +0.000 A 
ATOM     12  N   UNL     1       2.103   2.097  18.949  0.00  0.00    +0.000 NA
ATOM     13  C   UNL     1       3.075   2.459  18.083  0.00  0.00    +0.000 A 
ATOM     14  C   UNL     1       3.402   3.767  17.692  0.00  0.00    +0.000 A 
ENDROOT
BRANCH   8  15
ATOM     15  C   UNL     1       2.294   7.372  18.603  0.00  0.00    +0.000 A 
ATOM     16  C   UNL     1       1.897   8.480  17.823  0.00  0.00    +0.000 A 
ATOM     17  C   UNL     1       1.318   9.620  18.396  0.00  0.00    +0.000 A 
ATOM     18  C   UNL     1       1.079   9.660  19.764  0.00  0.00    +0.000 A 
ATOM     19 CL   UNL     1       0.334  11.038  20.470  0.00  0.00    +0.000 Cl
ATOM     20  C   UNL     1       1.457   8.589  20.565  0.00  0.00    +0.000 A 
ATOM     21  C   UNL     1       2.094   7.481  19.992  0.00  0.00    +0.000 A 
ENDBRANCH   8  15
BRANCH   1  23
ATOM     22  O   UNL     1       8.376   5.944  14.040  0.00  0.00    +0.000 OA
ATOM     23  C   UNL     1       7.459   5.108  13.804  0.00  0.00    +0.000 C 
ATOM     24  O   UNL     1       7.144   4.744  12.618  0.00  0.00    +0.000 OA
ENDBRANCH   1  23
TORSDOF 2
ENDMDL
MODEL 5
REMARK VINA RESULT:      -8.6      4.157      6.758
REMARK  Name = 
REMARK  2 active torsions:
REMARK  status: ('A' for Active; 'I' for Inactive)
REMARK    1  A    between atoms: C_2  and  C_4
REMARK    2  A    between atoms: C_11  and  C_12
REMARK                            x       y       z     vdW  Elec       q    Type
REMARK                         _______ _______ _______ _____ _____    ______ ____
ROOT
ATOM      1  C   UNL     1       1.017   9.376  20.147  0.00  0.00    +0.000 A 
ATOM      2  C   UNL     1       0.669   8.554  21.217  0.00  0.00    +0.000 A 
ATOM      3  C   UNL     1       1.118   7.234  21.267  0.00  0.00    +0.000 A 
ATOM      4  C   UNL     1       1.938   6.675  20.249  0.00  0.00    +0.000 A 
ATOM      5  C   UNL     1       2.278   7.518  19.176  0.00  0.00    +0.000 A 
ATOM      6  C   UNL     1       1.814   8.842  19.126  0.00  0.00    +0.000 A 
ATOM      7  C   UNL     1       3.091   7.038  18.146  0.00  0.00    +0.000 A 
ATOM      8  C   UNL     1       3.627   5.733  18.133  0.00  0.00    +0.000 A 
ATOM      9  C   UNL     1       3.313   4.871  19.228  0.00  0.00    +0.000 A 
ATOM     10  C   UNL     1       3.820   3.558  19.376  0.00  0.00    +0.000 A 
ATOM     11  C   UNL     1       3.392   2.736  20.402  0.00  0.00    +0.000 A 
ATOM     12  N   UNL     1       2.535   3.127  21.350  0.00  0.00    +0.000 NA
ATOM     13  C   UNL     1       2.104   4.405  21.261  0.00  0.00    +0.000 A 
ATOM     14  C   UNL     1       2.435   5.330  20.258  0.00  0.00    +0.000 A 
ENDROOT
BRANCH   8  15
ATOM     15  C   UNL     1       4.453   5.341  16.945  0.00  0.00    +0.000 A 
ATOM     16  C   UNL     1       5.006   6.310  16.081  0.00  0.00    +0.000 A 
ATOM     17  C   UNL     1       5.740   5.955  14.941  0.00  0.00    +0.000 A 
ATOM     18  C   UNL     1       5.976   4.615  14.662  0.00  0.00    +0.000 A 
ATOM     19 CL   UNL     1       6.908   4.171  13.288  0.00  0.00    +0.000 Cl
ATOM     20  C   UNL     1       5.447   3.632  15.489  0.00  0.00    +0.000 A 
ATOM     21  C   UNL     1       4.662   3.995  16.590  0.00  0.00    +0.000 A 
ENDBRANCH   8  15
BRANCH   1  23
ATOM     22  O   UNL     1       0.256  11.381  19.098  0.00  0.00    +0.000 OA
ATOM     23  C   UNL     1       0.658  10.827  20.160  0.00  0.00    +0.000 C 
ATOM     24  O   UNL     1       1.027  11.491  21.189  0.00  0.00    +0.000 OA
ENDBRANCH   1  23
TORSDOF 2
ENDMDL
MODEL 6
REMARK VINA RESULT:      -8.5      4.190      6.844
REMARK  Name = 
REMARK  2 active torsions:
REMARK  status: ('A' for Active; 'I' for Inactive)
REMARK    1  A    between atoms: C_2  and  C_4
REMARK    2  A    between atoms: C_11  and  C_12
REMARK                            x       y       z     vdW  Elec       q    Type
REMARK                         _______ _______ _______ _____ _____    ______ ____
ROOT
ATOM      1  C   UNL     1       1.026   9.418  20.125  0.00  0.00    +0.000 A 
ATOM      2  C   UNL     1       0.673   8.597  21.193  0.00  0.00    +0.000 A 
ATOM      3  C   UNL     1       1.107   7.271  21.238  0.00  0.00    +0.000 A 
ATOM      4  C   UNL     1       1.917   6.706  20.216  0.00  0.00    +0.000 A 
ATOM      5  C   UNL     1       2.262   7.547  19.144  0.00  0.00    +0.000 A 
ATOM      6  C   UNL     1       1.813   8.877  19.099  0.00  0.00    +0.000 A 
ATOM      7  C   UNL     1       3.065   7.061  18.109  0.00  0.00    +0.000 A 
ATOM      8  C   UNL     1       3.586   5.750  18.091  0.00  0.00    +0.000 A 
ATOM      9  C   UNL     1       3.267   4.889  19.185  0.00  0.00    +0.000 A 
ATOM     10  C   UNL     1       3.760   3.569  19.327  0.00  0.00    +0.000 A 
ATOM     11  C   UNL     1       3.326   2.750  20.353  0.00  0.00    +0.000 A 
ATOM     12  N   UNL     1       2.477   3.149  21.306  0.00  0.00    +0.000 NA
ATOM     13  C   UNL     1       2.061   4.431  21.221  0.00  0.00    +0.000 A 
ATOM     14  C   UNL     1       2.398   5.355  20.219  0.00  0.00    +0.000 A 
ENDROOT
BRANCH   8  15
ATOM     15  C   UNL     1       4.403   5.352  16.898  0.00  0.00    +0.000 A 
ATOM     16  C   UNL     1       4.625   3.996  16.577  0.00  0.00    +0.000 A 
ATOM     17  C   UNL     1       5.427   3.612  15.493  0.00  0.00    +0.000 A 
ATOM     18  C   UNL     1       5.989   4.583  14.674  0.00  0.00    +0.000 A 
ATOM     19 CL   UNL     1       6.942   4.122  13.319  0.00  0.00    +0.000 Cl
ATOM     20  C   UNL     1       5.794   5.929  14.958  0.00  0.00    +0.000 A 
ATOM     21  C   UNL     1       5.044   6.302  16.081  0.00  0.00    +0.000 A 
ENDBRANCH   8  15
BRANCH   1  23
ATOM     22  O   UNL     1       0.830  11.536  21.206  0.00  0.00    +0.000 OA
ATOM     23  C   UNL     1       0.684  10.872  20.142  0.00  0.00    +0.000 C 
ATOM     24  O   UNL     1       0.012  11.306  19.143  0.00  0.00    +0.000 OA
ENDBRANCH   1  23
TORSDOF 2
ENDMDL
MODEL 7
REMARK VINA RESULT:      -8.0      4.144      6.795
REMARK  Name = 
REMARK  2 active torsions:
REMARK  status: ('A' for Active; 'I' for Inactive)
REMARK    1  A    between atoms: C_2  and  C_4
REMARK    2  A    between atoms: C_11  and  C_12
REMARK                            x       y       z     vdW  Elec       q    Type
REMARK                         _______ _______ _______ _____ _____    ______ ____
ROOT
ATOM      1  C   UNL     1       1.440   9.010  19.457  0.00  0.00    +0.000 A 
ATOM      2  C   UNL     1       1.149   8.182  20.538  0.00  0.00    +0.000 A 
ATOM      3  C   UNL     1       1.678   6.892  20.601  0.00  0.00    +0.000 A 
ATOM      4  C   UNL     1       2.526   6.373  19.586  0.00  0.00    +0.000 A 
ATOM      5  C   UNL     1       2.809   7.221  18.501  0.00  0.00    +0.000 A 
ATOM      6  C   UNL     1       2.265   8.514  18.438  0.00  0.00    +0.000 A 
ATOM      7  C   UNL     1       3.646   6.780  17.473  0.00  0.00    +0.000 A 
ATOM      8  C   UNL     1       4.261   5.510  17.473  0.00  0.00    +0.000 A 
ATOM      9  C   UNL     1       4.006   4.644  18.580  0.00  0.00    +0.000 A 
ATOM     10  C   UNL     1       4.594   3.366  18.741  0.00  0.00    +0.000 A 
ATOM     11  C   UNL     1       4.221   2.532  19.779  0.00  0.00    +0.000 A 
ATOM     12  N   UNL     1       3.346   2.882  20.727  0.00  0.00    +0.000 NA
ATOM     13  C   UNL     1       2.837   4.129  20.624  0.00  0.00    +0.000 A 
ATOM     14  C   UNL     1       3.105   5.061  19.609  0.00  0.00    +0.000 A 
ENDROOT
BRANCH   8  15
ATOM     15  C   UNL     1       5.104   5.156  16.286  0.00  0.00    +0.000 A 
ATOM     16  C   UNL     1       6.450   5.569  16.189  0.00  0.00    +0.000 A 
ATOM     17  C   UNL     1       7.234   5.284  15.062  0.00  0.00    +0.000 A 
ATOM     18  C   UNL     1       6.700   4.537  14.021  0.00  0.00    +0.000 A 
ATOM     19 CL   UNL     1       7.665   4.150  12.652  0.00  0.00    +0.000 Cl
ATOM     20  C   UNL     1       5.378   4.113  14.079  0.00  0.00    +0.000 A 
ATOM     21  C   UNL     1       4.584   4.457  15.180  0.00  0.00    +0.000 A 
ENDBRANCH   8  15
BRANCH   1  23
ATOM     22  O   UNL     1       1.706  11.314  18.892  0.00  0.00    +0.000 OA
ATOM     23  C   UNL     1       0.993  10.436  19.454  0.00  0.00    +0.000 C 
ATOM     24  O   UNL     1       0.034  10.729  20.249  0.00  0.00    +0.000 OA
ENDBRANCH   1  23
TORSDOF 2
ENDMDL
MODEL 8
REMARK VINA RESULT:      -7.9      1.286      1.463
REMARK  Name = 
REMARK  2 active torsions:
REMARK  status: ('A' for Active; 'I' for Inactive)
REMARK    1  A    between atoms: C_2  and  C_4
REMARK    2  A    between atoms: C_11  and  C_12
REMARK                            x       y       z     vdW  Elec       q    Type
REMARK                         _______ _______ _______ _____ _____    ______ ____
ROOT
ATOM      1  C   UNL     1       6.014   5.117  15.504  0.00  0.00    +0.000 A 
ATOM      2  C   UNL     1       5.943   4.070  16.420  0.00  0.00    +0.000 A 
ATOM      3  C   UNL     1       5.102   4.158  17.530  0.00  0.00    +0.000 A 
ATOM      4  C   UNL     1       4.290   5.299  17.773  0.00  0.00    +0.000 A 
ATOM      5  C   UNL     1       4.375   6.347  16.841  0.00  0.00    +0.000 A 
ATOM      6  C   UNL     1       5.231   6.257  15.732  0.00  0.00    +0.000 A 
ATOM      7  C   UNL     1       3.595   7.494  17.012  0.00  0.00    +0.000 A 
ATOM      8  C   UNL     1       2.685   7.654  18.078  0.00  0.00    +0.000 A 
ATOM      9  C   UNL     1       2.567   6.588  19.021  0.00  0.00    +0.000 A 
ATOM     10  C   UNL     1       1.660   6.585  20.108  0.00  0.00    +0.000 A 
ATOM     11  C   UNL     1       1.671   5.571  21.048  0.00  0.00    +0.000 A 
ATOM     12  N   UNL     1       2.475   4.506  20.972  0.00  0.00    +0.000 NA
ATOM     13  C   UNL     1       3.291   4.462  19.897  0.00  0.00    +0.000 A 
ATOM     14  C   UNL     1       3.401   5.434  18.890  0.00  0.00    +0.000 A 
ENDROOT
BRANCH   8  15
ATOM     15  C   UNL     1       1.942   8.953  18.158  0.00  0.00    +0.000 A 
ATOM     16  C   UNL     1       2.621  10.190  18.189  0.00  0.00    +0.000 A 
ATOM     17  C   UNL     1       1.939  11.408  18.311  0.00  0.00    +0.000 A 
ATOM     18  C   UNL     1       0.551  11.420  18.359  0.00  0.00    +0.000 A 
ATOM     19 CL   UNL     1      -0.296  12.911  18.470  0.00  0.00    +0.000 Cl
ATOM     20  C   UNL     1      -0.154  10.223  18.333  0.00  0.00    +0.000 A 
ATOM     21  C   UNL     1       0.540   9.007  18.274  0.00  0.00    +0.000 A 
ENDBRANCH   8  15
BRANCH   1  23
ATOM     22  O   UNL     1       6.504   4.059  13.421  0.00  0.00    +0.000 OA
ATOM     23  C   UNL     1       6.803   4.969  14.244  0.00  0.00    +0.000 C 
ATOM     24  O   UNL     1       7.908   5.613  14.191  0.00  0.00    +0.000 OA
ENDBRANCH   1  23
TORSDOF 2
ENDMDL
MODEL 9
REMARK VINA RESULT:      -7.9      4.154      6.744
REMARK  Name = 
REMARK  2 active torsions:
REMARK  status: ('A' for Active; 'I' for Inactive)
REMARK    1  A    between atoms: C_2  and  C_4
REMARK    2  A    between atoms: C_11  and  C_12
REMARK                            x       y       z     vdW  Elec       q    Type
REMARK                         _______ _______ _______ _____ _____    ______ ____
ROOT
ATOM      1  C   UNL     1       1.482   8.026  20.488  0.00  0.00    +0.000 A 
ATOM      2  C   UNL     1       0.936   6.914  21.124  0.00  0.00    +0.000 A 
ATOM      3  C   UNL     1       1.284   5.626  20.716  0.00  0.00    +0.000 A 
ATOM      4  C   UNL     1       2.197   5.391  19.653  0.00  0.00    +0.000 A 
ATOM      5  C   UNL     1       2.737   6.524  19.020  0.00  0.00    +0.000 A 
ATOM      6  C   UNL     1       2.375   7.818  19.429  0.00  0.00    +0.000 A 
ATOM      7  C   UNL     1       3.651   6.368  17.975  0.00  0.00    +0.000 A 
ATOM      8  C   UNL     1       4.095   5.107  17.523  0.00  0.00    +0.000 A 
ATOM      9  C   UNL     1       3.576   3.944  18.171  0.00  0.00    +0.000 A 
ATOM     10  C   UNL     1       3.969   2.620  17.861  0.00  0.00    +0.000 A 
ATOM     11  C   UNL     1       3.349   1.533  18.450  0.00  0.00    +0.000 A 
ATOM     12  N   UNL     1       2.397   1.643  19.382  0.00  0.00    +0.000 NA
ATOM     13  C   UNL     1       2.070   2.904  19.740  0.00  0.00    +0.000 A 
ATOM     14  C   UNL     1       2.596   4.089  19.202  0.00  0.00    +0.000 A 
ENDROOT
BRANCH   8  15
ATOM     15  C   UNL     1       5.049   5.088  16.367  0.00  0.00    +0.000 A 
ATOM     16  C   UNL     1       4.738   4.415  15.166  0.00  0.00    +0.000 A 
ATOM     17  C   UNL     1       5.642   4.350  14.097  0.00  0.00    +0.000 A 
ATOM     18  C   UNL     1       6.865   5.001  14.187  0.00  0.00    +0.000 A 
ATOM     19 CL   UNL     1       7.964   4.960  12.866  0.00  0.00    +0.000 Cl
ATOM     20  C   UNL     1       7.208   5.673  15.354  0.00  0.00    +0.000 A 
ATOM     21  C   UNL     1       6.325   5.678  16.441  0.00  0.00    +0.000 A 
ENDBRANCH   8  15
BRANCH   1  23
ATOM     22  O   UNL     1       0.963  10.339  20.208  0.00  0.00    +0.000 OA
ATOM     23  C   UNL     1       1.223   9.401  21.013  0.00  0.00    +0.000 C 
ATOM     24  O   UNL     1       1.535   9.607  22.236  0.00  0.00    +0.000 OA
ENDBRANCH   1  23
TORSDOF 2
ENDMDL
