MODEL 1
REMARK VINA RESULT:      -7.6      0.000      0.000
REMARK  Name = 
REMARK  2 active torsions:
REMARK  status: ('A' for Active; 'I' for Inactive)
REMARK    1  A    between atoms: O_1  and  C_2
REMARK    2  A    between atoms: C_3  and  C_4
REMARK                            x       y       z     vdW  Elec       q    Type
REMARK                         _______ _______ _______ _____ _____    ______ ____
ROOT
ATOM      1  C   UNL     1       3.874   3.367  18.287  0.00  0.00    +0.000 C 
ATOM      2  C   UNL     1       4.446   4.429  17.665  0.00  0.00    +0.000 C 
ATOM      3  C   UNL     1       3.822   5.762  17.995  0.00  0.00    +0.000 C 
ATOM      4  N   UNL     1       4.170   6.883  17.404  0.00  0.00    +0.000 NA
ATOM      5  C   UNL     1       3.122   7.852  17.817  0.00  0.00    +0.000 C 
ATOM      6  C   UNL     1       2.342   7.222  18.983  0.00  0.00    +0.000 C 
ATOM      7  N   UNL     1       2.795   5.863  18.918  0.00  0.00    +0.000 N 
ATOM      8  C   UNL     1       2.370   4.750  19.595  0.00  0.00    +0.000 C 
ATOM      9  C   UNL     1       2.867   3.538  19.321  0.00  0.00    +0.000 C 
ATOM     10  C   UNL     1       2.269   2.480  20.182  0.00  0.00    +0.000 C 
ATOM     11  C   UNL     1       1.097   3.219  20.846  0.00  0.00    +0.000 C 
ATOM     12  C   UNL     1       1.374   4.721  20.700  0.00  0.00    +0.000 C 
ENDROOT
BRANCH   2  13
ATOM     13  C   UNL     1       5.411   4.355  16.568  0.00  0.00    +0.000 A 
ATOM     14  C   UNL     1       6.738   4.745  16.752  0.00  0.00    +0.000 A 
ATOM     15  C   UNL     1       7.532   4.967  15.633  0.00  0.00    +0.000 A 
ATOM     16  C   UNL     1       6.987   4.772  14.371  0.00  0.00    +0.000 A 
ATOM     17  C   UNL     1       5.688   4.297  14.283  0.00  0.00    +0.000 A 
ATOM     18  N   UNL     1       4.897   4.045  15.350  0.00  0.00    +0.000 NA
ENDBRANCH   2  13
BRANCH   1  19
ATOM     19  O   UNL     1       4.150   2.053  17.967  0.00  0.00    +0.000 OA
ATOM     20  H   UNL     1       4.840   1.760  18.602  0.00  0.00    +0.000 HD
ENDBRANCH   1  19
TORSDOF 2
ENDMDL
MODEL 2
REMARK VINA RESULT:      -7.3      0.700      1.157
REMARK  Name = 
REMARK  2 active torsions:
REMARK  status: ('A' for Active; 'I' for Inactive)
REMARK    1  A    between atoms: O_1  and  C_2
REMARK    2  A    between atoms: C_3  and  C_4
REMARK                            x       y       z     vdW  Elec       q    Type
REMARK                         _______ _______ _______ _____ _____    ______ ____
ROOT
ATOM      1  C   UNL     1       3.953   3.671  18.167  0.00  0.00    +0.000 C 
ATOM      2  C   UNL     1       4.380   4.807  17.558  0.00  0.00    +0.000 C 
ATOM      3  C   UNL     1       3.677   6.064  18.006  0.00  0.00    +0.000 C 
ATOM      4  N   UNL     1       3.880   7.236  17.448  0.00  0.00    +0.000 NA
ATOM      5  C   UNL     1       2.794   8.090  17.993  0.00  0.00    +0.000 C 
ATOM      6  C   UNL     1       2.169   7.342  19.184  0.00  0.00    +0.000 C 
ATOM      7  N   UNL     1       2.727   6.033  19.012  0.00  0.00    +0.000 N 
ATOM      8  C   UNL     1       2.455   4.857  19.662  0.00  0.00    +0.000 C 
ATOM      9  C   UNL     1       3.026   3.707  19.285  0.00  0.00    +0.000 C 
ATOM     10  C   UNL     1       2.593   2.563  20.135  0.00  0.00    +0.000 C 
ATOM     11  C   UNL     1       1.424   3.166  20.929  0.00  0.00    +0.000 C 
ATOM     12  C   UNL     1       1.562   4.692  20.840  0.00  0.00    +0.000 C 
ENDROOT
BRANCH   2  13
ATOM     13  C   UNL     1       5.252   4.867  16.384  0.00  0.00    +0.000 A 
ATOM     14  C   UNL     1       4.777   4.521  15.118  0.00  0.00    +0.000 A 
ATOM     15  C   UNL     1       5.694   4.279  14.102  0.00  0.00    +0.000 A 
ATOM     16  C   UNL     1       7.050   4.412  14.372  0.00  0.00    +0.000 A 
ATOM     17  C   UNL     1       7.429   4.848  15.633  0.00  0.00    +0.000 A 
ATOM     18  N   UNL     1       6.563   5.117  16.635  0.00  0.00    +0.000 NA
ENDBRANCH   2  13
BRANCH   1  19
ATOM     19  O   UNL     1       4.310   2.402  17.757  0.00  0.00    +0.000 OA
ATOM     20  H   UNL     1       4.041   1.799  18.485  0.00  0.00    +0.000 HD
ENDBRANCH   1  19
TORSDOF 2
ENDMDL
MODEL 3
REMARK VINA RESULT:      -7.3      1.750      5.545
REMARK  Name = 
REMARK  2 active torsions:
REMARK  status: ('A' for Active; 'I' for Inactive)
REMARK    1  A    between atoms: O_1  and  C_2
REMARK    2  A    between atoms: C_3  and  C_4
REMARK                            x       y       z     vdW  Elec       q    Type
REMARK                         _______ _______ _______ _____ _____    ______ ____
ROOT
ATOM      1  C   UNL     1       4.090   3.952  17.062  0.00  0.00    +0.000 C 
ATOM      2  C   UNL     1       4.288   4.365  18.340  0.00  0.00    +0.000 C 
ATOM      3  C   UNL     1       5.661   4.924  18.616  0.00  0.00    +0.000 C 
ATOM      4  N   UNL     1       6.068   5.267  19.817  0.00  0.00    +0.000 NA
ATOM      5  C   UNL     1       7.531   5.474  19.659  0.00  0.00    +0.000 C 
ATOM      6  C   UNL     1       7.831   5.538  18.151  0.00  0.00    +0.000 C 
ATOM      7  N   UNL     1       6.597   5.055  17.604  0.00  0.00    +0.000 N 
ATOM      8  C   UNL     1       6.262   4.733  16.314  0.00  0.00    +0.000 C 
ATOM      9  C   UNL     1       5.068   4.205  16.018  0.00  0.00    +0.000 C 
ATOM     10  C   UNL     1       4.918   3.943  14.559  0.00  0.00    +0.000 C 
ATOM     11  C   UNL     1       6.351   4.140  14.040  0.00  0.00    +0.000 C 
ATOM     12  C   UNL     1       7.108   4.941  15.109  0.00  0.00    +0.000 C 
ENDROOT
BRANCH   2  13
ATOM     13  C   UNL     1       3.397   4.095  19.470  0.00  0.00    +0.000 A 
ATOM     14  C   UNL     1       3.565   2.958  20.261  0.00  0.00    +0.000 A 
ATOM     15  C   UNL     1       2.530   2.569  21.102  0.00  0.00    +0.000 A 
ATOM     16  C   UNL     1       1.373   3.335  21.146  0.00  0.00    +0.000 A 
ATOM     17  C   UNL     1       1.328   4.499  20.395  0.00  0.00    +0.000 A 
ATOM     18  N   UNL     1       2.326   4.921  19.587  0.00  0.00    +0.000 NA
ENDBRANCH   2  13
BRANCH   1  19
ATOM     19  O   UNL     1       2.990   3.224  16.655  0.00  0.00    +0.000 OA
ATOM     20  H   UNL     1       3.182   2.941  15.734  0.00  0.00    +0.000 HD
ENDBRANCH   1  19
TORSDOF 2
ENDMDL
MODEL 4
REMARK VINA RESULT:      -7.3      1.812      5.579
REMARK  Name = 
REMARK  2 active torsions:
REMARK  status: ('A' for Active; 'I' for Inactive)
REMARK    1  A    between atoms: O_1  and  C_2
REMARK    2  A    between atoms: C_3  and  C_4
REMARK                            x       y       z     vdW  Elec       q    Type
REMARK                         _______ _______ _______ _____ _____    ______ ____
ROOT
ATOM      1  C   UNL     1       4.147   3.935  16.888  0.00  0.00    +0.000 C 
ATOM      2  C   UNL     1       4.288   4.319  18.183  0.00  0.00    +0.000 C 
ATOM      3  C   UNL     1       5.634   4.906  18.522  0.00  0.00    +0.000 C 
ATOM      4  N   UNL     1       5.988   5.228  19.746  0.00  0.00    +0.000 NA
ATOM      5  C   UNL     1       7.449   5.479  19.648  0.00  0.00    +0.000 C 
ATOM      6  C   UNL     1       7.801   5.591  18.154  0.00  0.00    +0.000 C 
ATOM      7  N   UNL     1       6.601   5.091  17.549  0.00  0.00    +0.000 N 
ATOM      8  C   UNL     1       6.321   4.795  16.240  0.00  0.00    +0.000 C 
ATOM      9  C   UNL     1       5.154   4.243  15.887  0.00  0.00    +0.000 C 
ATOM     10  C   UNL     1       5.064   4.017  14.417  0.00  0.00    +0.000 C 
ATOM     11  C   UNL     1       6.508   4.267  13.957  0.00  0.00    +0.000 C 
ATOM     12  C   UNL     1       7.205   5.058  15.072  0.00  0.00    +0.000 C 
ENDROOT
BRANCH   2  13
ATOM     13  C   UNL     1       3.365   3.994  19.271  0.00  0.00    +0.000 A 
ATOM     14  C   UNL     1       2.446   4.934  19.738  0.00  0.00    +0.000 A 
ATOM     15  C   UNL     1       1.822   4.712  20.960  0.00  0.00    +0.000 A 
ATOM     16  C   UNL     1       2.116   3.553  21.666  0.00  0.00    +0.000 A 
ATOM     17  C   UNL     1       2.973   2.630  21.085  0.00  0.00    +0.000 A 
ATOM     18  N   UNL     1       3.575   2.802  19.887  0.00  0.00    +0.000 NA
ENDBRANCH   2  13
BRANCH   1  19
ATOM     19  O   UNL     1       3.084   3.189  16.422  0.00  0.00    +0.000 OA
ATOM     20  H   UNL     1       2.408   3.209  17.134  0.00  0.00    +0.000 HD
ENDBRANCH   1  19
TORSDOF 2
ENDMDL
MODEL 5
REMARK VINA RESULT:      -7.1      1.253      5.235
REMARK  Name = 
REMARK  2 active torsions:
REMARK  status: ('A' for Active; 'I' for Inactive)
REMARK    1  A    between atoms: O_1  and  C_2
REMARK    2  A    between atoms: C_3  and  C_4
REMARK                            x       y       z     vdW  Elec       q    Type
REMARK                         _______ _______ _______ _____ _____    ______ ____
ROOT
ATOM      1  C   UNL     1       4.214   3.434  17.435  0.00  0.00    +0.000 C 
ATOM      2  C   UNL     1       3.280   4.009  18.235  0.00  0.00    +0.000 C 
ATOM      3  C   UNL     1       3.183   5.508  18.112  0.00  0.00    +0.000 C 
ATOM      4  N   UNL     1       2.416   6.243  18.886  0.00  0.00    +0.000 NA
ATOM      5  C   UNL     1       2.853   7.636  18.612  0.00  0.00    +0.000 C 
ATOM      6  C   UNL     1       3.718   7.610  17.341  0.00  0.00    +0.000 C 
ATOM      7  N   UNL     1       3.952   6.203  17.195  0.00  0.00    +0.000 N 
ATOM      8  C   UNL     1       4.775   5.523  16.335  0.00  0.00    +0.000 C 
ATOM      9  C   UNL     1       4.922   4.195  16.420  0.00  0.00    +0.000 C 
ATOM     10  C   UNL     1       5.854   3.668  15.384  0.00  0.00    +0.000 C 
ATOM     11  C   UNL     1       6.482   4.953  14.822  0.00  0.00    +0.000 C 
ATOM     12  C   UNL     1       5.559   6.113  15.217  0.00  0.00    +0.000 C 
ENDROOT
BRANCH   2  13
ATOM     13  C   UNL     1       2.570   3.343  19.328  0.00  0.00    +0.000 A 
ATOM     14  C   UNL     1       1.175   3.299  19.356  0.00  0.00    +0.000 A 
ATOM     15  C   UNL     1       0.541   2.955  20.544  0.00  0.00    +0.000 A 
ATOM     16  C   UNL     1       1.312   2.644  21.655  0.00  0.00    +0.000 A 
ATOM     17  C   UNL     1       2.691   2.625  21.512  0.00  0.00    +0.000 A 
ATOM     18  N   UNL     1       3.340   2.928  20.366  0.00  0.00    +0.000 NA
ENDBRANCH   2  13
BRANCH   1  19
ATOM     19  O   UNL     1       4.608   2.115  17.543  0.00  0.00    +0.000 OA
ATOM     20  H   UNL     1       5.212   1.952  16.785  0.00  0.00    +0.000 HD
ENDBRANCH   1  19
TORSDOF 2
ENDMDL
MODEL 6
REMARK VINA RESULT:      -6.8      1.720      3.076
REMARK  Name = 
REMARK  2 active torsions:
REMARK  status: ('A' for Active; 'I' for Inactive)
REMARK    1  A    between atoms: O_1  and  C_2
REMARK    2  A    between atoms: C_3  and  C_4
REMARK                            x       y       z     vdW  Elec       q    Type
REMARK                         _______ _______ _______ _____ _____    ______ ____
ROOT
ATOM      1  C   UNL     1       3.754   6.253  17.895  0.00  0.00    +0.000 C 
ATOM      2  C   UNL     1       4.198   5.000  17.619  0.00  0.00    +0.000 C 
ATOM      3  C   UNL     1       3.788   3.952  18.622  0.00  0.00    +0.000 C 
ATOM      4  N   UNL     1       4.217   2.711  18.578  0.00  0.00    +0.000 NA
ATOM      5  C   UNL     1       3.805   2.138  19.886  0.00  0.00    +0.000 C 
ATOM      6  C   UNL     1       2.795   3.110  20.521  0.00  0.00    +0.000 C 
ATOM      7  N   UNL     1       2.964   4.265  19.689  0.00  0.00    +0.000 N 
ATOM      8  C   UNL     1       2.456   5.532  19.814  0.00  0.00    +0.000 C 
ATOM      9  C   UNL     1       2.810   6.509  18.970  0.00  0.00    +0.000 C 
ATOM     10  C   UNL     1       2.132   7.796  19.287  0.00  0.00    +0.000 C 
ATOM     11  C   UNL     1       1.509   7.510  20.662  0.00  0.00    +0.000 C 
ATOM     12  C   UNL     1       1.463   5.985  20.825  0.00  0.00    +0.000 C 
ENDROOT
BRANCH   2  13
ATOM     13  C   UNL     1       5.197   4.655  16.607  0.00  0.00    +0.000 A 
ATOM     14  C   UNL     1       6.561   4.783  16.873  0.00  0.00    +0.000 A 
ATOM     15  C   UNL     1       7.456   4.761  15.809  0.00  0.00    +0.000 A 
ATOM     16  C   UNL     1       6.967   4.589  14.521  0.00  0.00    +0.000 A 
ATOM     17  C   UNL     1       5.606   4.378  14.358  0.00  0.00    +0.000 A 
ATOM     18  N   UNL     1       4.713   4.367  15.372  0.00  0.00    +0.000 NA
ENDBRANCH   2  13
BRANCH   1  19
ATOM     19  O   UNL     1       4.186   7.382  17.229  0.00  0.00    +0.000 OA
ATOM     20  H   UNL     1       5.123   7.211  16.989  0.00  0.00    +0.000 HD
ENDBRANCH   1  19
TORSDOF 2
ENDMDL
MODEL 7
REMARK VINA RESULT:      -6.7      1.785      3.199
REMARK  Name = 
REMARK  2 active torsions:
REMARK  status: ('A' for Active; 'I' for Inactive)
REMARK    1  A    between atoms: O_1  and  C_2
REMARK    2  A    between atoms: C_3  and  C_4
REMARK                            x       y       z     vdW  Elec       q    Type
REMARK                         _______ _______ _______ _____ _____    ______ ____
ROOT
ATOM      1  C   UNL     1       3.699   6.221  17.898  0.00  0.00    +0.000 C 
ATOM      2  C   UNL     1       4.099   5.090  17.261  0.00  0.00    +0.000 C 
ATOM      3  C   UNL     1       3.644   3.808  17.909  0.00  0.00    +0.000 C 
ATOM      4  N   UNL     1       4.028   2.620  17.498  0.00  0.00    +0.000 NA
ATOM      5  C   UNL     1       3.586   1.701  18.578  0.00  0.00    +0.000 C 
ATOM      6  C   UNL     1       2.607   2.478  19.476  0.00  0.00    +0.000 C 
ATOM      7  N   UNL     1       2.824   3.821  19.024  0.00  0.00    +0.000 N 
ATOM      8  C   UNL     1       2.361   5.012  19.521  0.00  0.00    +0.000 C 
ATOM      9  C   UNL     1       2.758   6.181  19.004  0.00  0.00    +0.000 C 
ATOM     10  C   UNL     1       2.124   7.341  19.691  0.00  0.00    +0.000 C 
ATOM     11  C   UNL     1       1.481   6.683  20.922  0.00  0.00    +0.000 C 
ATOM     12  C   UNL     1       1.378   5.181  20.625  0.00  0.00    +0.000 C 
ENDROOT
BRANCH   2  13
ATOM     13  C   UNL     1       5.093   5.024  16.189  0.00  0.00    +0.000 A 
ATOM     14  C   UNL     1       4.765   4.503  14.937  0.00  0.00    +0.000 A 
ATOM     15  C   UNL     1       5.792   4.160  14.065  0.00  0.00    +0.000 A 
ATOM     16  C   UNL     1       7.107   4.367  14.457  0.00  0.00    +0.000 A 
ATOM     17  C   UNL     1       7.339   4.974  15.682  0.00  0.00    +0.000 A 
ATOM     18  N   UNL     1       6.365   5.344  16.542  0.00  0.00    +0.000 NA
ENDBRANCH   2  13
BRANCH   1  19
ATOM     19  O   UNL     1       4.178   7.480  17.596  0.00  0.00    +0.000 OA
ATOM     20  H   UNL     1       3.819   7.698  16.708  0.00  0.00    +0.000 HD
ENDBRANCH   1  19
TORSDOF 2
ENDMDL
MODEL 8
REMARK VINA RESULT:      -6.7      2.009      5.104
REMARK  Name = 
REMARK  2 active torsions:
REMARK  status: ('A' for Active; 'I' for Inactive)
REMARK    1  A    between atoms: O_1  and  C_2
REMARK    2  A    between atoms: C_3  and  C_4
REMARK                            x       y       z     vdW  Elec       q    Type
REMARK                         _______ _______ _______ _____ _____    ______ ____
ROOT
ATOM      1  C   UNL     1       5.051   4.462  18.642  0.00  0.00    +0.000 C 
ATOM      2  C   UNL     1       3.707   4.642  18.566  0.00  0.00    +0.000 C 
ATOM      3  C   UNL     1       3.280   6.020  18.126  0.00  0.00    +0.000 C 
ATOM      4  N   UNL     1       2.026   6.409  18.102  0.00  0.00    +0.000 NA
ATOM      5  C   UNL     1       2.105   7.878  17.896  0.00  0.00    +0.000 C 
ATOM      6  C   UNL     1       3.544   8.209  17.466  0.00  0.00    +0.000 C 
ATOM      7  N   UNL     1       4.213   6.978  17.768  0.00  0.00    +0.000 N 
ATOM      8  C   UNL     1       5.547   6.663  17.750  0.00  0.00    +0.000 C 
ATOM      9  C   UNL     1       5.984   5.466  18.160  0.00  0.00    +0.000 C 
ATOM     10  C   UNL     1       7.464   5.341  18.046  0.00  0.00    +0.000 C 
ATOM     11  C   UNL     1       7.895   6.787  17.759  0.00  0.00    +0.000 C 
ATOM     12  C   UNL     1       6.650   7.538  17.268  0.00  0.00    +0.000 C 
ENDROOT
BRANCH   2  13
ATOM     13  C   UNL     1       2.695   3.724  19.088  0.00  0.00    +0.000 A 
ATOM     14  C   UNL     1       1.848   3.024  18.228  0.00  0.00    +0.000 A 
ATOM     15  C   UNL     1       0.708   2.424  18.751  0.00  0.00    +0.000 A 
ATOM     16  C   UNL     1       0.461   2.521  20.113  0.00  0.00    +0.000 A 
ATOM     17  C   UNL     1       1.402   3.158  20.908  0.00  0.00    +0.000 A 
ATOM     18  N   UNL     1       2.533   3.728  20.436  0.00  0.00    +0.000 NA
ENDBRANCH   2  13
BRANCH   1  19
ATOM     19  O   UNL     1       5.644   3.358  19.220  0.00  0.00    +0.000 OA
ATOM     20  H   UNL     1       5.168   2.578  18.860  0.00  0.00    +0.000 HD
ENDBRANCH   1  19
TORSDOF 2
ENDMDL
MODEL 9
REMARK VINA RESULT:      -6.6      1.255      5.116
REMARK  Name = 
REMARK  2 active torsions:
REMARK  status: ('A' for Active; 'I' for Inactive)
REMARK    1  A    between atoms: O_1  and  C_2
REMARK    2  A    between atoms: C_3  and  C_4
REMARK                            x       y       z     vdW  Elec       q    Type
REMARK                         _______ _______ _______ _____ _____    ______ ____
ROOT
ATOM      1  C   UNL     1       4.200   3.703  17.613  0.00  0.00    +0.000 C 
ATOM      2  C   UNL     1       3.242   4.408  18.269  0.00  0.00    +0.000 C 
ATOM      3  C   UNL     1       3.215   5.881  17.949  0.00  0.00    +0.000 C 
ATOM      4  N   UNL     1       2.433   6.735  18.569  0.00  0.00    +0.000 NA
ATOM      5  C   UNL     1       2.942   8.065  18.150  0.00  0.00    +0.000 C 
ATOM      6  C   UNL     1       3.884   7.845  16.953  0.00  0.00    +0.000 C 
ATOM      7  N   UNL     1       4.068   6.425  17.004  0.00  0.00    +0.000 N 
ATOM      8  C   UNL     1       4.914   5.611  16.296  0.00  0.00    +0.000 C 
ATOM      9  C   UNL     1       5.001   4.302  16.559  0.00  0.00    +0.000 C 
ATOM     10  C   UNL     1       5.974   3.614  15.664  0.00  0.00    +0.000 C 
ATOM     11  C   UNL     1       6.688   4.794  14.986  0.00  0.00    +0.000 C 
ATOM     12  C   UNL     1       5.790   6.025  15.167  0.00  0.00    +0.000 C 
ENDROOT
BRANCH   2  13
ATOM     13  C   UNL     1       2.438   3.914  19.387  0.00  0.00    +0.000 A 
ATOM     14  C   UNL     1       2.711   4.309  20.697  0.00  0.00    +0.000 A 
ATOM     15  C   UNL     1       2.153   3.587  21.745  0.00  0.00    +0.000 A 
ATOM     16  C   UNL     1       1.325   2.511  21.456  0.00  0.00    +0.000 A 
ATOM     17  C   UNL     1       1.035   2.244  20.126  0.00  0.00    +0.000 A 
ATOM     18  N   UNL     1       1.539   2.943  19.084  0.00  0.00    +0.000 NA
ENDBRANCH   2  13
BRANCH   1  19
ATOM     19  O   UNL     1       4.532   2.398  17.915  0.00  0.00    +0.000 OA
ATOM     20  H   UNL     1       4.422   1.892  17.080  0.00  0.00    +0.000 HD
ENDBRANCH   1  19
TORSDOF 2
ENDMDL
