MODEL 1
REMARK VINA RESULT:      -7.5      0.000      0.000
REMARK  Name = 
REMARK  9 active torsions:
REMARK  status: ('A' for Active; 'I' for Inactive)
REMARK    1  A    between atoms: C_1  and  O_2
REMARK    2  A    between atoms: O_2  and  C_3
REMARK    3  A    between atoms: C_7  and  N_8
REMARK    4  A    between atoms: N_8  and  C_9
REMARK    5  A    between atoms: C_9  and  N_11
REMARK    6  A    between atoms: N_11  and  C_12
REMARK    7  A    between atoms: C_14  and  C_15
REMARK    8  A    between atoms: C_17  and  C_18
REMARK    9  A    between atoms: C_17  and  C_19
REMARK                            x       y       z     vdW  Elec       q    Type
REMARK                         _______ _______ _______ _____ _____    ______ ____
ROOT
ATOM      1  C   UNL     1       6.163   4.563  17.228  0.00  0.00    +0.000 C 
ATOM      2  S   UNL     1       7.638   5.009  17.891  0.00  0.00    +0.000 S 
ENDROOT
BRANCH   1   3
ATOM      3  N   UNL     1       5.680   4.991  15.993  0.00  0.00    +0.000 N 
ATOM      4  H   UNL     1       4.833   5.537  16.008  0.00  0.00    +0.000 HD
BRANCH   3   9
ATOM      5  C   UNL     1       5.909   3.495  12.596  0.00  0.00    +0.000 A 
ATOM      6  C   UNL     1       7.060   4.115  12.095  0.00  0.00    +0.000 A 
ATOM      7  C   UNL     1       7.785   5.001  12.900  0.00  0.00    +0.000 A 
ATOM      8  C   UNL     1       7.346   5.284  14.197  0.00  0.00    +0.000 A 
ATOM      9  C   UNL     1       6.206   4.675  14.717  0.00  0.00    +0.000 A 
ATOM     10  C   UNL     1       5.502   3.776  13.907  0.00  0.00    +0.000 A 
BRANCH   5  12
ATOM     11  C   UNL     1       4.078   3.118  11.158  0.00  0.00    +0.000 C 
ATOM     12  O   UNL     1       5.281   2.632  11.744  0.00  0.00    +0.000 OA
ENDBRANCH   5  12
ENDBRANCH   3   9
ENDBRANCH   1   3
BRANCH   1  13
ATOM     13  N   UNL     1       5.259   3.721  17.859  0.00  0.00    +0.000 N 
ATOM     14  H   UNL     1       5.191   2.788  17.489  0.00  0.00    +0.000 HD
BRANCH  13  15
ATOM     15  C   UNL     1       4.606   3.976  19.156  0.00  0.00    +0.000 C 
ATOM     16  C   UNL     1       4.169   5.448  19.291  0.00  0.00    +0.000 C 
ATOM     17  C   UNL     1       3.021   5.796  18.335  0.00  0.00    +0.000 C 
ATOM     18  C   UNL     1       2.666   7.279  18.430  0.00  0.00    +0.000 C 
ATOM     19  C   UNL     1       1.804   4.913  18.644  0.00  0.00    +0.000 C 
ATOM     20  C   UNL     1       2.119   3.400  18.560  0.00  0.00    +0.000 C 
ATOM     21  C   UNL     1       2.288   2.966  17.091  0.00  0.00    +0.000 C 
ATOM     22  C   UNL     1       0.920   2.613  19.129  0.00  0.00    +0.000 C 
ATOM     23  C   UNL     1       3.385   3.062  19.393  0.00  0.00    +0.000 C 
ENDBRANCH  13  15
ENDBRANCH   1  13
TORSDOF 5
ENDMDL
MODEL 2
REMARK VINA RESULT:      -7.5      2.991      6.502
REMARK  Name = 
REMARK  9 active torsions:
REMARK  status: ('A' for Active; 'I' for Inactive)
REMARK    1  A    between atoms: C_1  and  O_2
REMARK    2  A    between atoms: O_2  and  C_3
REMARK    3  A    between atoms: C_7  and  N_8
REMARK    4  A    between atoms: N_8  and  C_9
REMARK    5  A    between atoms: C_9  and  N_11
REMARK    6  A    between atoms: N_11  and  C_12
REMARK    7  A    between atoms: C_14  and  C_15
REMARK    8  A    between atoms: C_17  and  C_18
REMARK    9  A    between atoms: C_17  and  C_19
REMARK                            x       y       z     vdW  Elec       q    Type
REMARK                         _______ _______ _______ _____ _____    ______ ____
ROOT
ATOM      1  C   UNL     1       2.998   7.170  18.330  0.00  0.00    +0.000 C 
ATOM      2  S   UNL     1       2.214   8.599  17.934  0.00  0.00    +0.000 S 
ENDROOT
BRANCH   1   3
ATOM      3  N   UNL     1       2.999   6.582  19.593  0.00  0.00    +0.000 N 
ATOM      4  H   UNL     1       3.314   7.160  20.356  0.00  0.00    +0.000 HD
BRANCH   3   9
ATOM      5  C   UNL     1       3.426   2.911  20.004  0.00  0.00    +0.000 A 
ATOM      6  C   UNL     1       2.236   2.562  20.654  0.00  0.00    +0.000 A 
ATOM      7  C   UNL     1       1.271   3.541  20.921  0.00  0.00    +0.000 A 
ATOM      8  C   UNL     1       1.507   4.870  20.558  0.00  0.00    +0.000 A 
ATOM      9  C   UNL     1       2.682   5.238  19.907  0.00  0.00    +0.000 A 
ATOM     10  C   UNL     1       3.629   4.244  19.629  0.00  0.00    +0.000 A 
BRANCH   5  12
ATOM     11  C   UNL     1       5.035   1.438  20.901  0.00  0.00    +0.000 C 
ATOM     12  O   UNL     1       4.296   1.884  19.769  0.00  0.00    +0.000 OA
ENDBRANCH   5  12
ENDBRANCH   3   9
ENDBRANCH   1   3
BRANCH   1  13
ATOM     13  N   UNL     1       3.745   6.426  17.427  0.00  0.00    +0.000 N 
ATOM     14  H   UNL     1       3.337   5.557  17.125  0.00  0.00    +0.000 HD
BRANCH  13  15
ATOM     15  C   UNL     1       4.922   6.908  16.682  0.00  0.00    +0.000 C 
ATOM     16  C   UNL     1       6.165   7.007  17.589  0.00  0.00    +0.000 C 
ATOM     17  C   UNL     1       6.667   5.625  18.029  0.00  0.00    +0.000 C 
ATOM     18  C   UNL     1       7.844   5.757  18.993  0.00  0.00    +0.000 C 
ATOM     19  C   UNL     1       7.049   4.795  16.794  0.00  0.00    +0.000 C 
ATOM     20  C   UNL     1       5.882   4.638  15.789  0.00  0.00    +0.000 C 
ATOM     21  C   UNL     1       4.825   3.662  16.340  0.00  0.00    +0.000 C 
ATOM     22  C   UNL     1       6.434   4.018  14.487  0.00  0.00    +0.000 C 
ATOM     23  C   UNL     1       5.255   6.020  15.464  0.00  0.00    +0.000 C 
ENDBRANCH  13  15
ENDBRANCH   1  13
TORSDOF 5
ENDMDL
MODEL 3
REMARK VINA RESULT:      -7.0      3.136      6.426
REMARK  Name = 
REMARK  9 active torsions:
REMARK  status: ('A' for Active; 'I' for Inactive)
REMARK    1  A    between atoms: C_1  and  O_2
REMARK    2  A    between atoms: O_2  and  C_3
REMARK    3  A    between atoms: C_7  and  N_8
REMARK    4  A    between atoms: N_8  and  C_9
REMARK    5  A    between atoms: C_9  and  N_11
REMARK    6  A    between atoms: N_11  and  C_12
REMARK    7  A    between atoms: C_14  and  C_15
REMARK    8  A    between atoms: C_17  and  C_18
REMARK    9  A    between atoms: C_17  and  C_19
REMARK                            x       y       z     vdW  Elec       q    Type
REMARK                         _______ _______ _______ _____ _____    ______ ____
ROOT
ATOM      1  C   UNL     1       2.776   6.996  18.169  0.00  0.00    +0.000 C 
ATOM      2  S   UNL     1       2.519   8.622  17.846  0.00  0.00    +0.000 S 
ENDROOT
BRANCH   1   3
ATOM      3  N   UNL     1       1.903   6.174  18.879  0.00  0.00    +0.000 N 
ATOM      4  H   UNL     1       1.163   6.636  19.383  0.00  0.00    +0.000 HD
BRANCH   3   9
ATOM      5  C   UNL     1       2.836   2.884  20.339  0.00  0.00    +0.000 A 
ATOM      6  C   UNL     1       2.095   2.004  19.541  0.00  0.00    +0.000 A 
ATOM      7  C   UNL     1       1.315   2.500  18.490  0.00  0.00    +0.000 A 
ATOM      8  C   UNL     1       1.259   3.877  18.252  0.00  0.00    +0.000 A 
ATOM      9  C   UNL     1       1.991   4.770  19.031  0.00  0.00    +0.000 A 
ATOM     10  C   UNL     1       2.782   4.257  20.067  0.00  0.00    +0.000 A 
BRANCH   5  12
ATOM     11  C   UNL     1       4.779   1.669  20.895  0.00  0.00    +0.000 C 
ATOM     12  O   UNL     1       3.582   2.305  21.327  0.00  0.00    +0.000 OA
ENDBRANCH   5  12
ENDBRANCH   3   9
ENDBRANCH   1   3
BRANCH   1  13
ATOM     13  N   UNL     1       3.908   6.302  17.767  0.00  0.00    +0.000 N 
ATOM     14  H   UNL     1       3.881   5.303  17.890  0.00  0.00    +0.000 HD
BRANCH  13  15
ATOM     15  C   UNL     1       5.006   6.847  16.948  0.00  0.00    +0.000 C 
ATOM     16  C   UNL     1       6.320   6.935  17.749  0.00  0.00    +0.000 C 
ATOM     17  C   UNL     1       6.887   5.547  18.077  0.00  0.00    +0.000 C 
ATOM     18  C   UNL     1       8.141   5.664  18.942  0.00  0.00    +0.000 C 
ATOM     19  C   UNL     1       7.178   4.786  16.776  0.00  0.00    +0.000 C 
ATOM     20  C   UNL     1       5.932   4.645  15.868  0.00  0.00    +0.000 C 
ATOM     21  C   UNL     1       4.947   3.619  16.460  0.00  0.00    +0.000 C 
ATOM     22  C   UNL     1       6.381   4.101  14.495  0.00  0.00    +0.000 C 
ATOM     23  C   UNL     1       5.250   6.025  15.664  0.00  0.00    +0.000 C 
ENDBRANCH  13  15
ENDBRANCH   1  13
TORSDOF 5
ENDMDL
MODEL 4
REMARK VINA RESULT:      -6.9      3.992      7.487
REMARK  Name = 
REMARK  9 active torsions:
REMARK  status: ('A' for Active; 'I' for Inactive)
REMARK    1  A    between atoms: C_1  and  O_2
REMARK    2  A    between atoms: O_2  and  C_3
REMARK    3  A    between atoms: C_7  and  N_8
REMARK    4  A    between atoms: N_8  and  C_9
REMARK    5  A    between atoms: C_9  and  N_11
REMARK    6  A    between atoms: N_11  and  C_12
REMARK    7  A    between atoms: C_14  and  C_15
REMARK    8  A    between atoms: C_17  and  C_18
REMARK    9  A    between atoms: C_17  and  C_19
REMARK                            x       y       z     vdW  Elec       q    Type
REMARK                         _______ _______ _______ _____ _____    ______ ____
ROOT
ATOM      1  C   UNL     1       2.617   5.073  19.025  0.00  0.00    +0.000 C 
ATOM      2  S   UNL     1       1.468   3.924  19.443  0.00  0.00    +0.000 S 
ENDROOT
BRANCH   1   3
ATOM      3  N   UNL     1       2.805   6.290  19.677  0.00  0.00    +0.000 N 
ATOM      4  H   UNL     1       3.469   6.293  20.436  0.00  0.00    +0.000 HD
BRANCH   3   9
ATOM      5  C   UNL     1       0.908   9.409  20.384  0.00  0.00    +0.000 A 
ATOM      6  C   UNL     1       0.858   9.999  19.115  0.00  0.00    +0.000 A 
ATOM      7  C   UNL     1       1.420   9.342  18.015  0.00  0.00    +0.000 A 
ATOM      8  C   UNL     1       2.051   8.106  18.187  0.00  0.00    +0.000 A 
ATOM      9  C   UNL     1       2.108   7.499  19.440  0.00  0.00    +0.000 A 
ATOM     10  C   UNL     1       1.524   8.160  20.528  0.00  0.00    +0.000 A 
BRANCH   5  12
ATOM     11  C   UNL     1      -0.479  11.222  20.976  0.00  0.00    +0.000 C 
ATOM     12  O   UNL     1       0.315  10.116  21.391  0.00  0.00    +0.000 OA
ENDBRANCH   5  12
ENDBRANCH   3   9
ENDBRANCH   1   3
BRANCH   1  13
ATOM     13  N   UNL     1       3.498   4.928  17.963  0.00  0.00    +0.000 N 
ATOM     14  H   UNL     1       3.340   5.529  17.171  0.00  0.00    +0.000 HD
BRANCH  13  15
ATOM     15  C   UNL     1       4.772   4.188  17.998  0.00  0.00    +0.000 C 
ATOM     16  C   UNL     1       5.140   3.628  16.610  0.00  0.00    +0.000 C 
ATOM     17  C   UNL     1       5.499   4.743  15.617  0.00  0.00    +0.000 C 
ATOM     18  C   UNL     1       5.776   4.165  14.230  0.00  0.00    +0.000 C 
ATOM     19  C   UNL     1       6.706   5.534  16.142  0.00  0.00    +0.000 C 
ATOM     20  C   UNL     1       6.468   6.136  17.547  0.00  0.00    +0.000 C 
ATOM     21  C   UNL     1       5.493   7.327  17.465  0.00  0.00    +0.000 C 
ATOM     22  C   UNL     1       7.807   6.684  18.082  0.00  0.00    +0.000 C 
ATOM     23  C   UNL     1       5.942   5.048  18.522  0.00  0.00    +0.000 C 
ENDBRANCH  13  15
ENDBRANCH   1  13
TORSDOF 5
ENDMDL
MODEL 5
REMARK VINA RESULT:      -6.8      1.082      1.114
REMARK  Name = 
REMARK  9 active torsions:
REMARK  status: ('A' for Active; 'I' for Inactive)
REMARK    1  A    between atoms: C_1  and  O_2
REMARK    2  A    between atoms: O_2  and  C_3
REMARK    3  A    between atoms: C_7  and  N_8
REMARK    4  A    between atoms: N_8  and  C_9
REMARK    5  A    between atoms: C_9  and  N_11
REMARK    6  A    between atoms: N_11  and  C_12
REMARK    7  A    between atoms: C_14  and  C_15
REMARK    8  A    between atoms: C_17  and  C_18
REMARK    9  A    between atoms: C_17  and  C_19
REMARK                            x       y       z     vdW  Elec       q    Type
REMARK                         _______ _______ _______ _____ _____    ______ ____
ROOT
ATOM      1  C   UNL     1       5.276   4.996  16.848  0.00  0.00    +0.000 C 
ATOM      2  S   UNL     1       5.109   6.651  16.632  0.00  0.00    +0.000 S 
ENDROOT
BRANCH   1   3
ATOM      3  N   UNL     1       6.220   4.197  16.206  0.00  0.00    +0.000 N 
ATOM      4  H   UNL     1       6.768   3.589  16.795  0.00  0.00    +0.000 HD
BRANCH   3   9
ATOM      5  C   UNL     1       6.011   3.418  12.576  0.00  0.00    +0.000 A 
ATOM      6  C   UNL     1       6.984   4.277  12.049  0.00  0.00    +0.000 A 
ATOM      7  C   UNL     1       7.738   5.088  12.905  0.00  0.00    +0.000 A 
ATOM      8  C   UNL     1       7.505   5.056  14.283  0.00  0.00    +0.000 A 
ATOM      9  C   UNL     1       6.546   4.205  14.828  0.00  0.00    +0.000 A 
ATOM     10  C   UNL     1       5.812   3.386  13.961  0.00  0.00    +0.000 A 
BRANCH   5  12
ATOM     11  C   UNL     1       4.102   3.187  11.211  0.00  0.00    +0.000 C 
ATOM     12  O   UNL     1       5.340   2.652  11.665  0.00  0.00    +0.000 OA
ENDBRANCH   5  12
ENDBRANCH   3   9
ENDBRANCH   1   3
BRANCH   1  13
ATOM     13  N   UNL     1       4.470   4.245  17.691  0.00  0.00    +0.000 N 
ATOM     14  H   UNL     1       3.992   3.466  17.269  0.00  0.00    +0.000 HD
BRANCH  13  15
ATOM     15  C   UNL     1       4.463   4.316  19.164  0.00  0.00    +0.000 C 
ATOM     16  C   UNL     1       4.035   5.710  19.662  0.00  0.00    +0.000 C 
ATOM     17  C   UNL     1       2.556   5.996  19.368  0.00  0.00    +0.000 C 
ATOM     18  C   UNL     1       2.182   7.415  19.795  0.00  0.00    +0.000 C 
ATOM     19  C   UNL     1       1.677   4.953  20.073  0.00  0.00    +0.000 C 
ATOM     20  C   UNL     1       2.023   3.500  19.669  0.00  0.00    +0.000 C 
ATOM     21  C   UNL     1       1.535   3.208  18.237  0.00  0.00    +0.000 C 
ATOM     22  C   UNL     1       1.271   2.534  20.608  0.00  0.00    +0.000 C 
ATOM     23  C   UNL     1       3.550   3.248  19.803  0.00  0.00    +0.000 C 
ENDBRANCH  13  15
ENDBRANCH   1  13
TORSDOF 5
ENDMDL
MODEL 6
REMARK VINA RESULT:      -6.8      3.100      4.914
REMARK  Name = 
REMARK  9 active torsions:
REMARK  status: ('A' for Active; 'I' for Inactive)
REMARK    1  A    between atoms: C_1  and  O_2
REMARK    2  A    between atoms: O_2  and  C_3
REMARK    3  A    between atoms: C_7  and  N_8
REMARK    4  A    between atoms: N_8  and  C_9
REMARK    5  A    between atoms: C_9  and  N_11
REMARK    6  A    between atoms: N_11  and  C_12
REMARK    7  A    between atoms: C_14  and  C_15
REMARK    8  A    between atoms: C_17  and  C_18
REMARK    9  A    between atoms: C_17  and  C_19
REMARK                            x       y       z     vdW  Elec       q    Type
REMARK                         _______ _______ _______ _____ _____    ______ ____
ROOT
ATOM      1  C   UNL     1       5.231   4.181  15.873  0.00  0.00    +0.000 C 
ATOM      2  S   UNL     1       5.069   3.981  14.215  0.00  0.00    +0.000 S 
ENDROOT
BRANCH   1   3
ATOM      3  N   UNL     1       6.421   4.033  16.584  0.00  0.00    +0.000 N 
ATOM      4  H   UNL     1       6.833   3.113  16.580  0.00  0.00    +0.000 HD
BRANCH   3   9
ATOM      5  C   UNL     1       7.690   7.362  17.648  0.00  0.00    +0.000 A 
ATOM      6  C   UNL     1       8.168   7.081  18.933  0.00  0.00    +0.000 A 
ATOM      7  C   UNL     1       8.106   5.775  19.433  0.00  0.00    +0.000 A 
ATOM      8  C   UNL     1       7.545   4.757  18.657  0.00  0.00    +0.000 A 
ATOM      9  C   UNL     1       7.068   5.013  17.374  0.00  0.00    +0.000 A 
ATOM     10  C   UNL     1       7.154   6.321  16.880  0.00  0.00    +0.000 A 
BRANCH   5  12
ATOM     11  C   UNL     1       8.461   9.531  18.159  0.00  0.00    +0.000 C 
ATOM     12  O   UNL     1       7.811   8.660  17.240  0.00  0.00    +0.000 OA
ENDBRANCH   5  12
ENDBRANCH   3   9
ENDBRANCH   1   3
BRANCH   1  13
ATOM     13  N   UNL     1       4.178   4.507  16.715  0.00  0.00    +0.000 N 
ATOM     14  H   UNL     1       4.055   5.486  16.912  0.00  0.00    +0.000 HD
BRANCH  13  15
ATOM     15  C   UNL     1       3.087   3.601  17.119  0.00  0.00    +0.000 C 
ATOM     16  C   UNL     1       3.622   2.376  17.885  0.00  0.00    +0.000 C 
ATOM     17  C   UNL     1       4.182   2.758  19.262  0.00  0.00    +0.000 C 
ATOM     18  C   UNL     1       4.782   1.540  19.961  0.00  0.00    +0.000 C 
ATOM     19  C   UNL     1       3.075   3.399  20.111  0.00  0.00    +0.000 C 
ATOM     20  C   UNL     1       2.439   4.639  19.437  0.00  0.00    +0.000 C 
ATOM     21  C   UNL     1       3.412   5.833  19.480  0.00  0.00    +0.000 C 
ATOM     22  C   UNL     1       1.186   5.048  20.240  0.00  0.00    +0.000 C 
ATOM     23  C   UNL     1       2.019   4.309  17.979  0.00  0.00    +0.000 C 
ENDBRANCH  13  15
ENDBRANCH   1  13
TORSDOF 5
ENDMDL
MODEL 7
REMARK VINA RESULT:      -6.7      2.991      6.355
REMARK  Name = 
REMARK  9 active torsions:
REMARK  status: ('A' for Active; 'I' for Inactive)
REMARK    1  A    between atoms: C_1  and  O_2
REMARK    2  A    between atoms: O_2  and  C_3
REMARK    3  A    between atoms: C_7  and  N_8
REMARK    4  A    between atoms: N_8  and  C_9
REMARK    5  A    between atoms: C_9  and  N_11
REMARK    6  A    between atoms: N_11  and  C_12
REMARK    7  A    between atoms: C_14  and  C_15
REMARK    8  A    between atoms: C_17  and  C_18
REMARK    9  A    between atoms: C_17  and  C_19
REMARK                            x       y       z     vdW  Elec       q    Type
REMARK                         _______ _______ _______ _____ _____    ______ ____
ROOT
ATOM      1  C   UNL     1       2.900   7.309  18.486  0.00  0.00    +0.000 C 
ATOM      2  S   UNL     1       2.276   8.698  17.781  0.00  0.00    +0.000 S 
ENDROOT
BRANCH   1   3
ATOM      3  N   UNL     1       2.527   6.806  19.730  0.00  0.00    +0.000 N 
ATOM      4  H   UNL     1       2.558   7.452  20.503  0.00  0.00    +0.000 HD
BRANCH   3   9
ATOM      5  C   UNL     1       1.546   3.256  19.212  0.00  0.00    +0.000 A 
ATOM      6  C   UNL     1       1.661   2.742  20.509  0.00  0.00    +0.000 A 
ATOM      7  C   UNL     1       2.027   3.584  21.566  0.00  0.00    +0.000 A 
ATOM      8  C   UNL     1       2.299   4.934  21.321  0.00  0.00    +0.000 A 
ATOM      9  C   UNL     1       2.185   5.467  20.039  0.00  0.00    +0.000 A 
ATOM     10  C   UNL     1       1.800   4.616  18.995  0.00  0.00    +0.000 A 
BRANCH   5  12
ATOM     11  C   UNL     1       2.228   1.690  17.586  0.00  0.00    +0.000 C 
ATOM     12  O   UNL     1       1.165   2.363  18.251  0.00  0.00    +0.000 OA
ENDBRANCH   5  12
ENDBRANCH   3   9
ENDBRANCH   1   3
BRANCH   1  13
ATOM     13  N   UNL     1       3.875   6.518  17.895  0.00  0.00    +0.000 N 
ATOM     14  H   UNL     1       3.694   5.528  17.881  0.00  0.00    +0.000 HD
BRANCH  13  15
ATOM     15  C   UNL     1       4.993   7.006  17.066  0.00  0.00    +0.000 C 
ATOM     16  C   UNL     1       6.317   7.024  17.853  0.00  0.00    +0.000 C 
ATOM     17  C   UNL     1       6.814   5.608  18.174  0.00  0.00    +0.000 C 
ATOM     18  C   UNL     1       8.081   5.658  19.027  0.00  0.00    +0.000 C 
ATOM     19  C   UNL     1       7.052   4.835  16.870  0.00  0.00    +0.000 C 
ATOM     20  C   UNL     1       5.792   4.761  15.974  0.00  0.00    +0.000 C 
ATOM     21  C   UNL     1       4.761   3.786  16.575  0.00  0.00    +0.000 C 
ATOM     22  C   UNL     1       6.199   4.196  14.597  0.00  0.00    +0.000 C 
ATOM     23  C   UNL     1       5.181   6.175  15.778  0.00  0.00    +0.000 C 
ENDBRANCH  13  15
ENDBRANCH   1  13
TORSDOF 5
ENDMDL
MODEL 8
REMARK VINA RESULT:      -6.7      0.966      2.418
REMARK  Name = 
REMARK  9 active torsions:
REMARK  status: ('A' for Active; 'I' for Inactive)
REMARK    1  A    between atoms: C_1  and  O_2
REMARK    2  A    between atoms: O_2  and  C_3
REMARK    3  A    between atoms: C_7  and  N_8
REMARK    4  A    between atoms: N_8  and  C_9
REMARK    5  A    between atoms: C_9  and  N_11
REMARK    6  A    between atoms: N_11  and  C_12
REMARK    7  A    between atoms: C_14  and  C_15
REMARK    8  A    between atoms: C_17  and  C_18
REMARK    9  A    between atoms: C_17  and  C_19
REMARK                            x       y       z     vdW  Elec       q    Type
REMARK                         _______ _______ _______ _____ _____    ______ ____
ROOT
ATOM      1  C   UNL     1       6.090   4.491  16.758  0.00  0.00    +0.000 C 
ATOM      2  S   UNL     1       7.500   4.598  17.661  0.00  0.00    +0.000 S 
ENDROOT
BRANCH   1   3
ATOM      3  N   UNL     1       5.878   5.113  15.530  0.00  0.00    +0.000 N 
ATOM      4  H   UNL     1       5.281   5.926  15.536  0.00  0.00    +0.000 HD
BRANCH   3   9
ATOM      5  C   UNL     1       5.983   3.266  12.304  0.00  0.00    +0.000 A 
ATOM      6  C   UNL     1       7.075   3.872  11.670  0.00  0.00    +0.000 A 
ATOM      7  C   UNL     1       7.803   4.868  12.331  0.00  0.00    +0.000 A 
ATOM      8  C   UNL     1       7.425   5.274  13.615  0.00  0.00    +0.000 A 
ATOM      9  C   UNL     1       6.345   4.681  14.265  0.00  0.00    +0.000 A 
ATOM     10  C   UNL     1       5.639   3.672  13.599  0.00  0.00    +0.000 A 
BRANCH   5  12
ATOM     11  C   UNL     1       6.172   1.213  11.158  0.00  0.00    +0.000 C 
ATOM     12  O   UNL     1       5.348   2.290  11.588  0.00  0.00    +0.000 OA
ENDBRANCH   5  12
ENDBRANCH   3   9
ENDBRANCH   1   3
BRANCH   1  13
ATOM     13  N   UNL     1       4.973   3.772  17.158  0.00  0.00    +0.000 N 
ATOM     14  H   UNL     1       5.134   3.042  17.833  0.00  0.00    +0.000 HD
BRANCH  13  15
ATOM     15  C   UNL     1       3.570   4.146  16.900  0.00  0.00    +0.000 C 
ATOM     16  C   UNL     1       2.593   3.068  17.408  0.00  0.00    +0.000 C 
ATOM     17  C   UNL     1       2.575   2.986  18.941  0.00  0.00    +0.000 C 
ATOM     18  C   UNL     1       1.664   1.854  19.413  0.00  0.00    +0.000 C 
ATOM     19  C   UNL     1       2.135   4.335  19.526  0.00  0.00    +0.000 C 
ATOM     20  C   UNL     1       3.032   5.511  19.072  0.00  0.00    +0.000 C 
ATOM     21  C   UNL     1       4.401   5.448  19.776  0.00  0.00    +0.000 C 
ATOM     22  C   UNL     1       2.365   6.835  19.500  0.00  0.00    +0.000 C 
ATOM     23  C   UNL     1       3.195   5.505  17.528  0.00  0.00    +0.000 C 
ENDBRANCH  13  15
ENDBRANCH   1  13
TORSDOF 5
ENDMDL
MODEL 9
REMARK VINA RESULT:      -6.7      3.138      4.526
REMARK  Name = 
REMARK  9 active torsions:
REMARK  status: ('A' for Active; 'I' for Inactive)
REMARK    1  A    between atoms: C_1  and  O_2
REMARK    2  A    between atoms: O_2  and  C_3
REMARK    3  A    between atoms: C_7  and  N_8
REMARK    4  A    between atoms: N_8  and  C_9
REMARK    5  A    between atoms: C_9  and  N_11
REMARK    6  A    between atoms: N_11  and  C_12
REMARK    7  A    between atoms: C_14  and  C_15
REMARK    8  A    between atoms: C_17  and  C_18
REMARK    9  A    between atoms: C_17  and  C_19
REMARK                            x       y       z     vdW  Elec       q    Type
REMARK                         _______ _______ _______ _____ _____    ______ ____
ROOT
ATOM      1  C   UNL     1       3.075   7.225  17.887  0.00  0.00    +0.000 C 
ATOM      2  S   UNL     1       1.973   8.451  18.198  0.00  0.00    +0.000 S 
ENDROOT
BRANCH   1   3
ATOM      3  N   UNL     1       4.178   7.337  17.043  0.00  0.00    +0.000 N 
ATOM      4  H   UNL     1       4.248   8.188  16.508  0.00  0.00    +0.000 HD
BRANCH   3   9
ATOM      5  C   UNL     1       7.080   5.092  17.646  0.00  0.00    +0.000 A 
ATOM      6  C   UNL     1       7.061   4.295  16.495  0.00  0.00    +0.000 A 
ATOM      7  C   UNL     1       6.108   4.529  15.498  0.00  0.00    +0.000 A 
ATOM      8  C   UNL     1       5.160   5.544  15.662  0.00  0.00    +0.000 A 
ATOM      9  C   UNL     1       5.164   6.352  16.797  0.00  0.00    +0.000 A 
ATOM     10  C   UNL     1       6.136   6.118  17.778  0.00  0.00    +0.000 A 
BRANCH   5  12
ATOM     11  C   UNL     1       7.988   5.517  19.781  0.00  0.00    +0.000 C 
ATOM     12  O   UNL     1       8.059   4.800  18.554  0.00  0.00    +0.000 OA
ENDBRANCH   5  12
ENDBRANCH   3   9
ENDBRANCH   1   3
BRANCH   1  13
ATOM     13  N   UNL     1       2.988   5.955  18.438  0.00  0.00    +0.000 N 
ATOM     14  H   UNL     1       3.555   5.786  19.253  0.00  0.00    +0.000 HD
BRANCH  13  15
ATOM     15  C   UNL     1       1.967   4.943  18.112  0.00  0.00    +0.000 C 
ATOM     16  C   UNL     1       2.578   3.741  17.366  0.00  0.00    +0.000 C 
ATOM     17  C   UNL     1       3.503   2.914  18.269  0.00  0.00    +0.000 C 
ATOM     18  C   UNL     1       4.159   1.781  17.482  0.00  0.00    +0.000 C 
ATOM     19  C   UNL     1       2.708   2.371  19.466  0.00  0.00    +0.000 C 
ATOM     20  C   UNL     1       2.025   3.487  20.292  0.00  0.00    +0.000 C 
ATOM     21  C   UNL     1       3.070   4.269  21.110  0.00  0.00    +0.000 C 
ATOM     22  C   UNL     1       1.058   2.833  21.301  0.00  0.00    +0.000 C 
ATOM     23  C   UNL     1       1.218   4.435  19.362  0.00  0.00    +0.000 C 
ENDBRANCH  13  15
ENDBRANCH   1  13
TORSDOF 5
ENDMDL
