MODEL 1
REMARK VINA RESULT:      -6.0      0.000      0.000
REMARK  Name = 
REMARK  3 active torsions:
REMARK  status: ('A' for Active; 'I' for Inactive)
REMARK    1  A    between atoms: C_4  and  S_5
REMARK    2  A    between atoms: S_5  and  C_6
REMARK    3  A    between atoms: C_6  and  C_7
REMARK                            x       y       z     vdW  Elec       q    Type
REMARK                         _______ _______ _______ _____ _____    ______ ____
ROOT
ATOM      1  C   UNL     1       6.400   4.328  17.973  0.00  0.00    +0.000 C 
ATOM      2  C   UNL     1       6.165   5.493  18.927  0.00  0.00    +0.000 C 
ATOM      3  N   UNL     1       4.943   5.218  19.714  0.00  0.00    +0.000 NA
ATOM      4  C   UNL     1       4.117   4.503  19.018  0.00  0.00    +0.000 C 
ATOM      5  N   UNL     1       2.906   4.035  19.465  0.00  0.00    +0.000 N 
ATOM      6  C   UNL     1       2.531   4.232  20.877  0.00  0.00    +0.000 C 
ATOM      7  C   UNL     1       1.607   3.090  21.328  0.00  0.00    +0.000 C 
ATOM      8  O   UNL     1       0.444   2.992  20.490  0.00  0.00    +0.000 OA
ATOM      9  C   UNL     1       0.834   2.753  19.127  0.00  0.00    +0.000 C 
ATOM     10  C   UNL     1       1.730   3.880  18.595  0.00  0.00    +0.000 C 
ATOM     11  S   UNL     1       4.697   4.019  17.428  0.00  0.00    +0.000 S 
ENDROOT
BRANCH   1  12
ATOM     12  C   UNL     1       7.346   4.591  16.806  0.00  0.00    +0.000 C 
BRANCH  12  13
ATOM     13  S   UNL     1       6.596   5.759  15.625  0.00  0.00    +0.000 S 
BRANCH  13  17
ATOM     14  C   UNL     1       5.972   3.317  12.458  0.00  0.00    +0.000 A 
ATOM     15  C   UNL     1       7.106   3.880  11.917  0.00  0.00    +0.000 A 
ATOM     16  S   UNL     1       7.784   5.063  12.946  0.00  0.00    +0.000 S 
ATOM     17  C   UNL     1       6.559   4.842  14.126  0.00  0.00    +0.000 A 
ATOM     18  C   UNL     1       5.659   3.870  13.737  0.00  0.00    +0.000 A 
ENDBRANCH  13  17
ENDBRANCH  12  13
ENDBRANCH   1  12
TORSDOF 3
ENDMDL
MODEL 2
REMARK VINA RESULT:      -5.9      3.529      7.140
REMARK  Name = 
REMARK  3 active torsions:
REMARK  status: ('A' for Active; 'I' for Inactive)
REMARK    1  A    between atoms: C_4  and  S_5
REMARK    2  A    between atoms: S_5  and  C_6
REMARK    3  A    between atoms: C_6  and  C_7
REMARK                            x       y       z     vdW  Elec       q    Type
REMARK                         _______ _______ _______ _____ _____    ______ ____
ROOT
ATOM      1  C   UNL     1       5.295   6.136  17.591  0.00  0.00    +0.000 C 
ATOM      2  C   UNL     1       6.817   6.164  17.672  0.00  0.00    +0.000 C 
ATOM      3  N   UNL     1       7.365   5.893  16.325  0.00  0.00    +0.000 NA
ATOM      4  C   UNL     1       6.559   5.127  15.662  0.00  0.00    +0.000 C 
ATOM      5  N   UNL     1       6.744   4.717  14.365  0.00  0.00    +0.000 N 
ATOM      6  C   UNL     1       7.869   5.268  13.586  0.00  0.00    +0.000 C 
ATOM      7  C   UNL     1       7.499   5.295  12.095  0.00  0.00    +0.000 C 
ATOM      8  O   UNL     1       7.127   3.991  11.621  0.00  0.00    +0.000 OA
ATOM      9  C   UNL     1       6.000   3.497  12.363  0.00  0.00    +0.000 C 
ATOM     10  C   UNL     1       6.313   3.404  13.863  0.00  0.00    +0.000 C 
ATOM     11  S   UNL     1       5.066   4.707  16.495  0.00  0.00    +0.000 S 
ENDROOT
BRANCH   1  12
ATOM     12  C   UNL     1       4.553   5.979  18.914  0.00  0.00    +0.000 C 
BRANCH  12  13
ATOM     13  S   UNL     1       2.784   6.365  18.705  0.00  0.00    +0.000 S 
BRANCH  13  17
ATOM     14  C   UNL     1       1.009   2.729  18.640  0.00  0.00    +0.000 A 
ATOM     15  C   UNL     1       0.842   2.887  19.998  0.00  0.00    +0.000 A 
ATOM     16  S   UNL     1       1.484   4.372  20.550  0.00  0.00    +0.000 S 
ATOM     17  C   UNL     1       2.002   4.816  18.977  0.00  0.00    +0.000 A 
ATOM     18  C   UNL     1       1.674   3.846  18.050  0.00  0.00    +0.000 A 
ENDBRANCH  13  17
ENDBRANCH  12  13
ENDBRANCH   1  12
TORSDOF 3
ENDMDL
MODEL 3
REMARK VINA RESULT:      -5.8      3.512      7.328
REMARK  Name = 
REMARK  3 active torsions:
REMARK  status: ('A' for Active; 'I' for Inactive)
REMARK    1  A    between atoms: C_4  and  S_5
REMARK    2  A    between atoms: S_5  and  C_6
REMARK    3  A    between atoms: C_6  and  C_7
REMARK                            x       y       z     vdW  Elec       q    Type
REMARK                         _______ _______ _______ _____ _____    ______ ____
ROOT
ATOM      1  C   UNL     1       5.036   6.256  17.478  0.00  0.00    +0.000 C 
ATOM      2  C   UNL     1       6.549   6.244  17.654  0.00  0.00    +0.000 C 
ATOM      3  N   UNL     1       7.173   5.939  16.348  0.00  0.00    +0.000 NA
ATOM      4  C   UNL     1       6.388   5.185  15.645  0.00  0.00    +0.000 C 
ATOM      5  N   UNL     1       6.643   4.752  14.368  0.00  0.00    +0.000 N 
ATOM      6  C   UNL     1       7.829   5.260  13.655  0.00  0.00    +0.000 C 
ATOM      7  C   UNL     1       7.554   5.275  12.143  0.00  0.00    +0.000 C 
ATOM      8  O   UNL     1       7.176   3.975  11.664  0.00  0.00    +0.000 OA
ATOM      9  C   UNL     1       5.991   3.523  12.339  0.00  0.00    +0.000 C 
ATOM     10  C   UNL     1       6.207   3.444  13.857  0.00  0.00    +0.000 C 
ATOM     11  S   UNL     1       4.835   4.819  16.388  0.00  0.00    +0.000 S 
ENDROOT
BRANCH   1  12
ATOM     12  C   UNL     1       4.207   6.140  18.753  0.00  0.00    +0.000 C 
BRANCH  12  13
ATOM     13  S   UNL     1       2.523   5.558  18.373  0.00  0.00    +0.000 S 
BRANCH  13  17
ATOM     14  C   UNL     1       1.253   3.077  21.307  0.00  0.00    +0.000 A 
ATOM     15  C   UNL     1       2.489   2.479  21.212  0.00  0.00    +0.000 A 
ATOM     16  S   UNL     1       3.463   3.215  20.015  0.00  0.00    +0.000 S 
ATOM     17  C   UNL     1       2.234   4.339  19.604  0.00  0.00    +0.000 A 
ATOM     18  C   UNL     1       1.108   4.155  20.382  0.00  0.00    +0.000 A 
ENDBRANCH  13  17
ENDBRANCH  12  13
ENDBRANCH   1  12
TORSDOF 3
ENDMDL
MODEL 4
REMARK VINA RESULT:      -5.8      3.522      7.125
REMARK  Name = 
REMARK  3 active torsions:
REMARK  status: ('A' for Active; 'I' for Inactive)
REMARK    1  A    between atoms: C_4  and  S_5
REMARK    2  A    between atoms: S_5  and  C_6
REMARK    3  A    between atoms: C_6  and  C_7
REMARK                            x       y       z     vdW  Elec       q    Type
REMARK                         _______ _______ _______ _____ _____    ______ ____
ROOT
ATOM      1  C   UNL     1       5.332   5.988  17.559  0.00  0.00    +0.000 C 
ATOM      2  C   UNL     1       6.853   6.041  17.633  0.00  0.00    +0.000 C 
ATOM      3  N   UNL     1       7.399   5.825  16.276  0.00  0.00    +0.000 NA
ATOM      4  C   UNL     1       6.604   5.066  15.592  0.00  0.00    +0.000 C 
ATOM      5  N   UNL     1       6.790   4.702  14.281  0.00  0.00    +0.000 N 
ATOM      6  C   UNL     1       7.900   5.299  13.516  0.00  0.00    +0.000 C 
ATOM      7  C   UNL     1       7.522   5.367  12.029  0.00  0.00    +0.000 C 
ATOM      8  O   UNL     1       7.172   4.073  11.514  0.00  0.00    +0.000 OA
ATOM      9  C   UNL     1       6.058   3.533  12.244  0.00  0.00    +0.000 C 
ATOM     10  C   UNL     1       6.380   3.398  13.739  0.00  0.00    +0.000 C 
ATOM     11  S   UNL     1       5.123   4.591  16.418  0.00  0.00    +0.000 S 
ENDROOT
BRANCH   1  12
ATOM     12  C   UNL     1       4.599   5.775  18.879  0.00  0.00    +0.000 C 
BRANCH  12  13
ATOM     13  S   UNL     1       4.673   4.024  19.378  0.00  0.00    +0.000 S 
BRANCH  13  17
ATOM     14  C   UNL     1       0.735   3.274  19.938  0.00  0.00    +0.000 A 
ATOM     15  C   UNL     1       0.836   2.429  18.856  0.00  0.00    +0.000 A 
ATOM     16  S   UNL     1       2.418   2.404  18.211  0.00  0.00    +0.000 S 
ATOM     17  C   UNL     1       2.985   3.534  19.370  0.00  0.00    +0.000 A 
ATOM     18  C   UNL     1       1.979   3.908  20.238  0.00  0.00    +0.000 A 
ENDBRANCH  13  17
ENDBRANCH  12  13
ENDBRANCH   1  12
TORSDOF 3
ENDMDL
MODEL 5
REMARK VINA RESULT:      -5.6      1.443      1.499
REMARK  Name = 
REMARK  3 active torsions:
REMARK  status: ('A' for Active; 'I' for Inactive)
REMARK    1  A    between atoms: C_4  and  S_5
REMARK    2  A    between atoms: S_5  and  C_6
REMARK    3  A    between atoms: C_6  and  C_7
REMARK                            x       y       z     vdW  Elec       q    Type
REMARK                         _______ _______ _______ _____ _____    ______ ____
ROOT
ATOM      1  C   UNL     1       4.919   6.237  17.276  0.00  0.00    +0.000 C 
ATOM      2  C   UNL     1       3.764   7.165  17.632  0.00  0.00    +0.000 C 
ATOM      3  N   UNL     1       2.929   6.506  18.660  0.00  0.00    +0.000 NA
ATOM      4  C   UNL     1       2.978   5.220  18.515  0.00  0.00    +0.000 C 
ATOM      5  N   UNL     1       2.352   4.308  19.328  0.00  0.00    +0.000 N 
ATOM      6  C   UNL     1       1.663   4.777  20.544  0.00  0.00    +0.000 C 
ATOM      7  C   UNL     1       1.696   3.673  21.613  0.00  0.00    +0.000 C 
ATOM      8  O   UNL     1       1.118   2.451  21.126  0.00  0.00    +0.000 OA
ATOM      9  C   UNL     1       1.836   1.990  19.970  0.00  0.00    +0.000 C 
ATOM     10  C   UNL     1       1.810   3.030  18.841  0.00  0.00    +0.000 C 
ATOM     11  S   UNL     1       4.042   4.648  17.235  0.00  0.00    +0.000 S 
ENDROOT
BRANCH   1  12
ATOM     12  C   UNL     1       5.645   6.535  15.969  0.00  0.00    +0.000 C 
BRANCH  12  13
ATOM     13  S   UNL     1       7.074   5.424  15.762  0.00  0.00    +0.000 S 
BRANCH  13  17
ATOM     14  C   UNL     1       5.922   3.391  12.458  0.00  0.00    +0.000 A 
ATOM     15  C   UNL     1       6.979   4.003  11.824  0.00  0.00    +0.000 A 
ATOM     16  S   UNL     1       7.835   5.046  12.873  0.00  0.00    +0.000 S 
ATOM     17  C   UNL     1       6.791   4.696  14.188  0.00  0.00    +0.000 A 
ATOM     18  C   UNL     1       5.817   3.787  13.825  0.00  0.00    +0.000 A 
ENDBRANCH  13  17
ENDBRANCH  12  13
ENDBRANCH   1  12
TORSDOF 3
ENDMDL
MODEL 6
REMARK VINA RESULT:      -5.6      5.153      6.580
REMARK  Name = 
REMARK  3 active torsions:
REMARK  status: ('A' for Active; 'I' for Inactive)
REMARK    1  A    between atoms: C_4  and  S_5
REMARK    2  A    between atoms: S_5  and  C_6
REMARK    3  A    between atoms: C_6  and  C_7
REMARK                            x       y       z     vdW  Elec       q    Type
REMARK                         _______ _______ _______ _____ _____    ______ ____
ROOT
ATOM      1  C   UNL     1       2.744   8.054  18.515  0.00  0.00    +0.000 C 
ATOM      2  C   UNL     1       1.641   8.715  17.698  0.00  0.00    +0.000 C 
ATOM      3  N   UNL     1       0.861   9.601  18.589  0.00  0.00    +0.000 NA
ATOM      4  C   UNL     1       0.867   9.133  19.797  0.00  0.00    +0.000 C 
ATOM      5  N   UNL     1       0.274   9.733  20.880  0.00  0.00    +0.000 N 
ATOM      6  C   UNL     1      -0.319  11.075  20.730  0.00  0.00    +0.000 C 
ATOM      7  C   UNL     1      -0.241  11.825  22.068  0.00  0.00    +0.000 C 
ATOM      8  O   UNL     1      -0.882  11.089  23.122  0.00  0.00    +0.000 OA
ATOM      9  C   UNL     1      -0.257   9.806  23.282  0.00  0.00    +0.000 C 
ATOM     10  C   UNL     1      -0.333   8.981  21.989  0.00  0.00    +0.000 C 
ATOM     11  S   UNL     1       1.827   7.677  20.035  0.00  0.00    +0.000 S 
ENDROOT
BRANCH   1  12
ATOM     12  C   UNL     1       3.388   6.815  17.901  0.00  0.00    +0.000 C 
BRANCH  12  13
ATOM     13  S   UNL     1       4.063   5.732  19.202  0.00  0.00    +0.000 S 
BRANCH  13  17
ATOM     14  C   UNL     1       2.455   2.377  17.608  0.00  0.00    +0.000 A 
ATOM     15  C   UNL     1       3.237   1.686  18.506  0.00  0.00    +0.000 A 
ATOM     16  S   UNL     1       4.178   2.735  19.473  0.00  0.00    +0.000 S 
ATOM     17  C   UNL     1       3.555   4.129  18.691  0.00  0.00    +0.000 A 
ATOM     18  C   UNL     1       2.636   3.789  17.719  0.00  0.00    +0.000 A 
ENDBRANCH  13  17
ENDBRANCH  12  13
ENDBRANCH   1  12
TORSDOF 3
ENDMDL
MODEL 7
REMARK VINA RESULT:      -5.5      4.871      7.667
REMARK  Name = 
REMARK  3 active torsions:
REMARK  status: ('A' for Active; 'I' for Inactive)
REMARK    1  A    between atoms: C_4  and  S_5
REMARK    2  A    between atoms: S_5  and  C_6
REMARK    3  A    between atoms: C_6  and  C_7
REMARK                            x       y       z     vdW  Elec       q    Type
REMARK                         _______ _______ _______ _____ _____    ______ ____
ROOT
ATOM      1  C   UNL     1       2.226   8.083  18.193  0.00  0.00    +0.000 C 
ATOM      2  C   UNL     1       3.550   7.792  17.497  0.00  0.00    +0.000 C 
ATOM      3  N   UNL     1       3.736   6.326  17.433  0.00  0.00    +0.000 NA
ATOM      4  C   UNL     1       3.160   5.759  18.445  0.00  0.00    +0.000 C 
ATOM      5  N   UNL     1       3.106   4.406  18.668  0.00  0.00    +0.000 N 
ATOM      6  C   UNL     1       3.619   3.482  17.640  0.00  0.00    +0.000 C 
ATOM      7  C   UNL     1       2.848   2.155  17.710  0.00  0.00    +0.000 C 
ATOM      8  O   UNL     1       2.925   1.570  19.020  0.00  0.00    +0.000 OA
ATOM      9  C   UNL     1       2.375   2.468  19.997  0.00  0.00    +0.000 C 
ATOM     10  C   UNL     1       3.126   3.807  20.012  0.00  0.00    +0.000 C 
ATOM     11  S   UNL     1       2.292   6.848  19.522  0.00  0.00    +0.000 S 
ENDROOT
BRANCH   1  12
ATOM     12  C   UNL     1       2.040   9.500  18.725  0.00  0.00    +0.000 C 
BRANCH  12  13
ATOM     13  S   UNL     1       0.271   9.931  18.797  0.00  0.00    +0.000 S 
BRANCH  13  17
ATOM     14  C   UNL     1      -0.483   9.308  22.724  0.00  0.00    +0.000 A 
ATOM     15  C   UNL     1      -0.629  10.673  22.819  0.00  0.00    +0.000 A 
ATOM     16  S   UNL     1      -0.380  11.448  21.316  0.00  0.00    +0.000 S 
ATOM     17  C   UNL     1      -0.063   9.961  20.522  0.00  0.00    +0.000 A 
ATOM     18  C   UNL     1      -0.161   8.896  21.396  0.00  0.00    +0.000 A 
ENDBRANCH  13  17
ENDBRANCH  12  13
ENDBRANCH   1  12
TORSDOF 3
ENDMDL
MODEL 8
REMARK VINA RESULT:      -5.4      4.676      5.937
REMARK  Name = 
REMARK  3 active torsions:
REMARK  status: ('A' for Active; 'I' for Inactive)
REMARK    1  A    between atoms: C_4  and  S_5
REMARK    2  A    between atoms: S_5  and  C_6
REMARK    3  A    between atoms: C_6  and  C_7
REMARK                            x       y       z     vdW  Elec       q    Type
REMARK                         _______ _______ _______ _____ _____    ______ ____
ROOT
ATOM      1  C   UNL     1       2.372   6.095  18.413  0.00  0.00    +0.000 C 
ATOM      2  C   UNL     1       2.642   6.237  19.906  0.00  0.00    +0.000 C 
ATOM      3  N   UNL     1       1.891   7.406  20.412  0.00  0.00    +0.000 NA
ATOM      4  C   UNL     1       1.769   8.295  19.477  0.00  0.00    +0.000 C 
ATOM      5  N   UNL     1       1.090   9.482  19.598  0.00  0.00    +0.000 N 
ATOM      6  C   UNL     1       0.320   9.753  20.826  0.00  0.00    +0.000 C 
ATOM      7  C   UNL     1      -0.868  10.668  20.497  0.00  0.00    +0.000 C 
ATOM      8  O   UNL     1      -0.437  11.888  19.874  0.00  0.00    +0.000 OA
ATOM      9  C   UNL     1       0.269  11.601  18.656  0.00  0.00    +0.000 C 
ATOM     10  C   UNL     1       1.498  10.719  18.916  0.00  0.00    +0.000 C 
ATOM     11  S   UNL     1       2.440   7.839  17.914  0.00  0.00    +0.000 S 
ENDROOT
BRANCH   1  12
ATOM     12  C   UNL     1       3.352   5.228  17.629  0.00  0.00    +0.000 C 
BRANCH  12  13
ATOM     13  S   UNL     1       4.623   4.536  18.736  0.00  0.00    +0.000 S 
BRANCH  13  17
ATOM     14  C   UNL     1       8.067   6.661  18.663  0.00  0.00    +0.000 A 
ATOM     15  C   UNL     1       7.553   7.282  17.547  0.00  0.00    +0.000 A 
ATOM     16  S   UNL     1       6.006   6.682  17.138  0.00  0.00    +0.000 S 
ATOM     17  C   UNL     1       6.012   5.574  18.447  0.00  0.00    +0.000 A 
ATOM     18  C   UNL     1       7.174   5.678  19.186  0.00  0.00    +0.000 A 
ENDBRANCH  13  17
ENDBRANCH  12  13
ENDBRANCH   1  12
TORSDOF 3
ENDMDL
MODEL 9
REMARK VINA RESULT:      -5.4      4.779      5.526
REMARK  Name = 
REMARK  3 active torsions:
REMARK  status: ('A' for Active; 'I' for Inactive)
REMARK    1  A    between atoms: C_4  and  S_5
REMARK    2  A    between atoms: S_5  and  C_6
REMARK    3  A    between atoms: C_6  and  C_7
REMARK                            x       y       z     vdW  Elec       q    Type
REMARK                         _______ _______ _______ _____ _____    ______ ____
ROOT
ATOM      1  C   UNL     1       3.180   6.573  19.146  0.00  0.00    +0.000 C 
ATOM      2  C   UNL     1       2.735   7.256  17.858  0.00  0.00    +0.000 C 
ATOM      3  N   UNL     1       2.160   8.575  18.198  0.00  0.00    +0.000 NA
ATOM      4  C   UNL     1       1.619   8.534  19.374  0.00  0.00    +0.000 C 
ATOM      5  N   UNL     1       1.033   9.599  20.012  0.00  0.00    +0.000 N 
ATOM      6  C   UNL     1       1.111  10.940  19.403  0.00  0.00    +0.000 C 
ATOM      7  C   UNL     1       1.090  12.009  20.507  0.00  0.00    +0.000 C 
ATOM      8  O   UNL     1      -0.074  11.883  21.339  0.00  0.00    +0.000 OA
ATOM      9  C   UNL     1      -0.103  10.587  21.958  0.00  0.00    +0.000 C 
ATOM     10  C   UNL     1      -0.125   9.465  20.910  0.00  0.00    +0.000 C 
ATOM     11  S   UNL     1       1.786   7.003  20.226  0.00  0.00    +0.000 S 
ENDROOT
BRANCH   1  12
ATOM     12  C   UNL     1       3.412   5.068  19.066  0.00  0.00    +0.000 C 
BRANCH  12  13
ATOM     13  S   UNL     1       5.193   4.689  19.130  0.00  0.00    +0.000 S 
BRANCH  13  17
ATOM     14  C   UNL     1       5.578   4.426  15.110  0.00  0.00    +0.000 A 
ATOM     15  C   UNL     1       6.930   4.577  15.321  0.00  0.00    +0.000 A 
ATOM     16  S   UNL     1       7.301   4.749  16.980  0.00  0.00    +0.000 S 
ATOM     17  C   UNL     1       5.651   4.633  17.435  0.00  0.00    +0.000 A 
ATOM     18  C   UNL     1       4.840   4.453  16.332  0.00  0.00    +0.000 A 
ENDBRANCH  13  17
ENDBRANCH  12  13
ENDBRANCH   1  12
TORSDOF 3
ENDMDL
