MODEL 1
REMARK VINA RESULT:      -7.6      0.000      0.000
REMARK  Name = 
REMARK  12 active torsions:
REMARK  status: ('A' for Active; 'I' for Inactive)
REMARK    1  A    between atoms: C_1  and  O_2
REMARK    2  A    between atoms: O_2  and  C_3
REMARK    3  A    between atoms: C_6  and  C_7
REMARK    4  A    between atoms: C_7  and  N_9
REMARK    5  A    between atoms: C_13  and  C_14
REMARK    6  A    between atoms: C_16  and  O_17
REMARK    7  A    between atoms: O_17  and  C_18
REMARK    8  A    between atoms: C_19  and  O_20
REMARK    9  A    between atoms: O_20  and  C_21
REMARK   10  A    between atoms: C_22  and  O_23
REMARK   11  A    between atoms: O_23  and  C_24
REMARK   12  A    between atoms: N_26  and  C_27
REMARK                            x       y       z     vdW  Elec       q    Type
REMARK                         _______ _______ _______ _____ _____    ______ ____
ROOT
ATOM      1  N   UNL     1       0.433  10.018  20.083  0.00  0.00    +0.000 NA
ATOM      2  C   UNL     1       1.235   9.246  19.422  0.00  0.00    +0.000 A 
ATOM      3  S   UNL     1       1.961   9.570  17.812  0.00  0.00    +0.000 S 
ATOM      4  C   UNL     1       2.731   8.008  17.786  0.00  0.00    +0.000 A 
ATOM      5  C   UNL     1       2.490   7.334  18.919  0.00  0.00    +0.000 A 
ATOM      6  N   UNL     1       1.703   8.004  19.859  0.00  0.00    +0.000 N 
ATOM      7  C   UNL     1       1.322   7.492  21.164  0.00  0.00    +0.000 C 
ENDROOT
BRANCH   5   8
ATOM      8  C   UNL     1       3.042   6.004  19.151  0.00  0.00    +0.000 A 
ATOM      9  C   UNL     1       4.400   5.785  18.932  0.00  0.00    +0.000 A 
ATOM     10  C   UNL     1       4.954   4.522  19.147  0.00  0.00    +0.000 A 
ATOM     11  C   UNL     1       4.128   3.450  19.558  0.00  0.00    +0.000 A 
ATOM     12  C   UNL     1       2.745   3.664  19.752  0.00  0.00    +0.000 A 
ATOM     13  C   UNL     1       2.222   4.948  19.559  0.00  0.00    +0.000 A 
BRANCH  10  14
ATOM     14  O   UNL     1       6.291   4.257  18.958  0.00  0.00    +0.000 OA
ATOM     15  C   UNL     1       7.046   5.279  18.312  0.00  0.00    +0.000 C 
ENDBRANCH  10  14
BRANCH  11  16
ATOM     16  O   UNL     1       4.766   2.233  19.668  0.00  0.00    +0.000 OA
ATOM     17  C   UNL     1       4.970   1.725  20.980  0.00  0.00    +0.000 C 
ENDBRANCH  11  16
BRANCH  12  18
ATOM     18  O   UNL     1       1.966   2.591  20.099  0.00  0.00    +0.000 OA
ATOM     19  C   UNL     1       1.420   2.550  21.412  0.00  0.00    +0.000 C 
ENDBRANCH  12  18
ENDBRANCH   5   8
BRANCH   1  20
ATOM     20  C   UNL     1      -0.059  11.161  19.503  0.00  0.00    +0.000 C 
ATOM     21  O   UNL     1       0.566  12.204  19.348  0.00  0.00    +0.000 OA
BRANCH  20  25
ATOM     22  C   UNL     1      -3.970  11.046  17.708  0.00  0.00    +0.000 A 
ATOM     23  C   UNL     1      -3.695  11.908  18.769  0.00  0.00    +0.000 A 
ATOM     24  C   UNL     1      -2.427  11.926  19.353  0.00  0.00    +0.000 A 
ATOM     25  C   UNL     1      -1.420  11.065  18.892  0.00  0.00    +0.000 A 
ATOM     26  C   UNL     1      -1.708  10.177  17.848  0.00  0.00    +0.000 A 
ATOM     27  C   UNL     1      -2.980  10.169  17.259  0.00  0.00    +0.000 A 
BRANCH  22  29
ATOM     28  C   UNL     1      -6.251  11.474  18.160  0.00  0.00    +0.000 C 
ATOM     29  O   UNL     1      -5.245  11.119  17.218  0.00  0.00    +0.000 OA
ENDBRANCH  22  29
ENDBRANCH  20  25
ENDBRANCH   1  20
TORSDOF 7
ENDMDL
MODEL 2
REMARK VINA RESULT:      -7.6      0.674      1.115
REMARK  Name = 
REMARK  12 active torsions:
REMARK  status: ('A' for Active; 'I' for Inactive)
REMARK    1  A    between atoms: C_1  and  O_2
REMARK    2  A    between atoms: O_2  and  C_3
REMARK    3  A    between atoms: C_6  and  C_7
REMARK    4  A    between atoms: C_7  and  N_9
REMARK    5  A    between atoms: C_13  and  C_14
REMARK    6  A    between atoms: C_16  and  O_17
REMARK    7  A    between atoms: O_17  and  C_18
REMARK    8  A    between atoms: C_19  and  O_20
REMARK    9  A    between atoms: O_20  and  C_21
REMARK   10  A    between atoms: C_22  and  O_23
REMARK   11  A    between atoms: O_23  and  C_24
REMARK   12  A    between atoms: N_26  and  C_27
REMARK                            x       y       z     vdW  Elec       q    Type
REMARK                         _______ _______ _______ _____ _____    ______ ____
ROOT
ATOM      1  N   UNL     1       0.435  10.330  20.109  0.00  0.00    +0.000 NA
ATOM      2  C   UNL     1       1.187   9.505  19.454  0.00  0.00    +0.000 A 
ATOM      3  S   UNL     1       1.921   9.766  17.836  0.00  0.00    +0.000 S 
ATOM      4  C   UNL     1       2.600   8.163  17.825  0.00  0.00    +0.000 A 
ATOM      5  C   UNL     1       2.327   7.518  18.968  0.00  0.00    +0.000 A 
ATOM      6  N   UNL     1       1.585   8.244  19.904  0.00  0.00    +0.000 N 
ATOM      7  C   UNL     1       1.184   7.770  21.216  0.00  0.00    +0.000 C 
ENDROOT
BRANCH   5   8
ATOM      8  C   UNL     1       2.803   6.161  19.214  0.00  0.00    +0.000 A 
ATOM      9  C   UNL     1       4.133   5.848  18.943  0.00  0.00    +0.000 A 
ATOM     10  C   UNL     1       4.614   4.558  19.169  0.00  0.00    +0.000 A 
ATOM     11  C   UNL     1       3.740   3.552  19.646  0.00  0.00    +0.000 A 
ATOM     12  C   UNL     1       2.384   3.861  19.893  0.00  0.00    +0.000 A 
ATOM     13  C   UNL     1       1.935   5.172  19.686  0.00  0.00    +0.000 A 
BRANCH  10  14
ATOM     14  O   UNL     1       5.922   4.202  18.930  0.00  0.00    +0.000 OA
ATOM     15  C   UNL     1       6.480   4.660  17.702  0.00  0.00    +0.000 C 
ENDBRANCH  10  14
BRANCH  11  16
ATOM     16  O   UNL     1       4.303   2.300  19.763  0.00  0.00    +0.000 OA
ATOM     17  C   UNL     1       3.972   1.345  18.763  0.00  0.00    +0.000 C 
ENDBRANCH  11  16
BRANCH  12  18
ATOM     18  O   UNL     1       1.554   2.850  20.303  0.00  0.00    +0.000 OA
ATOM     19  C   UNL     1       1.449   2.589  21.698  0.00  0.00    +0.000 C 
ENDBRANCH  12  18
ENDBRANCH   5   8
BRANCH   1  20
ATOM     20  C   UNL     1       0.007  11.492  19.517  0.00  0.00    +0.000 C 
ATOM     21  O   UNL     1       0.713  12.460  19.259  0.00  0.00    +0.000 OA
BRANCH  20  25
ATOM     22  C   UNL     1      -4.062  11.377  18.116  0.00  0.00    +0.000 A 
ATOM     23  C   UNL     1      -3.048  10.718  17.422  0.00  0.00    +0.000 A 
ATOM     24  C   UNL     1      -1.730  10.775  17.877  0.00  0.00    +0.000 A 
ATOM     25  C   UNL     1      -1.407  11.509  19.029  0.00  0.00    +0.000 A 
ATOM     26  C   UNL     1      -2.421  12.197  19.705  0.00  0.00    +0.000 A 
ATOM     27  C   UNL     1      -3.745  12.129  19.249  0.00  0.00    +0.000 A 
BRANCH  22  29
ATOM     28  C   UNL     1      -5.946  12.461  17.186  0.00  0.00    +0.000 C 
ATOM     29  O   UNL     1      -5.312  11.248  17.575  0.00  0.00    +0.000 OA
ENDBRANCH  22  29
ENDBRANCH  20  25
ENDBRANCH   1  20
TORSDOF 7
ENDMDL
MODEL 3
REMARK VINA RESULT:      -7.6      0.581      2.413
REMARK  Name = 
REMARK  12 active torsions:
REMARK  status: ('A' for Active; 'I' for Inactive)
REMARK    1  A    between atoms: C_1  and  O_2
REMARK    2  A    between atoms: O_2  and  C_3
REMARK    3  A    between atoms: C_6  and  C_7
REMARK    4  A    between atoms: C_7  and  N_9
REMARK    5  A    between atoms: C_13  and  C_14
REMARK    6  A    between atoms: C_16  and  O_17
REMARK    7  A    between atoms: O_17  and  C_18
REMARK    8  A    between atoms: C_19  and  O_20
REMARK    9  A    between atoms: O_20  and  C_21
REMARK   10  A    between atoms: C_22  and  O_23
REMARK   11  A    between atoms: O_23  and  C_24
REMARK   12  A    between atoms: N_26  and  C_27
REMARK                            x       y       z     vdW  Elec       q    Type
REMARK                         _______ _______ _______ _____ _____    ______ ____
ROOT
ATOM      1  N   UNL     1       0.457   9.952  20.211  0.00  0.00    +0.000 NA
ATOM      2  C   UNL     1       1.237   9.253  19.450  0.00  0.00    +0.000 A 
ATOM      3  S   UNL     1       1.879   9.724  17.841  0.00  0.00    +0.000 S 
ATOM      4  C   UNL     1       2.671   8.185  17.647  0.00  0.00    +0.000 A 
ATOM      5  C   UNL     1       2.495   7.415  18.729  0.00  0.00    +0.000 A 
ATOM      6  N   UNL     1       1.745   7.989  19.759  0.00  0.00    +0.000 N 
ATOM      7  C   UNL     1       1.437   7.363  21.032  0.00  0.00    +0.000 C 
ENDROOT
BRANCH   5   8
ATOM      8  C   UNL     1       3.079   6.080  18.822  0.00  0.00    +0.000 A 
ATOM      9  C   UNL     1       2.236   4.972  18.854  0.00  0.00    +0.000 A 
ATOM     10  C   UNL     1       2.768   3.685  18.943  0.00  0.00    +0.000 A 
ATOM     11  C   UNL     1       4.168   3.504  19.033  0.00  0.00    +0.000 A 
ATOM     12  C   UNL     1       5.022   4.630  19.031  0.00  0.00    +0.000 A 
ATOM     13  C   UNL     1       4.463   5.908  18.910  0.00  0.00    +0.000 A 
BRANCH  10  14
ATOM     14  O   UNL     1       1.979   2.557  18.964  0.00  0.00    +0.000 OA
ATOM     15  C   UNL     1       0.609   2.758  19.298  0.00  0.00    +0.000 C 
ENDBRANCH  10  14
BRANCH  11  16
ATOM     16  O   UNL     1       4.577   2.198  19.191  0.00  0.00    +0.000 OA
ATOM     17  C   UNL     1       4.794   1.743  20.520  0.00  0.00    +0.000 C 
ENDBRANCH  11  16
BRANCH  12  18
ATOM     18  O   UNL     1       6.369   4.421  19.173  0.00  0.00    +0.000 OA
ATOM     19  C   UNL     1       7.220   4.733  18.076  0.00  0.00    +0.000 C 
ENDBRANCH  12  18
ENDBRANCH   5   8
BRANCH   1  20
ATOM     20  C   UNL     1      -0.080  11.129  19.753  0.00  0.00    +0.000 C 
ATOM     21  O   UNL     1       0.493  12.214  19.739  0.00  0.00    +0.000 OA
BRANCH  20  25
ATOM     22  C   UNL     1      -3.920  11.028  17.811  0.00  0.00    +0.000 A 
ATOM     23  C   UNL     1      -3.657  11.944  18.829  0.00  0.00    +0.000 A 
ATOM     24  C   UNL     1      -2.414  11.958  19.462  0.00  0.00    +0.000 A 
ATOM     25  C   UNL     1      -1.419  11.039  19.093  0.00  0.00    +0.000 A 
ATOM     26  C   UNL     1      -1.696  10.098  18.094  0.00  0.00    +0.000 A 
ATOM     27  C   UNL     1      -2.944  10.095  17.455  0.00  0.00    +0.000 A 
BRANCH  22  29
ATOM     28  C   UNL     1      -6.251  11.126  18.193  0.00  0.00    +0.000 C 
ATOM     29  O   UNL     1      -5.172  11.111  17.266  0.00  0.00    +0.000 OA
ENDBRANCH  22  29
ENDBRANCH  20  25
ENDBRANCH   1  20
TORSDOF 7
ENDMDL
MODEL 4
REMARK VINA RESULT:      -7.5      0.956      2.605
REMARK  Name = 
REMARK  12 active torsions:
REMARK  status: ('A' for Active; 'I' for Inactive)
REMARK    1  A    between atoms: C_1  and  O_2
REMARK    2  A    between atoms: O_2  and  C_3
REMARK    3  A    between atoms: C_6  and  C_7
REMARK    4  A    between atoms: C_7  and  N_9
REMARK    5  A    between atoms: C_13  and  C_14
REMARK    6  A    between atoms: C_16  and  O_17
REMARK    7  A    between atoms: O_17  and  C_18
REMARK    8  A    between atoms: C_19  and  O_20
REMARK    9  A    between atoms: O_20  and  C_21
REMARK   10  A    between atoms: C_22  and  O_23
REMARK   11  A    between atoms: O_23  and  C_24
REMARK   12  A    between atoms: N_26  and  C_27
REMARK                            x       y       z     vdW  Elec       q    Type
REMARK                         _______ _______ _______ _____ _____    ______ ____
ROOT
ATOM      1  N   UNL     1       0.376  10.071  20.339  0.00  0.00    +0.000 NA
ATOM      2  C   UNL     1       1.140   9.439  19.507  0.00  0.00    +0.000 A 
ATOM      3  S   UNL     1       1.794  10.062  17.955  0.00  0.00    +0.000 S 
ATOM      4  C   UNL     1       2.549   8.534  17.597  0.00  0.00    +0.000 A 
ATOM      5  C   UNL     1       2.355   7.658  18.592  0.00  0.00    +0.000 A 
ATOM      6  N   UNL     1       1.619   8.137  19.679  0.00  0.00    +0.000 N 
ATOM      7  C   UNL     1       1.295   7.387  20.879  0.00  0.00    +0.000 C 
ENDROOT
BRANCH   5   8
ATOM      8  C   UNL     1       2.907   6.308  18.542  0.00  0.00    +0.000 A 
ATOM      9  C   UNL     1       2.070   5.244  18.214  0.00  0.00    +0.000 A 
ATOM     10  C   UNL     1       2.573   3.944  18.159  0.00  0.00    +0.000 A 
ATOM     11  C   UNL     1       3.931   3.698  18.469  0.00  0.00    +0.000 A 
ATOM     12  C   UNL     1       4.774   4.773  18.831  0.00  0.00    +0.000 A 
ATOM     13  C   UNL     1       4.250   6.072  18.848  0.00  0.00    +0.000 A 
BRANCH  10  14
ATOM     14  O   UNL     1       1.791   2.860  17.828  0.00  0.00    +0.000 OA
ATOM     15  C   UNL     1       0.813   2.477  18.790  0.00  0.00    +0.000 C 
ENDBRANCH  10  14
BRANCH  11  16
ATOM     16  O   UNL     1       4.300   2.370  18.455  0.00  0.00    +0.000 OA
ATOM     17  C   UNL     1       4.402   1.713  19.711  0.00  0.00    +0.000 C 
ENDBRANCH  11  16
BRANCH  12  18
ATOM     18  O   UNL     1       6.070   4.492  19.176  0.00  0.00    +0.000 OA
ATOM     19  C   UNL     1       7.109   4.922  18.304  0.00  0.00    +0.000 C 
ENDBRANCH  12  18
ENDBRANCH   5   8
BRANCH   1  20
ATOM     20  C   UNL     1      -0.133  11.302  20.009  0.00  0.00    +0.000 C 
ATOM     21  O   UNL     1       0.463  12.369  20.114  0.00  0.00    +0.000 OA
BRANCH  20  25
ATOM     22  C   UNL     1      -3.998  11.173  18.118  0.00  0.00    +0.000 A 
ATOM     23  C   UNL     1      -2.968  10.332  17.699  0.00  0.00    +0.000 A 
ATOM     24  C   UNL     1      -1.714  10.393  18.309  0.00  0.00    +0.000 A 
ATOM     25  C   UNL     1      -1.470  11.313  19.340  0.00  0.00    +0.000 A 
ATOM     26  C   UNL     1      -2.496  12.179  19.737  0.00  0.00    +0.000 A 
ATOM     27  C   UNL     1      -3.756  12.107  19.128  0.00  0.00    +0.000 A 
BRANCH  22  29
ATOM     28  C   UNL     1      -6.332  11.551  18.093  0.00  0.00    +0.000 C 
ATOM     29  O   UNL     1      -5.180  11.020  17.447  0.00  0.00    +0.000 OA
ENDBRANCH  22  29
ENDBRANCH  20  25
ENDBRANCH   1  20
TORSDOF 7
ENDMDL
MODEL 5
REMARK VINA RESULT:      -7.3      1.132      1.485
REMARK  Name = 
REMARK  12 active torsions:
REMARK  status: ('A' for Active; 'I' for Inactive)
REMARK    1  A    between atoms: C_1  and  O_2
REMARK    2  A    between atoms: O_2  and  C_3
REMARK    3  A    between atoms: C_6  and  C_7
REMARK    4  A    between atoms: C_7  and  N_9
REMARK    5  A    between atoms: C_13  and  C_14
REMARK    6  A    between atoms: C_16  and  O_17
REMARK    7  A    between atoms: O_17  and  C_18
REMARK    8  A    between atoms: C_19  and  O_20
REMARK    9  A    between atoms: O_20  and  C_21
REMARK   10  A    between atoms: C_22  and  O_23
REMARK   11  A    between atoms: O_23  and  C_24
REMARK   12  A    between atoms: N_26  and  C_27
REMARK                            x       y       z     vdW  Elec       q    Type
REMARK                         _______ _______ _______ _____ _____    ______ ____
ROOT
ATOM      1  N   UNL     1       0.491  10.441  20.416  0.00  0.00    +0.000 NA
ATOM      2  C   UNL     1       1.187   9.739  19.579  0.00  0.00    +0.000 A 
ATOM      3  S   UNL     1       1.816  10.273  17.984  0.00  0.00    +0.000 S 
ATOM      4  C   UNL     1       2.469   8.694  17.653  0.00  0.00    +0.000 A 
ATOM      5  C   UNL     1       2.263   7.862  18.683  0.00  0.00    +0.000 A 
ATOM      6  N   UNL     1       1.596   8.418  19.778  0.00  0.00    +0.000 N 
ATOM      7  C   UNL     1       1.276   7.726  21.014  0.00  0.00    +0.000 C 
ENDROOT
BRANCH   5   8
ATOM      8  C   UNL     1       2.735   6.482  18.660  0.00  0.00    +0.000 A 
ATOM      9  C   UNL     1       4.063   6.213  18.983  0.00  0.00    +0.000 A 
ATOM     10  C   UNL     1       4.540   4.901  18.969  0.00  0.00    +0.000 A 
ATOM     11  C   UNL     1       3.681   3.842  18.593  0.00  0.00    +0.000 A 
ATOM     12  C   UNL     1       2.342   4.117  18.236  0.00  0.00    +0.000 A 
ATOM     13  C   UNL     1       1.882   5.439  18.289  0.00  0.00    +0.000 A 
BRANCH  10  14
ATOM     14  O   UNL     1       5.839   4.581  19.292  0.00  0.00    +0.000 OA
ATOM     15  C   UNL     1       6.843   5.067  18.405  0.00  0.00    +0.000 C 
ENDBRANCH  10  14
BRANCH  11  16
ATOM     16  O   UNL     1       4.277   2.600  18.543  0.00  0.00    +0.000 OA
ATOM     17  C   UNL     1       4.221   1.807  19.721  0.00  0.00    +0.000 C 
ENDBRANCH  11  16
BRANCH  12  18
ATOM     18  O   UNL     1       1.553   3.074  17.826  0.00  0.00    +0.000 OA
ATOM     19  C   UNL     1       0.712   2.447  18.787  0.00  0.00    +0.000 C 
ENDBRANCH  12  18
ENDBRANCH   5   8
BRANCH   1  20
ATOM     20  C   UNL     1       0.041  11.688  20.063  0.00  0.00    +0.000 C 
ATOM     21  O   UNL     1       0.739  12.690  19.950  0.00  0.00    +0.000 OA
BRANCH  20  25
ATOM     22  C   UNL     1      -4.094  11.808  18.873  0.00  0.00    +0.000 A 
ATOM     23  C   UNL     1      -3.144  11.154  18.091  0.00  0.00    +0.000 A 
ATOM     24  C   UNL     1      -1.803  11.134  18.478  0.00  0.00    +0.000 A 
ATOM     25  C   UNL     1      -1.393  11.787  19.651  0.00  0.00    +0.000 A 
ATOM     26  C   UNL     1      -2.343  12.472  20.417  0.00  0.00    +0.000 A 
ATOM     27  C   UNL     1      -3.690  12.481  20.029  0.00  0.00    +0.000 A 
BRANCH  22  29
ATOM     28  C   UNL     1      -5.552  12.221  17.059  0.00  0.00    +0.000 C 
ATOM     29  O   UNL     1      -5.374  11.758  18.393  0.00  0.00    +0.000 OA
ENDBRANCH  22  29
ENDBRANCH  20  25
ENDBRANCH   1  20
TORSDOF 7
ENDMDL
MODEL 6
REMARK VINA RESULT:      -7.2      1.115      2.676
REMARK  Name = 
REMARK  12 active torsions:
REMARK  status: ('A' for Active; 'I' for Inactive)
REMARK    1  A    between atoms: C_1  and  O_2
REMARK    2  A    between atoms: O_2  and  C_3
REMARK    3  A    between atoms: C_6  and  C_7
REMARK    4  A    between atoms: C_7  and  N_9
REMARK    5  A    between atoms: C_13  and  C_14
REMARK    6  A    between atoms: C_16  and  O_17
REMARK    7  A    between atoms: O_17  and  C_18
REMARK    8  A    between atoms: C_19  and  O_20
REMARK    9  A    between atoms: O_20  and  C_21
REMARK   10  A    between atoms: C_22  and  O_23
REMARK   11  A    between atoms: O_23  and  C_24
REMARK   12  A    between atoms: N_26  and  C_27
REMARK                            x       y       z     vdW  Elec       q    Type
REMARK                         _______ _______ _______ _____ _____    ______ ____
ROOT
ATOM      1  N   UNL     1       0.345   9.945  20.230  0.00  0.00    +0.000 NA
ATOM      2  C   UNL     1       1.149   9.264  19.476  0.00  0.00    +0.000 A 
ATOM      3  S   UNL     1       1.784   9.745  17.867  0.00  0.00    +0.000 S 
ATOM      4  C   UNL     1       2.619   8.229  17.684  0.00  0.00    +0.000 A 
ATOM      5  C   UNL     1       2.461   7.459  18.769  0.00  0.00    +0.000 A 
ATOM      6  N   UNL     1       1.691   8.016  19.793  0.00  0.00    +0.000 N 
ATOM      7  C   UNL     1       1.394   7.387  21.067  0.00  0.00    +0.000 C 
ENDROOT
BRANCH   5   8
ATOM      8  C   UNL     1       3.081   6.142  18.871  0.00  0.00    +0.000 A 
ATOM      9  C   UNL     1       2.272   5.008  18.871  0.00  0.00    +0.000 A 
ATOM     10  C   UNL     1       2.839   3.737  18.966  0.00  0.00    +0.000 A 
ATOM     11  C   UNL     1       4.241   3.598  19.097  0.00  0.00    +0.000 A 
ATOM     12  C   UNL     1       5.060   4.748  19.128  0.00  0.00    +0.000 A 
ATOM     13  C   UNL     1       4.467   6.010  18.999  0.00  0.00    +0.000 A 
BRANCH  10  14
ATOM     14  O   UNL     1       2.085   2.586  18.958  0.00  0.00    +0.000 OA
ATOM     15  C   UNL     1       1.019   2.529  19.902  0.00  0.00    +0.000 C 
ENDBRANCH  10  14
BRANCH  11  16
ATOM     16  O   UNL     1       4.684   2.303  19.259  0.00  0.00    +0.000 OA
ATOM     17  C   UNL     1       4.777   1.811  20.590  0.00  0.00    +0.000 C 
ENDBRANCH  11  16
BRANCH  12  18
ATOM     18  O   UNL     1       6.409   4.579  19.309  0.00  0.00    +0.000 OA
ATOM     19  C   UNL     1       7.280   4.904  18.232  0.00  0.00    +0.000 C 
ENDBRANCH  12  18
ENDBRANCH   5   8
BRANCH   1  20
ATOM     20  C   UNL     1      -0.222  11.104  19.764  0.00  0.00    +0.000 C 
ATOM     21  O   UNL     1       0.148  12.239  20.045  0.00  0.00    +0.000 OA
BRANCH  20  25
ATOM     22  C   UNL     1      -3.167  10.681  16.653  0.00  0.00    +0.000 A 
ATOM     23  C   UNL     1      -2.323  11.790  16.693  0.00  0.00    +0.000 A 
ATOM     24  C   UNL     1      -1.382  11.924  17.714  0.00  0.00    +0.000 A 
ATOM     25  C   UNL     1      -1.286  10.954  18.724  0.00  0.00    +0.000 A 
ATOM     26  C   UNL     1      -2.157   9.858  18.701  0.00  0.00    +0.000 A 
ATOM     27  C   UNL     1      -3.094   9.723  17.667  0.00  0.00    +0.000 A 
BRANCH  22  29
ATOM     28  C   UNL     1      -3.531  10.158  14.377  0.00  0.00    +0.000 C 
ATOM     29  O   UNL     1      -4.046  10.659  15.605  0.00  0.00    +0.000 OA
ENDBRANCH  22  29
ENDBRANCH  20  25
ENDBRANCH   1  20
TORSDOF 7
ENDMDL
MODEL 7
REMARK VINA RESULT:      -7.1      0.867      2.581
REMARK  Name = 
REMARK  12 active torsions:
REMARK  status: ('A' for Active; 'I' for Inactive)
REMARK    1  A    between atoms: C_1  and  O_2
REMARK    2  A    between atoms: O_2  and  C_3
REMARK    3  A    between atoms: C_6  and  C_7
REMARK    4  A    between atoms: C_7  and  N_9
REMARK    5  A    between atoms: C_13  and  C_14
REMARK    6  A    between atoms: C_16  and  O_17
REMARK    7  A    between atoms: O_17  and  C_18
REMARK    8  A    between atoms: C_19  and  O_20
REMARK    9  A    between atoms: O_20  and  C_21
REMARK   10  A    between atoms: C_22  and  O_23
REMARK   11  A    between atoms: O_23  and  C_24
REMARK   12  A    between atoms: N_26  and  C_27
REMARK                            x       y       z     vdW  Elec       q    Type
REMARK                         _______ _______ _______ _____ _____    ______ ____
ROOT
ATOM      1  N   UNL     1       0.252  10.393  20.256  0.00  0.00    +0.000 NA
ATOM      2  C   UNL     1       1.033   9.660  19.528  0.00  0.00    +0.000 A 
ATOM      3  S   UNL     1       1.709  10.076  17.917  0.00  0.00    +0.000 S 
ATOM      4  C   UNL     1       2.476   8.519  17.778  0.00  0.00    +0.000 A 
ATOM      5  C   UNL     1       2.269   7.782  18.877  0.00  0.00    +0.000 A 
ATOM      6  N   UNL     1       1.513   8.396  19.878  0.00  0.00    +0.000 N 
ATOM      7  C   UNL     1       1.173   7.810  21.163  0.00  0.00    +0.000 C 
ENDROOT
BRANCH   5   8
ATOM      8  C   UNL     1       2.828   6.440  19.016  0.00  0.00    +0.000 A 
ATOM      9  C   UNL     1       2.376   5.620  20.047  0.00  0.00    +0.000 A 
ATOM     10  C   UNL     1       2.892   4.333  20.202  0.00  0.00    +0.000 A 
ATOM     11  C   UNL     1       3.904   3.869  19.328  0.00  0.00    +0.000 A 
ATOM     12  C   UNL     1       4.384   4.711  18.300  0.00  0.00    +0.000 A 
ATOM     13  C   UNL     1       3.826   5.986  18.149  0.00  0.00    +0.000 A 
BRANCH  10  14
ATOM     14  O   UNL     1       2.471   3.480  21.196  0.00  0.00    +0.000 OA
ATOM     15  C   UNL     1       1.156   2.950  21.049  0.00  0.00    +0.000 C 
ENDBRANCH  10  14
BRANCH  11  16
ATOM     16  O   UNL     1       4.392   2.613  19.619  0.00  0.00    +0.000 OA
ATOM     17  C   UNL     1       3.875   1.527  18.862  0.00  0.00    +0.000 C 
ENDBRANCH  11  16
BRANCH  12  18
ATOM     18  O   UNL     1       5.401   4.248  17.506  0.00  0.00    +0.000 OA
ATOM     19  C   UNL     1       6.714   4.743  17.737  0.00  0.00    +0.000 C 
ENDBRANCH  12  18
ENDBRANCH   5   8
BRANCH   1  20
ATOM     20  C   UNL     1      -0.256  11.566  19.757  0.00  0.00    +0.000 C 
ATOM     21  O   UNL     1       0.372  12.610  19.617  0.00  0.00    +0.000 OA
BRANCH  20  25
ATOM     22  C   UNL     1      -4.272  11.251  18.240  0.00  0.00    +0.000 A 
ATOM     23  C   UNL     1      -3.248  10.459  17.723  0.00  0.00    +0.000 A 
ATOM     24  C   UNL     1      -1.946  10.580  18.212  0.00  0.00    +0.000 A 
ATOM     25  C   UNL     1      -1.649  11.513  19.218  0.00  0.00    +0.000 A 
ATOM     26  C   UNL     1      -2.673  12.330  19.712  0.00  0.00    +0.000 A 
ATOM     27  C   UNL     1      -3.981  12.197  19.225  0.00  0.00    +0.000 A 
BRANCH  22  29
ATOM     28  C   UNL     1      -6.545  10.705  18.593  0.00  0.00    +0.000 C 
ATOM     29  O   UNL     1      -5.504  11.041  17.683  0.00  0.00    +0.000 OA
ENDBRANCH  22  29
ENDBRANCH  20  25
ENDBRANCH   1  20
TORSDOF 7
ENDMDL
MODEL 8
REMARK VINA RESULT:      -7.1      1.207      1.810
REMARK  Name = 
REMARK  12 active torsions:
REMARK  status: ('A' for Active; 'I' for Inactive)
REMARK    1  A    between atoms: C_1  and  O_2
REMARK    2  A    between atoms: O_2  and  C_3
REMARK    3  A    between atoms: C_6  and  C_7
REMARK    4  A    between atoms: C_7  and  N_9
REMARK    5  A    between atoms: C_13  and  C_14
REMARK    6  A    between atoms: C_16  and  O_17
REMARK    7  A    between atoms: O_17  and  C_18
REMARK    8  A    between atoms: C_19  and  O_20
REMARK    9  A    between atoms: O_20  and  C_21
REMARK   10  A    between atoms: C_22  and  O_23
REMARK   11  A    between atoms: O_23  and  C_24
REMARK   12  A    between atoms: N_26  and  C_27
REMARK                            x       y       z     vdW  Elec       q    Type
REMARK                         _______ _______ _______ _____ _____    ______ ____
ROOT
ATOM      1  N   UNL     1       1.264  10.448  18.484  0.00  0.00    +0.000 NA
ATOM      2  C   UNL     1       1.372   9.418  19.261  0.00  0.00    +0.000 A 
ATOM      3  S   UNL     1       0.803   9.283  20.959  0.00  0.00    +0.000 S 
ATOM      4  C   UNL     1       1.460   7.678  21.109  0.00  0.00    +0.000 A 
ATOM      5  C   UNL     1       2.015   7.277  19.957  0.00  0.00    +0.000 A 
ATOM      6  N   UNL     1       1.947   8.195  18.906  0.00  0.00    +0.000 N 
ATOM      7  C   UNL     1       2.458   7.984  17.563  0.00  0.00    +0.000 C 
ENDROOT
BRANCH   5   8
ATOM      8  C   UNL     1       2.620   5.956  19.818  0.00  0.00    +0.000 A 
ATOM      9  C   UNL     1       3.980   5.859  19.533  0.00  0.00    +0.000 A 
ATOM     10  C   UNL     1       4.583   4.608  19.396  0.00  0.00    +0.000 A 
ATOM     11  C   UNL     1       3.805   3.432  19.513  0.00  0.00    +0.000 A 
ATOM     12  C   UNL     1       2.420   3.531  19.773  0.00  0.00    +0.000 A 
ATOM     13  C   UNL     1       1.847   4.798  19.936  0.00  0.00    +0.000 A 
BRANCH  10  14
ATOM     14  O   UNL     1       5.925   4.458  19.127  0.00  0.00    +0.000 OA
ATOM     15  C   UNL     1       6.734   5.615  19.315  0.00  0.00    +0.000 C 
ENDBRANCH  10  14
BRANCH  11  16
ATOM     16  O   UNL     1       4.489   2.257  19.286  0.00  0.00    +0.000 OA
ATOM     17  C   UNL     1       4.873   1.501  20.426  0.00  0.00    +0.000 C 
ENDBRANCH  11  16
BRANCH  12  18
ATOM     18  O   UNL     1       1.687   2.373  19.828  0.00  0.00    +0.000 OA
ATOM     19  C   UNL     1       0.650   2.187  18.872  0.00  0.00    +0.000 C 
ENDBRANCH  12  18
ENDBRANCH   5   8
BRANCH   1  20
ATOM     20  C   UNL     1       0.792  11.638  18.977  0.00  0.00    +0.000 C 
ATOM     21  O   UNL     1       1.485  12.586  19.330  0.00  0.00    +0.000 OA
BRANCH  20  25
ATOM     22  C   UNL     1      -3.493  12.031  18.870  0.00  0.00    +0.000 A 
ATOM     23  C   UNL     1      -2.805  11.415  17.825  0.00  0.00    +0.000 A 
ATOM     24  C   UNL     1      -1.414  11.307  17.863  0.00  0.00    +0.000 A 
ATOM     25  C   UNL     1      -0.690  11.831  18.945  0.00  0.00    +0.000 A 
ATOM     26  C   UNL     1      -1.380  12.479  19.977  0.00  0.00    +0.000 A 
ATOM     27  C   UNL     1      -2.778  12.576  19.938  0.00  0.00    +0.000 A 
BRANCH  22  29
ATOM     28  C   UNL     1      -5.336  11.880  17.397  0.00  0.00    +0.000 C 
ATOM     29  O   UNL     1      -4.852  12.076  18.721  0.00  0.00    +0.000 OA
ENDBRANCH  22  29
ENDBRANCH  20  25
ENDBRANCH   1  20
TORSDOF 7
ENDMDL
MODEL 9
REMARK VINA RESULT:      -7.1      1.333      2.880
REMARK  Name = 
REMARK  12 active torsions:
REMARK  status: ('A' for Active; 'I' for Inactive)
REMARK    1  A    between atoms: C_1  and  O_2
REMARK    2  A    between atoms: O_2  and  C_3
REMARK    3  A    between atoms: C_6  and  C_7
REMARK    4  A    between atoms: C_7  and  N_9
REMARK    5  A    between atoms: C_13  and  C_14
REMARK    6  A    between atoms: C_16  and  O_17
REMARK    7  A    between atoms: O_17  and  C_18
REMARK    8  A    between atoms: C_19  and  O_20
REMARK    9  A    between atoms: O_20  and  C_21
REMARK   10  A    between atoms: C_22  and  O_23
REMARK   11  A    between atoms: O_23  and  C_24
REMARK   12  A    between atoms: N_26  and  C_27
REMARK                            x       y       z     vdW  Elec       q    Type
REMARK                         _______ _______ _______ _____ _____    ______ ____
ROOT
ATOM      1  N   UNL     1       1.063  10.536  18.611  0.00  0.00    +0.000 NA
ATOM      2  C   UNL     1       1.227   9.485  19.349  0.00  0.00    +0.000 A 
ATOM      3  S   UNL     1       0.699   9.270  21.052  0.00  0.00    +0.000 S 
ATOM      4  C   UNL     1       1.420   7.688  21.132  0.00  0.00    +0.000 A 
ATOM      5  C   UNL     1       1.966   7.348  19.956  0.00  0.00    +0.000 A 
ATOM      6  N   UNL     1       1.840   8.298  18.940  0.00  0.00    +0.000 N 
ATOM      7  C   UNL     1       2.330   8.153  17.581  0.00  0.00    +0.000 C 
ENDROOT
BRANCH   5   8
ATOM      8  C   UNL     1       2.617   6.057  19.759  0.00  0.00    +0.000 A 
ATOM      9  C   UNL     1       1.856   4.893  19.834  0.00  0.00    +0.000 A 
ATOM     10  C   UNL     1       2.454   3.646  19.649  0.00  0.00    +0.000 A 
ATOM     11  C   UNL     1       3.847   3.559  19.415  0.00  0.00    +0.000 A 
ATOM     12  C   UNL     1       4.625   4.737  19.368  0.00  0.00    +0.000 A 
ATOM     13  C   UNL     1       3.993   5.977  19.527  0.00  0.00    +0.000 A 
BRANCH  10  14
ATOM     14  O   UNL     1       1.744   2.469  19.700  0.00  0.00    +0.000 OA
ATOM     15  C   UNL     1       0.681   2.337  18.760  0.00  0.00    +0.000 C 
ENDBRANCH  10  14
BRANCH  11  16
ATOM     16  O   UNL     1       4.341   2.276  19.321  0.00  0.00    +0.000 OA
ATOM     17  C   UNL     1       4.805   1.671  20.521  0.00  0.00    +0.000 C 
ENDBRANCH  11  16
BRANCH  12  18
ATOM     18  O   UNL     1       5.979   4.613  19.193  0.00  0.00    +0.000 OA
ATOM     19  C   UNL     1       6.508   4.787  17.884  0.00  0.00    +0.000 C 
ENDBRANCH  12  18
ENDBRANCH   5   8
BRANCH   1  20
ATOM     20  C   UNL     1       0.557  11.689  19.155  0.00  0.00    +0.000 C 
ATOM     21  O   UNL     1       1.218  12.664  19.497  0.00  0.00    +0.000 OA
BRANCH  20  25
ATOM     22  C   UNL     1      -3.716  12.188  19.309  0.00  0.00    +0.000 A 
ATOM     23  C   UNL     1      -2.911  12.580  20.378  0.00  0.00    +0.000 A 
ATOM     24  C   UNL     1      -1.528  12.400  20.323  0.00  0.00    +0.000 A 
ATOM     25  C   UNL     1      -0.933  11.806  19.199  0.00  0.00    +0.000 A 
ATOM     26  C   UNL     1      -1.747  11.383  18.142  0.00  0.00    +0.000 A 
ATOM     27  C   UNL     1      -3.134  11.575  18.197  0.00  0.00    +0.000 A 
BRANCH  22  29
ATOM     28  C   UNL     1      -5.404  13.699  19.985  0.00  0.00    +0.000 C 
ATOM     29  O   UNL     1      -5.054  12.416  19.477  0.00  0.00    +0.000 OA
ENDBRANCH  22  29
ENDBRANCH  20  25
ENDBRANCH   1  20
TORSDOF 7
ENDMDL
