MODEL 1
REMARK VINA RESULT:      -8.2      0.000      0.000
REMARK  Name = 
REMARK  6 active torsions:
REMARK  status: ('A' for Active; 'I' for Inactive)
REMARK    1  A    between atoms: C_1  and  C_2
REMARK    2  A    between atoms: C_7  and  O_8
REMARK    3  A    between atoms: C_9  and  C_10
REMARK    4  A    between atoms: C_10  and  O_11
REMARK    5  A    between atoms: O_11  and  C_12
REMARK    6  A    between atoms: C_12  and  C_14
REMARK                            x       y       z     vdW  Elec       q    Type
REMARK                         _______ _______ _______ _____ _____    ______ ____
ROOT
ATOM      1  C   UNL     1       5.476   2.623  11.406  0.00  0.00    +0.000 C 
ATOM      2  C   UNL     1       6.016   3.432  12.547  0.00  0.00    +0.000 A 
ATOM      3  C   UNL     1       7.054   4.345  12.354  0.00  0.00    +0.000 A 
ATOM      4  C   UNL     1       7.534   5.105  13.426  0.00  0.00    +0.000 A 
ATOM      5  C   UNL     1       7.011   4.978  14.704  0.00  0.00    +0.000 A 
ATOM      6  N   UNL     1       7.521   5.719  15.702  0.00  0.00    +0.000 NA
ATOM      7  C   UNL     1       6.996   5.541  16.926  0.00  0.00    +0.000 A 
ATOM      8  C   UNL     1       5.971   4.674  17.250  0.00  0.00    +0.000 A 
ATOM      9  C   UNL     1       5.457   3.908  16.202  0.00  0.00    +0.000 A 
ATOM     10  C   UNL     1       5.966   4.052  14.903  0.00  0.00    +0.000 A 
ATOM     11  C   UNL     1       5.468   3.298  13.827  0.00  0.00    +0.000 A 
ENDROOT
BRANCH   7  12
ATOM     12  O   UNL     1       7.597   6.310  17.867  0.00  0.00    +0.000 OA
ATOM     13  H   UNL     1       8.304   5.699  18.143  0.00  0.00    +0.000 HD
ENDBRANCH   7  12
BRANCH   8  14
ATOM     14  C   UNL     1       5.494   4.517  18.665  0.00  0.00    +0.000 C 
BRANCH  14  15
ATOM     15  O   UNL     1       4.840   5.702  19.140  0.00  0.00    +0.000 OA
BRANCH  15  16
ATOM     16  C   UNL     1       3.637   5.987  18.579  0.00  0.00    +0.000 C 
ATOM     17  O   UNL     1       3.392   6.912  17.822  0.00  0.00    +0.000 OA
BRANCH  16  18
ATOM     18  C   UNL     1       2.628   4.973  19.014  0.00  0.00    +0.000 A 
ATOM     19  C   UNL     1       2.213   4.961  20.342  0.00  0.00    +0.000 A 
ATOM     20  C   UNL     1       1.287   3.997  20.736  0.00  0.00    +0.000 A 
ATOM     21  C   UNL     1       0.810   3.086  19.799  0.00  0.00    +0.000 A 
ATOM     22  C   UNL     1       1.270   3.179  18.495  0.00  0.00    +0.000 A 
ATOM     23  N   UNL     1       2.162   4.099  18.080  0.00  0.00    +0.000 NA
ENDBRANCH  16  18
ENDBRANCH  15  16
ENDBRANCH  14  15
ENDBRANCH   8  14
TORSDOF 5
ENDMDL
MODEL 2
REMARK VINA RESULT:      -8.2      0.614      1.038
REMARK  Name = 
REMARK  6 active torsions:
REMARK  status: ('A' for Active; 'I' for Inactive)
REMARK    1  A    between atoms: C_1  and  C_2
REMARK    2  A    between atoms: C_7  and  O_8
REMARK    3  A    between atoms: C_9  and  C_10
REMARK    4  A    between atoms: C_10  and  O_11
REMARK    5  A    between atoms: O_11  and  C_12
REMARK    6  A    between atoms: C_12  and  C_14
REMARK                            x       y       z     vdW  Elec       q    Type
REMARK                         _______ _______ _______ _____ _____    ______ ____
ROOT
ATOM      1  C   UNL     1       5.156   2.889  11.374  0.00  0.00    +0.000 C 
ATOM      2  C   UNL     1       5.792   3.582  12.540  0.00  0.00    +0.000 A 
ATOM      3  C   UNL     1       6.922   4.383  12.372  0.00  0.00    +0.000 A 
ATOM      4  C   UNL     1       7.493   5.038  13.468  0.00  0.00    +0.000 A 
ATOM      5  C   UNL     1       6.972   4.913  14.747  0.00  0.00    +0.000 A 
ATOM      6  N   UNL     1       7.570   5.549  15.769  0.00  0.00    +0.000 NA
ATOM      7  C   UNL     1       7.040   5.376  16.991  0.00  0.00    +0.000 A 
ATOM      8  C   UNL     1       5.929   4.613  17.293  0.00  0.00    +0.000 A 
ATOM      9  C   UNL     1       5.324   3.955  16.221  0.00  0.00    +0.000 A 
ATOM     10  C   UNL     1       5.833   4.100  14.922  0.00  0.00    +0.000 A 
ATOM     11  C   UNL     1       5.245   3.453  13.821  0.00  0.00    +0.000 A 
ENDROOT
BRANCH   7  12
ATOM     12  O   UNL     1       7.732   6.032  17.955  0.00  0.00    +0.000 OA
ATOM     13  H   UNL     1       7.157   5.843  18.719  0.00  0.00    +0.000 HD
ENDBRANCH   7  12
BRANCH   8  14
ATOM     14  C   UNL     1       5.451   4.447  18.706  0.00  0.00    +0.000 C 
BRANCH  14  15
ATOM     15  O   UNL     1       4.844   5.647  19.206  0.00  0.00    +0.000 OA
BRANCH  15  16
ATOM     16  C   UNL     1       3.635   5.971  18.680  0.00  0.00    +0.000 C 
ATOM     17  O   UNL     1       3.382   6.949  17.995  0.00  0.00    +0.000 OA
BRANCH  16  18
ATOM     18  C   UNL     1       2.632   4.927  19.051  0.00  0.00    +0.000 A 
ATOM     19  C   UNL     1       2.063   4.151  18.045  0.00  0.00    +0.000 A 
ATOM     20  C   UNL     1       1.116   3.195  18.405  0.00  0.00    +0.000 A 
ATOM     21  C   UNL     1       0.771   3.045  19.743  0.00  0.00    +0.000 A 
ATOM     22  C   UNL     1       1.395   3.854  20.680  0.00  0.00    +0.000 A 
ATOM     23  N   UNL     1       2.317   4.786  20.368  0.00  0.00    +0.000 NA
ENDBRANCH  16  18
ENDBRANCH  15  16
ENDBRANCH  14  15
ENDBRANCH   8  14
TORSDOF 5
ENDMDL
MODEL 3
REMARK VINA RESULT:      -7.8      0.992      1.388
REMARK  Name = 
REMARK  6 active torsions:
REMARK  status: ('A' for Active; 'I' for Inactive)
REMARK    1  A    between atoms: C_1  and  C_2
REMARK    2  A    between atoms: C_7  and  O_8
REMARK    3  A    between atoms: C_9  and  C_10
REMARK    4  A    between atoms: C_10  and  O_11
REMARK    5  A    between atoms: O_11  and  C_12
REMARK    6  A    between atoms: C_12  and  C_14
REMARK                            x       y       z     vdW  Elec       q    Type
REMARK                         _______ _______ _______ _____ _____    ______ ____
ROOT
ATOM      1  C   UNL     1       5.293   2.798  11.560  0.00  0.00    +0.000 C 
ATOM      2  C   UNL     1       5.831   3.624  12.689  0.00  0.00    +0.000 A 
ATOM      3  C   UNL     1       7.152   4.074  12.685  0.00  0.00    +0.000 A 
ATOM      4  C   UNL     1       7.634   4.859  13.739  0.00  0.00    +0.000 A 
ATOM      5  C   UNL     1       6.832   5.209  14.814  0.00  0.00    +0.000 A 
ATOM      6  N   UNL     1       7.349   5.950  15.809  0.00  0.00    +0.000 NA
ATOM      7  C   UNL     1       6.538   6.243  16.840  0.00  0.00    +0.000 A 
ATOM      8  C   UNL     1       5.217   5.861  16.965  0.00  0.00    +0.000 A 
ATOM      9  C   UNL     1       4.698   5.087  15.926  0.00  0.00    +0.000 A 
ATOM     10  C   UNL     1       5.498   4.752  14.823  0.00  0.00    +0.000 A 
ATOM     11  C   UNL     1       5.004   3.978  13.760  0.00  0.00    +0.000 A 
ENDROOT
BRANCH   7  12
ATOM     12  O   UNL     1       7.161   6.966  17.803  0.00  0.00    +0.000 OA
ATOM     13  H   UNL     1       6.508   7.681  17.911  0.00  0.00    +0.000 HD
ENDBRANCH   7  12
BRANCH   8  14
ATOM     14  C   UNL     1       4.415   6.200  18.188  0.00  0.00    +0.000 C 
BRANCH  14  15
ATOM     15  O   UNL     1       4.894   5.506  19.348  0.00  0.00    +0.000 OA
BRANCH  15  16
ATOM     16  C   UNL     1       4.745   4.156  19.342  0.00  0.00    +0.000 C 
ATOM     17  O   UNL     1       5.636   3.330  19.234  0.00  0.00    +0.000 OA
BRANCH  16  18
ATOM     18  C   UNL     1       3.300   3.811  19.512  0.00  0.00    +0.000 A 
ATOM     19  C   UNL     1       2.553   4.487  20.472  0.00  0.00    +0.000 A 
ATOM     20  C   UNL     1       1.213   4.140  20.630  0.00  0.00    +0.000 A 
ATOM     21  C   UNL     1       0.668   3.140  19.832  0.00  0.00    +0.000 A 
ATOM     22  C   UNL     1       1.483   2.527  18.893  0.00  0.00    +0.000 A 
ATOM     23  N   UNL     1       2.781   2.839  18.712  0.00  0.00    +0.000 NA
ENDBRANCH  16  18
ENDBRANCH  15  16
ENDBRANCH  14  15
ENDBRANCH   8  14
TORSDOF 5
ENDMDL
MODEL 4
REMARK VINA RESULT:      -7.7      2.320      6.691
REMARK  Name = 
REMARK  6 active torsions:
REMARK  status: ('A' for Active; 'I' for Inactive)
REMARK    1  A    between atoms: C_1  and  C_2
REMARK    2  A    between atoms: C_7  and  O_8
REMARK    3  A    between atoms: C_9  and  C_10
REMARK    4  A    between atoms: C_10  and  O_11
REMARK    5  A    between atoms: O_11  and  C_12
REMARK    6  A    between atoms: C_12  and  C_14
REMARK                            x       y       z     vdW  Elec       q    Type
REMARK                         _______ _______ _______ _____ _____    ______ ____
ROOT
ATOM      1  C   UNL     1       1.419   8.247  20.661  0.00  0.00    +0.000 C 
ATOM      2  C   UNL     1       1.853   6.883  20.216  0.00  0.00    +0.000 A 
ATOM      3  C   UNL     1       1.510   5.745  20.946  0.00  0.00    +0.000 A 
ATOM      4  C   UNL     1       1.909   4.477  20.507  0.00  0.00    +0.000 A 
ATOM      5  C   UNL     1       2.657   4.306  19.352  0.00  0.00    +0.000 A 
ATOM      6  N   UNL     1       3.029   3.069  18.985  0.00  0.00    +0.000 NA
ATOM      7  C   UNL     1       3.773   2.959  17.871  0.00  0.00    +0.000 A 
ATOM      8  C   UNL     1       4.180   4.001  17.062  0.00  0.00    +0.000 A 
ATOM      9  C   UNL     1       3.788   5.281  17.461  0.00  0.00    +0.000 A 
ATOM     10  C   UNL     1       3.010   5.455  18.615  0.00  0.00    +0.000 A 
ATOM     11  C   UNL     1       2.598   6.729  19.042  0.00  0.00    +0.000 A 
ENDROOT
BRANCH   7  12
ATOM     12  O   UNL     1       4.123   1.677  17.604  0.00  0.00    +0.000 OA
ATOM     13  H   UNL     1       5.022   1.826  17.260  0.00  0.00    +0.000 HD
ENDBRANCH   7  12
BRANCH   8  14
ATOM     14  C   UNL     1       5.055   3.770  15.864  0.00  0.00    +0.000 C 
BRANCH  14  15
ATOM     15  O   UNL     1       5.487   5.004  15.276  0.00  0.00    +0.000 OA
BRANCH  15  16
ATOM     16  C   UNL     1       6.828   5.214  15.239  0.00  0.00    +0.000 C 
ATOM     17  O   UNL     1       7.565   5.023  14.286  0.00  0.00    +0.000 OA
BRANCH  16  18
ATOM     18  C   UNL     1       7.287   5.747  16.559  0.00  0.00    +0.000 A 
ATOM     19  C   UNL     1       7.533   4.854  17.598  0.00  0.00    +0.000 A 
ATOM     20  C   UNL     1       7.942   5.368  18.826  0.00  0.00    +0.000 A 
ATOM     21  C   UNL     1       8.092   6.742  18.976  0.00  0.00    +0.000 A 
ATOM     22  C   UNL     1       7.835   7.557  17.884  0.00  0.00    +0.000 A 
ATOM     23  N   UNL     1       7.441   7.094  16.682  0.00  0.00    +0.000 NA
ENDBRANCH  16  18
ENDBRANCH  15  16
ENDBRANCH  14  15
ENDBRANCH   8  14
TORSDOF 5
ENDMDL
MODEL 5
REMARK VINA RESULT:      -7.7      1.810      6.330
REMARK  Name = 
REMARK  6 active torsions:
REMARK  status: ('A' for Active; 'I' for Inactive)
REMARK    1  A    between atoms: C_1  and  C_2
REMARK    2  A    between atoms: C_7  and  O_8
REMARK    3  A    between atoms: C_9  and  C_10
REMARK    4  A    between atoms: C_10  and  O_11
REMARK    5  A    between atoms: O_11  and  C_12
REMARK    6  A    between atoms: C_12  and  C_14
REMARK                            x       y       z     vdW  Elec       q    Type
REMARK                         _______ _______ _______ _____ _____    ______ ____
ROOT
ATOM      1  C   UNL     1       0.382   2.145  18.631  0.00  0.00    +0.000 C 
ATOM      2  C   UNL     1       1.706   2.784  18.924  0.00  0.00    +0.000 A 
ATOM      3  C   UNL     1       2.386   2.519  20.112  0.00  0.00    +0.000 A 
ATOM      4  C   UNL     1       3.630   3.110  20.362  0.00  0.00    +0.000 A 
ATOM      5  C   UNL     1       4.222   3.976  19.455  0.00  0.00    +0.000 A 
ATOM      6  N   UNL     1       5.409   4.531  19.751  0.00  0.00    +0.000 NA
ATOM      7  C   UNL     1       5.929   5.381  18.850  0.00  0.00    +0.000 A 
ATOM      8  C   UNL     1       5.360   5.729  17.641  0.00  0.00    +0.000 A 
ATOM      9  C   UNL     1       4.124   5.147  17.352  0.00  0.00    +0.000 A 
ATOM     10  C   UNL     1       3.534   4.251  18.255  0.00  0.00    +0.000 A 
ATOM     11  C   UNL     1       2.293   3.647  17.991  0.00  0.00    +0.000 A 
ENDROOT
BRANCH   7  12
ATOM     12  O   UNL     1       7.110   5.910  19.255  0.00  0.00    +0.000 OA
ATOM     13  H   UNL     1       7.324   6.442  18.468  0.00  0.00    +0.000 HD
ENDBRANCH   7  12
BRANCH   8  14
ATOM     14  C   UNL     1       6.005   6.732  16.729  0.00  0.00    +0.000 C 
BRANCH  14  15
ATOM     15  O   UNL     1       7.356   6.369  16.412  0.00  0.00    +0.000 OA
BRANCH  15  16
ATOM     16  C   UNL     1       7.577   5.057  16.140  0.00  0.00    +0.000 C 
ATOM     17  O   UNL     1       7.964   4.210  16.927  0.00  0.00    +0.000 OA
BRANCH  16  18
ATOM     18  C   UNL     1       7.252   4.781  14.707  0.00  0.00    +0.000 A 
ATOM     19  C   UNL     1       6.248   3.865  14.407  0.00  0.00    +0.000 A 
ATOM     20  C   UNL     1       5.971   3.605  13.067  0.00  0.00    +0.000 A 
ATOM     21  C   UNL     1       6.697   4.262  12.079  0.00  0.00    +0.000 A 
ATOM     22  C   UNL     1       7.672   5.167  12.469  0.00  0.00    +0.000 A 
ATOM     23  N   UNL     1       7.964   5.444  13.755  0.00  0.00    +0.000 NA
ENDBRANCH  16  18
ENDBRANCH  15  16
ENDBRANCH  14  15
ENDBRANCH   8  14
TORSDOF 5
ENDMDL
MODEL 6
REMARK VINA RESULT:      -7.6      1.138      1.687
REMARK  Name = 
REMARK  6 active torsions:
REMARK  status: ('A' for Active; 'I' for Inactive)
REMARK    1  A    between atoms: C_1  and  C_2
REMARK    2  A    between atoms: C_7  and  O_8
REMARK    3  A    between atoms: C_9  and  C_10
REMARK    4  A    between atoms: C_10  and  O_11
REMARK    5  A    between atoms: O_11  and  C_12
REMARK    6  A    between atoms: C_12  and  C_14
REMARK                            x       y       z     vdW  Elec       q    Type
REMARK                         _______ _______ _______ _____ _____    ______ ____
ROOT
ATOM      1  C   UNL     1       5.242   2.840  11.456  0.00  0.00    +0.000 C 
ATOM      2  C   UNL     1       5.821   3.630  12.590  0.00  0.00    +0.000 A 
ATOM      3  C   UNL     1       7.156   4.036  12.576  0.00  0.00    +0.000 A 
ATOM      4  C   UNL     1       7.676   4.789  13.635  0.00  0.00    +0.000 A 
ATOM      5  C   UNL     1       6.900   5.147  14.727  0.00  0.00    +0.000 A 
ATOM      6  N   UNL     1       7.454   5.854  15.726  0.00  0.00    +0.000 NA
ATOM      7  C   UNL     1       6.666   6.157  16.772  0.00  0.00    +0.000 A 
ATOM      8  C   UNL     1       5.335   5.815  16.909  0.00  0.00    +0.000 A 
ATOM      9  C   UNL     1       4.777   5.076  15.864  0.00  0.00    +0.000 A 
ATOM     10  C   UNL     1       5.552   4.733  14.746  0.00  0.00    +0.000 A 
ATOM     11  C   UNL     1       5.019   3.992  13.678  0.00  0.00    +0.000 A 
ENDROOT
BRANCH   7  12
ATOM     12  O   UNL     1       7.324   6.843  17.738  0.00  0.00    +0.000 OA
ATOM     13  H   UNL     1       8.111   6.276  17.828  0.00  0.00    +0.000 HD
ENDBRANCH   7  12
BRANCH   8  14
ATOM     14  C   UNL     1       4.560   6.161  18.148  0.00  0.00    +0.000 C 
BRANCH  14  15
ATOM     15  O   UNL     1       5.049   5.454  19.295  0.00  0.00    +0.000 OA
BRANCH  15  16
ATOM     16  C   UNL     1       4.820   4.116  19.318  0.00  0.00    +0.000 C 
ATOM     17  O   UNL     1       5.641   3.236  19.115  0.00  0.00    +0.000 OA
BRANCH  16  18
ATOM     18  C   UNL     1       3.386   3.859  19.653  0.00  0.00    +0.000 A 
ATOM     19  C   UNL     1       2.767   2.720  19.146  0.00  0.00    +0.000 A 
ATOM     20  C   UNL     1       1.425   2.506  19.452  0.00  0.00    +0.000 A 
ATOM     21  C   UNL     1       0.751   3.426  20.248  0.00  0.00    +0.000 A 
ATOM     22  C   UNL     1       1.449   4.527  20.719  0.00  0.00    +0.000 A 
ATOM     23  N   UNL     1       2.747   4.764  20.445  0.00  0.00    +0.000 NA
ENDBRANCH  16  18
ENDBRANCH  15  16
ENDBRANCH  14  15
ENDBRANCH   8  14
TORSDOF 5
ENDMDL
MODEL 7
REMARK VINA RESULT:      -7.6      2.483      6.652
REMARK  Name = 
REMARK  6 active torsions:
REMARK  status: ('A' for Active; 'I' for Inactive)
REMARK    1  A    between atoms: C_1  and  C_2
REMARK    2  A    between atoms: C_7  and  O_8
REMARK    3  A    between atoms: C_9  and  C_10
REMARK    4  A    between atoms: C_10  and  O_11
REMARK    5  A    between atoms: O_11  and  C_12
REMARK    6  A    between atoms: C_12  and  C_14
REMARK                            x       y       z     vdW  Elec       q    Type
REMARK                         _______ _______ _______ _____ _____    ______ ____
ROOT
ATOM      1  C   UNL     1       1.421   8.262  20.763  0.00  0.00    +0.000 C 
ATOM      2  C   UNL     1       1.914   6.928  20.291  0.00  0.00    +0.000 A 
ATOM      3  C   UNL     1       1.765   5.786  21.078  0.00  0.00    +0.000 A 
ATOM      4  C   UNL     1       2.216   4.545  20.614  0.00  0.00    +0.000 A 
ATOM      5  C   UNL     1       2.826   4.405  19.377  0.00  0.00    +0.000 A 
ATOM      6  N   UNL     1       3.256   3.193  18.987  0.00  0.00    +0.000 NA
ATOM      7  C   UNL     1       3.862   3.115  17.789  0.00  0.00    +0.000 A 
ATOM      8  C   UNL     1       4.072   4.165  16.917  0.00  0.00    +0.000 A 
ATOM      9  C   UNL     1       3.623   5.417  17.341  0.00  0.00    +0.000 A 
ATOM     10  C   UNL     1       2.982   5.558  18.581  0.00  0.00    +0.000 A 
ATOM     11  C   UNL     1       2.517   6.804  19.034  0.00  0.00    +0.000 A 
ENDROOT
BRANCH   7  12
ATOM     12  O   UNL     1       4.286   1.860  17.502  0.00  0.00    +0.000 OA
ATOM     13  H   UNL     1       5.169   2.068  17.148  0.00  0.00    +0.000 HD
ENDBRANCH   7  12
BRANCH   8  14
ATOM     14  C   UNL     1       4.808   3.974  15.623  0.00  0.00    +0.000 C 
BRANCH  14  15
ATOM     15  O   UNL     1       6.198   3.698  15.838  0.00  0.00    +0.000 OA
BRANCH  15  16
ATOM     16  C   UNL     1       7.057   4.723  15.599  0.00  0.00    +0.000 C 
ATOM     17  O   UNL     1       7.485   5.070  14.511  0.00  0.00    +0.000 OA
BRANCH  16  18
ATOM     18  C   UNL     1       7.401   5.399  16.887  0.00  0.00    +0.000 A 
ATOM     19  C   UNL     1       7.449   6.789  16.928  0.00  0.00    +0.000 A 
ATOM     20  C   UNL     1       7.790   7.403  18.131  0.00  0.00    +0.000 A 
ATOM     21  C   UNL     1       8.067   6.617  19.244  0.00  0.00    +0.000 A 
ATOM     22  C   UNL     1       7.984   5.239  19.116  0.00  0.00    +0.000 A 
ATOM     23  N   UNL     1       7.656   4.613  17.969  0.00  0.00    +0.000 NA
ENDBRANCH  16  18
ENDBRANCH  15  16
ENDBRANCH  14  15
ENDBRANCH   8  14
TORSDOF 5
ENDMDL
MODEL 8
REMARK VINA RESULT:      -7.5      1.442      6.523
REMARK  Name = 
REMARK  6 active torsions:
REMARK  status: ('A' for Active; 'I' for Inactive)
REMARK    1  A    between atoms: C_1  and  C_2
REMARK    2  A    between atoms: C_7  and  O_8
REMARK    3  A    between atoms: C_9  and  C_10
REMARK    4  A    between atoms: C_10  and  O_11
REMARK    5  A    between atoms: O_11  and  C_12
REMARK    6  A    between atoms: C_12  and  C_14
REMARK                            x       y       z     vdW  Elec       q    Type
REMARK                         _______ _______ _______ _____ _____    ______ ____
ROOT
ATOM      1  C   UNL     1       1.764   2.248  21.467  0.00  0.00    +0.000 C 
ATOM      2  C   UNL     1       2.144   3.225  20.396  0.00  0.00    +0.000 A 
ATOM      3  C   UNL     1       1.210   3.660  19.455  0.00  0.00    +0.000 A 
ATOM      4  C   UNL     1       1.577   4.586  18.472  0.00  0.00    +0.000 A 
ATOM      5  C   UNL     1       2.864   5.093  18.390  0.00  0.00    +0.000 A 
ATOM      6  N   UNL     1       3.169   5.966  17.415  0.00  0.00    +0.000 NA
ATOM      7  C   UNL     1       4.436   6.411  17.366  0.00  0.00    +0.000 A 
ATOM      8  C   UNL     1       5.453   6.060  18.232  0.00  0.00    +0.000 A 
ATOM      9  C   UNL     1       5.120   5.148  19.236  0.00  0.00    +0.000 A 
ATOM     10  C   UNL     1       3.812   4.652  19.337  0.00  0.00    +0.000 A 
ATOM     11  C   UNL     1       3.445   3.735  20.337  0.00  0.00    +0.000 A 
ENDROOT
BRANCH   7  12
ATOM     12  O   UNL     1       4.649   7.261  16.331  0.00  0.00    +0.000 OA
ATOM     13  H   UNL     1       3.744   7.305  15.973  0.00  0.00    +0.000 HD
ENDBRANCH   7  12
BRANCH   8  14
ATOM     14  C   UNL     1       6.850   6.579  18.054  0.00  0.00    +0.000 C 
BRANCH  14  15
ATOM     15  O   UNL     1       7.357   6.298  16.742  0.00  0.00    +0.000 OA
BRANCH  15  16
ATOM     16  C   UNL     1       7.589   4.990  16.456  0.00  0.00    +0.000 C 
ATOM     17  O   UNL     1       8.036   4.151  17.219  0.00  0.00    +0.000 OA
BRANCH  16  18
ATOM     18  C   UNL     1       7.192   4.709  15.042  0.00  0.00    +0.000 A 
ATOM     19  C   UNL     1       6.148   3.822  14.799  0.00  0.00    +0.000 A 
ATOM     20  C   UNL     1       5.803   3.555  13.476  0.00  0.00    +0.000 A 
ATOM     21  C   UNL     1       6.504   4.178  12.448  0.00  0.00    +0.000 A 
ATOM     22  C   UNL     1       7.523   5.056  12.783  0.00  0.00    +0.000 A 
ATOM     23  N   UNL     1       7.881   5.339  14.051  0.00  0.00    +0.000 NA
ENDBRANCH  16  18
ENDBRANCH  15  16
ENDBRANCH  14  15
ENDBRANCH   8  14
TORSDOF 5
ENDMDL
MODEL 9
REMARK VINA RESULT:      -7.5      2.015      2.775
REMARK  Name = 
REMARK  6 active torsions:
REMARK  status: ('A' for Active; 'I' for Inactive)
REMARK    1  A    between atoms: C_1  and  C_2
REMARK    2  A    between atoms: C_7  and  O_8
REMARK    3  A    between atoms: C_9  and  C_10
REMARK    4  A    between atoms: C_10  and  O_11
REMARK    5  A    between atoms: O_11  and  C_12
REMARK    6  A    between atoms: C_12  and  C_14
REMARK                            x       y       z     vdW  Elec       q    Type
REMARK                         _______ _______ _______ _____ _____    ______ ____
ROOT
ATOM      1  C   UNL     1       5.038   2.763  11.344  0.00  0.00    +0.000 C 
ATOM      2  C   UNL     1       5.701   3.535  12.443  0.00  0.00    +0.000 A 
ATOM      3  C   UNL     1       6.966   4.096  12.267  0.00  0.00    +0.000 A 
ATOM      4  C   UNL     1       7.564   4.830  13.297  0.00  0.00    +0.000 A 
ATOM      5  C   UNL     1       6.935   5.019  14.519  0.00  0.00    +0.000 A 
ATOM      6  N   UNL     1       7.561   5.717  15.482  0.00  0.00    +0.000 NA
ATOM      7  C   UNL     1       6.920   5.852  16.655  0.00  0.00    +0.000 A 
ATOM      8  C   UNL     1       5.670   5.348  16.958  0.00  0.00    +0.000 A 
ATOM      9  C   UNL     1       5.037   4.621  15.948  0.00  0.00    +0.000 A 
ATOM     10  C   UNL     1       5.659   4.449  14.702  0.00  0.00    +0.000 A 
ATOM     11  C   UNL     1       5.046   3.726  13.665  0.00  0.00    +0.000 A 
ENDROOT
BRANCH   7  12
ATOM     12  O   UNL     1       7.645   6.543  17.568  0.00  0.00    +0.000 OA
ATOM     13  H   UNL     1       7.028   6.507  18.321  0.00  0.00    +0.000 HD
ENDBRANCH   7  12
BRANCH   8  14
ATOM     14  C   UNL     1       5.067   5.514  18.323  0.00  0.00    +0.000 C 
BRANCH  14  15
ATOM     15  O   UNL     1       3.635   5.463  18.280  0.00  0.00    +0.000 OA
BRANCH  15  16
ATOM     16  C   UNL     1       2.988   5.823  19.419  0.00  0.00    +0.000 C 
ATOM     17  O   UNL     1       2.917   5.171  20.448  0.00  0.00    +0.000 OA
BRANCH  16  18
ATOM     18  C   UNL     1       2.373   7.173  19.240  0.00  0.00    +0.000 A 
ATOM     19  C   UNL     1       2.458   7.795  17.998  0.00  0.00    +0.000 A 
ATOM     20  C   UNL     1       1.898   9.062  17.853  0.00  0.00    +0.000 A 
ATOM     21  C   UNL     1       1.274   9.661  18.942  0.00  0.00    +0.000 A 
ATOM     22  C   UNL     1       1.225   8.964  20.140  0.00  0.00    +0.000 A 
ATOM     23  N   UNL     1       1.755   7.738  20.314  0.00  0.00    +0.000 NA
ENDBRANCH  16  18
ENDBRANCH  15  16
ENDBRANCH  14  15
ENDBRANCH   8  14
TORSDOF 5
ENDMDL
