MODEL 1
REMARK VINA RESULT:      -8.2      0.000      0.000
REMARK  Name = 
REMARK  7 active torsions:
REMARK  status: ('A' for Active; 'I' for Inactive)
REMARK    1  A    between atoms: C_1  and  C_2
REMARK    2  A    between atoms: C_2  and  C_3
REMARK    3  A    between atoms: C_6  and  C_7
REMARK    4  A    between atoms: C_7  and  O_9
REMARK    5  A    between atoms: O_9  and  C_10
REMARK    6  A    between atoms: C_10  and  C_11
REMARK    7  A    between atoms: N_13  and  C_14
REMARK                            x       y       z     vdW  Elec       q    Type
REMARK                         _______ _______ _______ _____ _____    ______ ____
ROOT
ATOM      1  C   UNL     1       2.464   6.917  19.519  0.00  0.00    +0.000 A 
ATOM      2  C   UNL     1       2.395   7.874  18.513  0.00  0.00    +0.000 A 
ATOM      3  N   UNL     1       1.604   8.887  19.026  0.00  0.00    +0.000 N 
ATOM      4  N   UNL     1       1.179   8.512  20.266  0.00  0.00    +0.000 NA
ATOM      5  N   UNL     1       1.696   7.332  20.569  0.00  0.00    +0.000 NA
ENDROOT
BRANCH   3   6
ATOM      6  C   UNL     1       0.981   9.996  18.363  0.00  0.00    +0.000 A 
ATOM      7  C   UNL     1       1.812  11.105  18.369  0.00  0.00    +0.000 A 
ATOM      8  C   UNL     1       1.326  12.170  19.086  0.00  0.00    +0.000 A 
ATOM      9  N   UNL     1       0.068  12.245  19.570  0.00  0.00    +0.000 NA
ATOM     10  C   UNL     1      -0.811  11.376  19.081  0.00  0.00    +0.000 A 
ATOM     11  C   UNL     1      -2.141  11.745  19.120  0.00  0.00    +0.000 A 
ATOM     12  C   UNL     1      -3.030  11.217  18.195  0.00  0.00    +0.000 A 
ATOM     13 CL   UNL     1      -4.611  11.888  18.064  0.00  0.00    +0.000 Cl
ATOM     14  C   UNL     1      -2.605  10.241  17.299  0.00  0.00    +0.000 A 
ATOM     15  C   UNL     1      -1.312   9.704  17.419  0.00  0.00    +0.000 A 
ATOM     16  C   UNL     1      -0.400  10.246  18.368  0.00  0.00    +0.000 A 
ENDBRANCH   3   6
BRANCH   1  17
ATOM     17  C   UNL     1       3.159   5.589  19.600  0.00  0.00    +0.000 C 
BRANCH  17  18
ATOM     18  O   UNL     1       4.587   5.650  19.350  0.00  0.00    +0.000 OA
BRANCH  18  19
ATOM     19  C   UNL     1       5.115   4.487  18.891  0.00  0.00    +0.000 C 
ATOM     20  O   UNL     1       5.218   3.462  19.551  0.00  0.00    +0.000 OA
BRANCH  19  24
ATOM     21  C   UNL     1       6.358   4.420  14.774  0.00  0.00    +0.000 A 
ATOM     22  C   UNL     1       5.035   4.197  15.139  0.00  0.00    +0.000 A 
ATOM     23  C   UNL     1       4.654   4.254  16.483  0.00  0.00    +0.000 A 
ATOM     24  C   UNL     1       5.589   4.558  17.485  0.00  0.00    +0.000 A 
ATOM     25  C   UNL     1       6.911   4.830  17.118  0.00  0.00    +0.000 A 
ATOM     26  C   UNL     1       7.290   4.761  15.767  0.00  0.00    +0.000 A 
BRANCH  21  28
ATOM     27  C   UNL     1       7.899   5.219  12.925  0.00  0.00    +0.000 C 
ATOM     28  C   UNL     1       6.774   4.277  13.326  0.00  0.00    +0.000 C 
ENDBRANCH  21  28
ENDBRANCH  19  24
ENDBRANCH  18  19
ENDBRANCH  17  18
ENDBRANCH   1  17
TORSDOF 6
ENDMDL
MODEL 2
REMARK VINA RESULT:      -8.2      6.720      9.454
REMARK  Name = 
REMARK  7 active torsions:
REMARK  status: ('A' for Active; 'I' for Inactive)
REMARK    1  A    between atoms: C_1  and  C_2
REMARK    2  A    between atoms: C_2  and  C_3
REMARK    3  A    between atoms: C_6  and  C_7
REMARK    4  A    between atoms: C_7  and  O_9
REMARK    5  A    between atoms: O_9  and  C_10
REMARK    6  A    between atoms: C_10  and  C_11
REMARK    7  A    between atoms: N_13  and  C_14
REMARK                            x       y       z     vdW  Elec       q    Type
REMARK                         _______ _______ _______ _____ _____    ______ ____
ROOT
ATOM      1  C   UNL     1       8.322   8.486  18.352  0.00  0.00    +0.000 A 
ATOM      2  C   UNL     1       8.235   7.146  18.711  0.00  0.00    +0.000 A 
ATOM      3  N   UNL     1       7.446   6.557  17.739  0.00  0.00    +0.000 N 
ATOM      4  N   UNL     1       7.040   7.527  16.872  0.00  0.00    +0.000 NA
ATOM      5  N   UNL     1       7.566   8.686  17.232  0.00  0.00    +0.000 NA
ENDROOT
BRANCH   3   6
ATOM      6  C   UNL     1       6.808   5.272  17.723  0.00  0.00    +0.000 A 
ATOM      7  C   UNL     1       7.340   4.471  16.724  0.00  0.00    +0.000 A 
ATOM      8  C   UNL     1       6.450   4.140  15.732  0.00  0.00    +0.000 A 
ATOM      9  N   UNL     1       5.122   4.373  15.799  0.00  0.00    +0.000 NA
ATOM     10  C   UNL     1       4.629   4.672  16.997  0.00  0.00    +0.000 A 
ATOM     11  C   UNL     1       3.296   4.388  17.212  0.00  0.00    +0.000 A 
ATOM     12  C   UNL     1       2.843   4.143  18.500  0.00  0.00    +0.000 A 
ATOM     13 CL   UNL     1       1.257   3.513  18.733  0.00  0.00    +0.000 Cl
ATOM     14  C   UNL     1       3.707   4.286  19.582  0.00  0.00    +0.000 A 
ATOM     15  C   UNL     1       4.998   4.801  19.376  0.00  0.00    +0.000 A 
ATOM     16  C   UNL     1       5.463   5.052  18.054  0.00  0.00    +0.000 A 
ENDBRANCH   3   6
BRANCH   1  17
ATOM     17  C   UNL     1       9.024   9.653  18.980  0.00  0.00    +0.000 C 
BRANCH  17  18
ATOM     18  O   UNL     1       9.377  10.707  18.046  0.00  0.00    +0.000 OA
BRANCH  18  19
ATOM     19  C   UNL     1      10.394  11.499  18.471  0.00  0.00    +0.000 C 
ATOM     20  O   UNL     1      11.357  11.108  19.117  0.00  0.00    +0.000 OA
BRANCH  19  24
ATOM     21  C   UNL     1      10.229  15.680  17.474  0.00  0.00    +0.000 A 
ATOM     22  C   UNL     1      11.249  14.859  17.006  0.00  0.00    +0.000 A 
ATOM     23  C   UNL     1      11.261  13.498  17.321  0.00  0.00    +0.000 A 
ATOM     24  C   UNL     1      10.237  12.928  18.095  0.00  0.00    +0.000 A 
ATOM     25  C   UNL     1       9.184  13.740  18.528  0.00  0.00    +0.000 A 
ATOM     26  C   UNL     1       9.183  15.110  18.216  0.00  0.00    +0.000 A 
BRANCH  21  28
ATOM     27  C   UNL     1      11.629  17.795  17.458  0.00  0.00    +0.000 C 
ATOM     28  C   UNL     1      10.270  17.167  17.192  0.00  0.00    +0.000 C 
ENDBRANCH  21  28
ENDBRANCH  19  24
ENDBRANCH  18  19
ENDBRANCH  17  18
ENDBRANCH   1  17
TORSDOF 6
ENDMDL
MODEL 3
REMARK VINA RESULT:      -8.2      6.863      8.872
REMARK  Name = 
REMARK  7 active torsions:
REMARK  status: ('A' for Active; 'I' for Inactive)
REMARK    1  A    between atoms: C_1  and  C_2
REMARK    2  A    between atoms: C_2  and  C_3
REMARK    3  A    between atoms: C_6  and  C_7
REMARK    4  A    between atoms: C_7  and  O_9
REMARK    5  A    between atoms: O_9  and  C_10
REMARK    6  A    between atoms: C_10  and  C_11
REMARK    7  A    between atoms: N_13  and  C_14
REMARK                            x       y       z     vdW  Elec       q    Type
REMARK                         _______ _______ _______ _____ _____    ______ ____
ROOT
ATOM      1  C   UNL     1       7.919   8.271  17.981  0.00  0.00    +0.000 A 
ATOM      2  C   UNL     1       8.863   8.674  18.918  0.00  0.00    +0.000 A 
ATOM      3  N   UNL     1       8.942  10.049  18.789  0.00  0.00    +0.000 N 
ATOM      4  N   UNL     1       8.115  10.432  17.775  0.00  0.00    +0.000 NA
ATOM      5  N   UNL     1       7.495   9.370  17.289  0.00  0.00    +0.000 NA
ENDROOT
BRANCH   3   6
ATOM      6  C   UNL     1       9.917  10.969  19.301  0.00  0.00    +0.000 A 
ATOM      7  C   UNL     1       9.774  11.125  20.672  0.00  0.00    +0.000 A 
ATOM      8  C   UNL     1       9.410  12.390  21.061  0.00  0.00    +0.000 A 
ATOM      9  N   UNL     1       9.394  13.460  20.238  0.00  0.00    +0.000 NA
ATOM     10  C   UNL     1      10.034  13.329  19.079  0.00  0.00    +0.000 A 
ATOM     11  C   UNL     1      10.495  14.488  18.487  0.00  0.00    +0.000 A 
ATOM     12  C   UNL     1      11.588  14.438  17.635  0.00  0.00    +0.000 A 
ATOM     13 CL   UNL     1      12.333  15.906  17.129  0.00  0.00    +0.000 Cl
ATOM     14  C   UNL     1      12.152  13.212  17.296  0.00  0.00    +0.000 A 
ATOM     15  C   UNL     1      11.533  12.023  17.717  0.00  0.00    +0.000 A 
ATOM     16  C   UNL     1      10.411  12.074  18.592  0.00  0.00    +0.000 A 
ENDBRANCH   3   6
BRANCH   1  17
ATOM     17  C   UNL     1       7.375   6.920  17.616  0.00  0.00    +0.000 C 
BRANCH  17  18
ATOM     18  O   UNL     1       5.929   6.823  17.688  0.00  0.00    +0.000 OA
BRANCH  18  19
ATOM     19  C   UNL     1       5.375   6.122  16.666  0.00  0.00    +0.000 C 
ATOM     20  O   UNL     1       5.726   6.202  15.497  0.00  0.00    +0.000 OA
BRANCH  19  24
ATOM     21  C   UNL     1       2.189   3.651  18.166  0.00  0.00    +0.000 A 
ATOM     22  C   UNL     1       2.235   5.016  18.424  0.00  0.00    +0.000 A 
ATOM     23  C   UNL     1       3.266   5.801  17.898  0.00  0.00    +0.000 A 
ATOM     24  C   UNL     1       4.261   5.233  17.086  0.00  0.00    +0.000 A 
ATOM     25  C   UNL     1       4.193   3.869  16.785  0.00  0.00    +0.000 A 
ATOM     26  C   UNL     1       3.159   3.084  17.324  0.00  0.00    +0.000 A 
BRANCH  21  28
ATOM     27  C   UNL     1       0.749   3.244  20.214  0.00  0.00    +0.000 C 
ATOM     28  C   UNL     1       1.114   2.799  18.805  0.00  0.00    +0.000 C 
ENDBRANCH  21  28
ENDBRANCH  19  24
ENDBRANCH  18  19
ENDBRANCH  17  18
ENDBRANCH   1  17
TORSDOF 6
ENDMDL
MODEL 4
REMARK VINA RESULT:      -8.0      6.472      8.607
REMARK  Name = 
REMARK  7 active torsions:
REMARK  status: ('A' for Active; 'I' for Inactive)
REMARK    1  A    between atoms: C_1  and  C_2
REMARK    2  A    between atoms: C_2  and  C_3
REMARK    3  A    between atoms: C_6  and  C_7
REMARK    4  A    between atoms: C_7  and  O_9
REMARK    5  A    between atoms: O_9  and  C_10
REMARK    6  A    between atoms: C_10  and  C_11
REMARK    7  A    between atoms: N_13  and  C_14
REMARK                            x       y       z     vdW  Elec       q    Type
REMARK                         _______ _______ _______ _____ _____    ______ ____
ROOT
ATOM      1  C   UNL     1       7.838   7.771  17.911  0.00  0.00    +0.000 A 
ATOM      2  C   UNL     1       8.750   8.263  18.837  0.00  0.00    +0.000 A 
ATOM      3  N   UNL     1       8.719   9.638  18.687  0.00  0.00    +0.000 N 
ATOM      4  N   UNL     1       7.859   9.938  17.672  0.00  0.00    +0.000 NA
ATOM      5  N   UNL     1       7.325   8.822  17.205  0.00  0.00    +0.000 NA
ENDROOT
BRANCH   3   6
ATOM      6  C   UNL     1       9.618  10.641  19.181  0.00  0.00    +0.000 A 
ATOM      7  C   UNL     1       9.488  10.787  20.553  0.00  0.00    +0.000 A 
ATOM      8  C   UNL     1       9.022  12.017  20.947  0.00  0.00    +0.000 A 
ATOM      9  N   UNL     1       8.898  13.078  20.124  0.00  0.00    +0.000 NA
ATOM     10  C   UNL     1       9.526  13.001  18.954  0.00  0.00    +0.000 A 
ATOM     11  C   UNL     1       9.874  14.194  18.353  0.00  0.00    +0.000 A 
ATOM     12  C   UNL     1      10.952  14.237  17.481  0.00  0.00    +0.000 A 
ATOM     13 CL   UNL     1      11.556  15.764  16.960  0.00  0.00    +0.000 Cl
ATOM     14  C   UNL     1      11.614  13.064  17.133  0.00  0.00    +0.000 A 
ATOM     15  C   UNL     1      11.108  11.827  17.566  0.00  0.00    +0.000 A 
ATOM     16  C   UNL     1      10.002  11.782  18.461  0.00  0.00    +0.000 A 
ENDBRANCH   3   6
BRANCH   1  17
ATOM     17  C   UNL     1       7.403   6.376  17.569  0.00  0.00    +0.000 C 
BRANCH  17  18
ATOM     18  O   UNL     1       6.686   6.269  16.311  0.00  0.00    +0.000 OA
BRANCH  18  19
ATOM     19  C   UNL     1       5.754   5.283  16.292  0.00  0.00    +0.000 C 
ATOM     20  O   UNL     1       5.684   4.409  15.439  0.00  0.00    +0.000 OA
BRANCH  19  24
ATOM     21  C   UNL     1       2.834   5.222  19.449  0.00  0.00    +0.000 A 
ATOM     22  C   UNL     1       3.696   4.153  19.234  0.00  0.00    +0.000 A 
ATOM     23  C   UNL     1       4.655   4.212  18.220  0.00  0.00    +0.000 A 
ATOM     24  C   UNL     1       4.783   5.356  17.414  0.00  0.00    +0.000 A 
ATOM     25  C   UNL     1       3.949   6.452  17.657  0.00  0.00    +0.000 A 
ATOM     26  C   UNL     1       2.981   6.382  18.672  0.00  0.00    +0.000 A 
BRANCH  21  28
ATOM     27  C   UNL     1       1.705   3.760  21.187  0.00  0.00    +0.000 C 
ATOM     28  C   UNL     1       1.747   5.115  20.498  0.00  0.00    +0.000 C 
ENDBRANCH  21  28
ENDBRANCH  19  24
ENDBRANCH  18  19
ENDBRANCH  17  18
ENDBRANCH   1  17
TORSDOF 6
ENDMDL
MODEL 5
REMARK VINA RESULT:      -7.9      0.865      1.341
REMARK  Name = 
REMARK  7 active torsions:
REMARK  status: ('A' for Active; 'I' for Inactive)
REMARK    1  A    between atoms: C_1  and  C_2
REMARK    2  A    between atoms: C_2  and  C_3
REMARK    3  A    between atoms: C_6  and  C_7
REMARK    4  A    between atoms: C_7  and  O_9
REMARK    5  A    between atoms: O_9  and  C_10
REMARK    6  A    between atoms: C_10  and  C_11
REMARK    7  A    between atoms: N_13  and  C_14
REMARK                            x       y       z     vdW  Elec       q    Type
REMARK                         _______ _______ _______ _____ _____    ______ ____
ROOT
ATOM      1  C   UNL     1       2.058   7.632  19.697  0.00  0.00    +0.000 A 
ATOM      2  C   UNL     1       1.868   8.519  18.645  0.00  0.00    +0.000 A 
ATOM      3  N   UNL     1       1.090   9.539  19.163  0.00  0.00    +0.000 N 
ATOM      4  N   UNL     1       0.788   9.233  20.457  0.00  0.00    +0.000 NA
ATOM      5  N   UNL     1       1.371   8.091  20.784  0.00  0.00    +0.000 NA
ENDROOT
BRANCH   3   6
ATOM      6  C   UNL     1       0.371  10.584  18.491  0.00  0.00    +0.000 A 
ATOM      7  C   UNL     1       0.990  11.809  18.683  0.00  0.00    +0.000 A 
ATOM      8  C   UNL     1       0.240  12.715  19.392  0.00  0.00    +0.000 A 
ATOM      9  N   UNL     1      -1.062  12.542  19.701  0.00  0.00    +0.000 NA
ATOM     10  C   UNL     1      -1.709  11.586  19.041  0.00  0.00    +0.000 A 
ATOM     11  C   UNL     1      -3.077  11.728  18.919  0.00  0.00    +0.000 A 
ATOM     12  C   UNL     1      -3.737  11.143  17.849  0.00  0.00    +0.000 A 
ATOM     13 CL   UNL     1      -5.381  11.555  17.543  0.00  0.00    +0.000 Cl
ATOM     14  C   UNL     1      -3.040  10.330  16.960  0.00  0.00    +0.000 A 
ATOM     15  C   UNL     1      -1.700  10.003  17.224  0.00  0.00    +0.000 A 
ATOM     16  C   UNL     1      -1.021  10.603  18.322  0.00  0.00    +0.000 A 
ENDBRANCH   3   6
BRANCH   1  17
ATOM     17  C   UNL     1       2.805   6.334  19.797  0.00  0.00    +0.000 C 
BRANCH  17  18
ATOM     18  O   UNL     1       3.356   5.867  18.538  0.00  0.00    +0.000 OA
BRANCH  18  19
ATOM     19  C   UNL     1       4.635   5.420  18.632  0.00  0.00    +0.000 C 
ATOM     20  O   UNL     1       5.279   5.368  19.670  0.00  0.00    +0.000 OA
BRANCH  19  24
ATOM     21  C   UNL     1       6.356   4.503  14.798  0.00  0.00    +0.000 A 
ATOM     22  C   UNL     1       6.978   5.372  15.686  0.00  0.00    +0.000 A 
ATOM     23  C   UNL     1       6.411   5.629  16.938  0.00  0.00    +0.000 A 
ATOM     24  C   UNL     1       5.218   5.001  17.331  0.00  0.00    +0.000 A 
ATOM     25  C   UNL     1       4.614   4.089  16.460  0.00  0.00    +0.000 A 
ATOM     26  C   UNL     1       5.184   3.842  15.200  0.00  0.00    +0.000 A 
BRANCH  21  28
ATOM     27  C   UNL     1       6.047   3.462  12.505  0.00  0.00    +0.000 C 
ATOM     28  C   UNL     1       6.937   4.294  13.416  0.00  0.00    +0.000 C 
ENDBRANCH  21  28
ENDBRANCH  19  24
ENDBRANCH  18  19
ENDBRANCH  17  18
ENDBRANCH   1  17
TORSDOF 6
ENDMDL
MODEL 6
REMARK VINA RESULT:      -7.8      6.561      9.582
REMARK  Name = 
REMARK  7 active torsions:
REMARK  status: ('A' for Active; 'I' for Inactive)
REMARK    1  A    between atoms: C_1  and  C_2
REMARK    2  A    between atoms: C_2  and  C_3
REMARK    3  A    between atoms: C_6  and  C_7
REMARK    4  A    between atoms: C_7  and  O_9
REMARK    5  A    between atoms: O_9  and  C_10
REMARK    6  A    between atoms: C_10  and  C_11
REMARK    7  A    between atoms: N_13  and  C_14
REMARK                            x       y       z     vdW  Elec       q    Type
REMARK                         _______ _______ _______ _____ _____    ______ ____
ROOT
ATOM      1  C   UNL     1       8.241   8.270  18.310  0.00  0.00    +0.000 A 
ATOM      2  C   UNL     1       8.165   6.917  18.621  0.00  0.00    +0.000 A 
ATOM      3  N   UNL     1       7.369   6.360  17.635  0.00  0.00    +0.000 N 
ATOM      4  N   UNL     1       6.949   7.359  16.808  0.00  0.00    +0.000 NA
ATOM      5  N   UNL     1       7.472   8.507  17.206  0.00  0.00    +0.000 NA
ENDROOT
BRANCH   3   6
ATOM      6  C   UNL     1       6.738   5.072  17.577  0.00  0.00    +0.000 A 
ATOM      7  C   UNL     1       7.216   4.338  16.503  0.00  0.00    +0.000 A 
ATOM      8  C   UNL     1       6.272   4.060  15.545  0.00  0.00    +0.000 A 
ATOM      9  N   UNL     1       4.949   4.276  15.701  0.00  0.00    +0.000 NA
ATOM     10  C   UNL     1       4.525   4.499  16.942  0.00  0.00    +0.000 A 
ATOM     11  C   UNL     1       3.207   4.191  17.215  0.00  0.00    +0.000 A 
ATOM     12  C   UNL     1       2.830   3.865  18.509  0.00  0.00    +0.000 A 
ATOM     13 CL   UNL     1       1.263   3.209  18.793  0.00  0.00    +0.000 Cl
ATOM     14  C   UNL     1       3.753   3.950  19.546  0.00  0.00    +0.000 A 
ATOM     15  C   UNL     1       5.028   4.488  19.299  0.00  0.00    +0.000 A 
ATOM     16  C   UNL     1       5.415   4.822  17.970  0.00  0.00    +0.000 A 
ENDBRANCH   3   6
BRANCH   1  17
ATOM     17  C   UNL     1       8.943   9.417  18.974  0.00  0.00    +0.000 C 
BRANCH  17  18
ATOM     18  O   UNL     1       8.772  10.690  18.299  0.00  0.00    +0.000 OA
BRANCH  18  19
ATOM     19  C   UNL     1       9.877  11.478  18.323  0.00  0.00    +0.000 C 
ATOM     20  O   UNL     1      10.821  11.375  17.552  0.00  0.00    +0.000 OA
BRANCH  19  24
ATOM     21  C   UNL     1      10.120  14.498  21.376  0.00  0.00    +0.000 A 
ATOM     22  C   UNL     1      10.465  14.767  20.057  0.00  0.00    +0.000 A 
ATOM     23  C   UNL     1      10.347  13.775  19.080  0.00  0.00    +0.000 A 
ATOM     24  C   UNL     1       9.861  12.498  19.404  0.00  0.00    +0.000 A 
ATOM     25  C   UNL     1       9.469  12.237  20.720  0.00  0.00    +0.000 A 
ATOM     26  C   UNL     1       9.598  13.236  21.700  0.00  0.00    +0.000 A 
BRANCH  21  28
ATOM     27  C   UNL     1      11.190  16.718  21.975  0.00  0.00    +0.000 C 
ATOM     28  C   UNL     1      10.327  15.555  22.440  0.00  0.00    +0.000 C 
ENDBRANCH  21  28
ENDBRANCH  19  24
ENDBRANCH  18  19
ENDBRANCH  17  18
ENDBRANCH   1  17
TORSDOF 6
ENDMDL
MODEL 7
REMARK VINA RESULT:      -7.8      1.681      2.343
REMARK  Name = 
REMARK  7 active torsions:
REMARK  status: ('A' for Active; 'I' for Inactive)
REMARK    1  A    between atoms: C_1  and  C_2
REMARK    2  A    between atoms: C_2  and  C_3
REMARK    3  A    between atoms: C_6  and  C_7
REMARK    4  A    between atoms: C_7  and  O_9
REMARK    5  A    between atoms: O_9  and  C_10
REMARK    6  A    between atoms: C_10  and  C_11
REMARK    7  A    between atoms: N_13  and  C_14
REMARK                            x       y       z     vdW  Elec       q    Type
REMARK                         _______ _______ _______ _____ _____    ______ ____
ROOT
ATOM      1  C   UNL     1       1.112   8.783  20.154  0.00  0.00    +0.000 A 
ATOM      2  C   UNL     1       0.842   9.693  19.139  0.00  0.00    +0.000 A 
ATOM      3  N   UNL     1      -0.068  10.584  19.679  0.00  0.00    +0.000 N 
ATOM      4  N   UNL     1      -0.363  10.180  20.947  0.00  0.00    +0.000 NA
ATOM      5  N   UNL     1       0.346   9.102  21.239  0.00  0.00    +0.000 NA
ENDROOT
BRANCH   3   6
ATOM      6  C   UNL     1      -0.891  11.567  19.034  0.00  0.00    +0.000 A 
ATOM      7  C   UNL     1      -0.474  12.849  19.360  0.00  0.00    +0.000 A 
ATOM      8  C   UNL     1      -1.393  13.575  20.075  0.00  0.00    +0.000 A 
ATOM      9  N   UNL     1      -2.672  13.192  20.274  0.00  0.00    +0.000 NA
ATOM     10  C   UNL     1      -3.127  12.211  19.500  0.00  0.00    +0.000 A 
ATOM     11  C   UNL     1      -4.490  12.165  19.289  0.00  0.00    +0.000 A 
ATOM     12  C   UNL     1      -4.988  11.582  18.133  0.00  0.00    +0.000 A 
ATOM     13 CL   UNL     1      -6.653  11.778  17.737  0.00  0.00    +0.000 Cl
ATOM     14  C   UNL     1      -4.124  10.954  17.241  0.00  0.00    +0.000 A 
ATOM     15  C   UNL     1      -2.769  10.802  17.578  0.00  0.00    +0.000 A 
ATOM     16  C   UNL     1      -2.257  11.400  18.764  0.00  0.00    +0.000 A 
ENDBRANCH   3   6
BRANCH   1  17
ATOM     17  C   UNL     1       2.007   7.581  20.217  0.00  0.00    +0.000 C 
BRANCH  17  18
ATOM     18  O   UNL     1       2.272   6.969  18.928  0.00  0.00    +0.000 OA
BRANCH  18  19
ATOM     19  C   UNL     1       3.091   5.888  18.991  0.00  0.00    +0.000 C 
ATOM     20  O   UNL     1       3.195   5.150  19.961  0.00  0.00    +0.000 OA
BRANCH  19  24
ATOM     21  C   UNL     1       5.580   5.062  15.582  0.00  0.00    +0.000 A 
ATOM     22  C   UNL     1       4.987   4.041  16.315  0.00  0.00    +0.000 A 
ATOM     23  C   UNL     1       4.158   4.339  17.400  0.00  0.00    +0.000 A 
ATOM     24  C   UNL     1       3.892   5.671  17.758  0.00  0.00    +0.000 A 
ATOM     25  C   UNL     1       4.449   6.702  16.995  0.00  0.00    +0.000 A 
ATOM     26  C   UNL     1       5.288   6.395  15.911  0.00  0.00    +0.000 A 
BRANCH  21  28
ATOM     27  C   UNL     1       5.945   3.785  13.421  0.00  0.00    +0.000 C 
ATOM     28  C   UNL     1       6.538   4.725  14.459  0.00  0.00    +0.000 C 
ENDBRANCH  21  28
ENDBRANCH  19  24
ENDBRANCH  18  19
ENDBRANCH  17  18
ENDBRANCH   1  17
TORSDOF 6
ENDMDL
MODEL 8
REMARK VINA RESULT:      -7.8      5.937      9.151
REMARK  Name = 
REMARK  7 active torsions:
REMARK  status: ('A' for Active; 'I' for Inactive)
REMARK    1  A    between atoms: C_1  and  C_2
REMARK    2  A    between atoms: C_2  and  C_3
REMARK    3  A    between atoms: C_6  and  C_7
REMARK    4  A    between atoms: C_7  and  O_9
REMARK    5  A    between atoms: O_9  and  C_10
REMARK    6  A    between atoms: C_10  and  C_11
REMARK    7  A    between atoms: N_13  and  C_14
REMARK                            x       y       z     vdW  Elec       q    Type
REMARK                         _______ _______ _______ _____ _____    ______ ____
ROOT
ATOM      1  C   UNL     1       8.239   8.431  18.283  0.00  0.00    +0.000 A 
ATOM      2  C   UNL     1       8.198   7.083  18.619  0.00  0.00    +0.000 A 
ATOM      3  N   UNL     1       7.346   6.502  17.696  0.00  0.00    +0.000 N 
ATOM      4  N   UNL     1       6.862   7.484  16.883  0.00  0.00    +0.000 NA
ATOM      5  N   UNL     1       7.398   8.643  17.228  0.00  0.00    +0.000 NA
ENDROOT
BRANCH   3   6
ATOM      6  C   UNL     1       6.726   5.208  17.700  0.00  0.00    +0.000 A 
ATOM      7  C   UNL     1       7.270   4.399  16.715  0.00  0.00    +0.000 A 
ATOM      8  C   UNL     1       6.385   4.040  15.728  0.00  0.00    +0.000 A 
ATOM      9  N   UNL     1       5.055   4.255  15.789  0.00  0.00    +0.000 NA
ATOM     10  C   UNL     1       4.556   4.568  16.982  0.00  0.00    +0.000 A 
ATOM     11  C   UNL     1       3.226   4.269  17.200  0.00  0.00    +0.000 A 
ATOM     12  C   UNL     1       2.775   4.038  18.491  0.00  0.00    +0.000 A 
ATOM     13 CL   UNL     1       1.197   3.391  18.732  0.00  0.00    +0.000 Cl
ATOM     14  C   UNL     1       3.635   4.211  19.571  0.00  0.00    +0.000 A 
ATOM     15  C   UNL     1       4.919   4.740  19.358  0.00  0.00    +0.000 A 
ATOM     16  C   UNL     1       5.383   4.976  18.033  0.00  0.00    +0.000 A 
ENDBRANCH   3   6
BRANCH   1  17
ATOM     17  C   UNL     1       8.972   9.596  18.882  0.00  0.00    +0.000 C 
BRANCH  17  18
ATOM     18  O   UNL     1       9.552  10.499  17.904  0.00  0.00    +0.000 OA
BRANCH  18  19
ATOM     19  C   UNL     1      10.035  11.649  18.439  0.00  0.00    +0.000 C 
ATOM     20  O   UNL     1      11.201  11.828  18.766  0.00  0.00    +0.000 OA
BRANCH  19  24
ATOM     21  C   UNL     1       7.136  14.816  18.688  0.00  0.00    +0.000 A 
ATOM     22  C   UNL     1       7.213  13.985  17.576  0.00  0.00    +0.000 A 
ATOM     23  C   UNL     1       8.145  12.944  17.535  0.00  0.00    +0.000 A 
ATOM     24  C   UNL     1       9.005  12.705  18.619  0.00  0.00    +0.000 A 
ATOM     25  C   UNL     1       8.900  13.508  19.758  0.00  0.00    +0.000 A 
ATOM     26  C   UNL     1       7.967  14.558  19.790  0.00  0.00    +0.000 A 
BRANCH  21  28
ATOM     27  C   UNL     1       6.384  16.937  19.858  0.00  0.00    +0.000 C 
ATOM     28  C   UNL     1       6.177  15.988  18.688  0.00  0.00    +0.000 C 
ENDBRANCH  21  28
ENDBRANCH  19  24
ENDBRANCH  18  19
ENDBRANCH  17  18
ENDBRANCH   1  17
TORSDOF 6
ENDMDL
MODEL 9
REMARK VINA RESULT:      -7.8      6.404      9.528
REMARK  Name = 
REMARK  7 active torsions:
REMARK  status: ('A' for Active; 'I' for Inactive)
REMARK    1  A    between atoms: C_1  and  C_2
REMARK    2  A    between atoms: C_2  and  C_3
REMARK    3  A    between atoms: C_6  and  C_7
REMARK    4  A    between atoms: C_7  and  O_9
REMARK    5  A    between atoms: O_9  and  C_10
REMARK    6  A    between atoms: C_10  and  C_11
REMARK    7  A    between atoms: N_13  and  C_14
REMARK                            x       y       z     vdW  Elec       q    Type
REMARK                         _______ _______ _______ _____ _____    ______ ____
ROOT
ATOM      1  C   UNL     1       7.897   7.980  18.062  0.00  0.00    +0.000 A 
ATOM      2  C   UNL     1       6.951   7.193  17.416  0.00  0.00    +0.000 A 
ATOM      3  N   UNL     1       6.983   5.973  18.069  0.00  0.00    +0.000 N 
ATOM      4  N   UNL     1       7.951   6.026  19.028  0.00  0.00    +0.000 NA
ATOM      5  N   UNL     1       8.500   7.229  19.030  0.00  0.00    +0.000 NA
ENDROOT
BRANCH   3   6
ATOM      6  C   UNL     1       6.424   4.708  17.688  0.00  0.00    +0.000 A 
ATOM      7  C   UNL     1       6.873   4.328  16.433  0.00  0.00    +0.000 A 
ATOM      8  C   UNL     1       5.887   4.253  15.480  0.00  0.00    +0.000 A 
ATOM      9  N   UNL     1       4.567   4.322  15.750  0.00  0.00    +0.000 NA
ATOM     10  C   UNL     1       4.210   4.169  17.022  0.00  0.00    +0.000 A 
ATOM     11  C   UNL     1       2.932   3.704  17.260  0.00  0.00    +0.000 A 
ATOM     12  C   UNL     1       2.658   3.013  18.431  0.00  0.00    +0.000 A 
ATOM     13 CL   UNL     1       1.152   2.193  18.595  0.00  0.00    +0.000 Cl
ATOM     14  C   UNL     1       3.640   2.881  19.408  0.00  0.00    +0.000 A 
ATOM     15  C   UNL     1       4.863   3.556  19.260  0.00  0.00    +0.000 A 
ATOM     16  C   UNL     1       5.145   4.265  18.058  0.00  0.00    +0.000 A 
ENDBRANCH   3   6
BRANCH   1  17
ATOM     17  C   UNL     1       8.347   9.395  17.844  0.00  0.00    +0.000 C 
BRANCH  17  18
ATOM     18  O   UNL     1       9.101   9.955  18.951  0.00  0.00    +0.000 OA
BRANCH  18  19
ATOM     19  C   UNL     1       9.783  11.085  18.634  0.00  0.00    +0.000 C 
ATOM     20  O   UNL     1      10.412  11.251  17.597  0.00  0.00    +0.000 OA
BRANCH  19  24
ATOM     21  C   UNL     1       9.895  14.192  21.607  0.00  0.00    +0.000 A 
ATOM     22  C   UNL     1      10.300  14.422  20.297  0.00  0.00    +0.000 A 
ATOM     23  C   UNL     1      10.224  13.402  19.344  0.00  0.00    +0.000 A 
ATOM     24  C   UNL     1       9.720  12.136  19.683  0.00  0.00    +0.000 A 
ATOM     25  C   UNL     1       9.268  11.913  20.987  0.00  0.00    +0.000 A 
ATOM     26  C   UNL     1       9.356  12.940  21.942  0.00  0.00    +0.000 A 
BRANCH  21  28
ATOM     27  C   UNL     1       8.797  16.109  22.854  0.00  0.00    +0.000 C 
ATOM     28  C   UNL     1      10.056  15.279  22.647  0.00  0.00    +0.000 C 
ENDBRANCH  21  28
ENDBRANCH  19  24
ENDBRANCH  18  19
ENDBRANCH  17  18
ENDBRANCH   1  17
TORSDOF 6
ENDMDL
