MODEL 1
REMARK VINA RESULT:      -9.2      0.000      0.000
REMARK  Name = 
REMARK  3 active torsions:
REMARK  status: ('A' for Active; 'I' for Inactive)
REMARK    1  A    between atoms: C_4  and  N_5
REMARK    2  A    between atoms: C_13  and  C_14
REMARK    3  A    between atoms: C_18  and  C_19
REMARK                            x       y       z     vdW  Elec       q    Type
REMARK                         _______ _______ _______ _____ _____    ______ ____
ROOT
ATOM      1  O   UNL     1       4.808   1.575  19.959  0.00  0.00    +0.000 OA
ATOM      2  C   UNL     1       4.624   2.765  19.730  0.00  0.00    +0.000 A 
ATOM      3  C   UNL     1       5.650   3.569  19.050  0.00  0.00    +0.000 A 
ATOM      4  C   UNL     1       5.467   4.885  18.876  0.00  0.00    +0.000 A 
ATOM      5  O   UNL     1       4.327   5.530  19.335  0.00  0.00    +0.000 OA
ATOM      6  C   UNL     1       3.250   4.803  19.796  0.00  0.00    +0.000 A 
ATOM      7  C   UNL     1       2.032   5.479  20.026  0.00  0.00    +0.000 A 
ATOM      8  C   UNL     1       0.978   4.726  20.600  0.00  0.00    +0.000 A 
ATOM      9  C   UNL     1       1.122   3.372  20.916  0.00  0.00    +0.000 A 
ATOM     10  C   UNL     1       2.315   2.722  20.635  0.00  0.00    +0.000 A 
ATOM     11  C   UNL     1       3.370   3.441  20.072  0.00  0.00    +0.000 A 
ENDROOT
BRANCH   4  12
ATOM     12  N   UNL     1       6.378   5.707  18.214  0.00  0.00    +0.000 N 
ATOM     13  C   UNL     1       7.781   5.865  18.657  0.00  0.00    +0.000 C 
ATOM     14  C   UNL     1       8.208   7.337  18.558  0.00  0.00    +0.000 C 
ATOM     15  O   UNL     1       7.991   7.873  17.242  0.00  0.00    +0.000 OA
ATOM     16  C   UNL     1       6.606   7.756  16.880  0.00  0.00    +0.000 C 
ATOM     17  C   UNL     1       6.153   6.290  16.877  0.00  0.00    +0.000 C 
ENDBRANCH   4  12
BRANCH   7  18
ATOM     18  C   UNL     1       1.828   6.910  19.682  0.00  0.00    +0.000 A 
ATOM     19  C   UNL     1       2.261   7.450  18.461  0.00  0.00    +0.000 A 
ATOM     20  C   UNL     1       2.103   8.800  18.161  0.00  0.00    +0.000 A 
ATOM     21  C   UNL     1       1.457   9.639  19.068  0.00  0.00    +0.000 A 
ATOM     22  C   UNL     1       0.976   9.153  20.293  0.00  0.00    +0.000 A 
ATOM     23  C   UNL     1       1.185   7.790  20.576  0.00  0.00    +0.000 A 
BRANCH  22  24
ATOM     24  C   UNL     1       0.305  10.042  21.269  0.00  0.00    +0.000 A 
ATOM     25  C   UNL     1       0.207  11.426  21.063  0.00  0.00    +0.000 A 
ATOM     26  C   UNL     1      -0.468  12.206  21.990  0.00  0.00    +0.000 A 
ATOM     27  N   UNL     1      -1.037  11.718  23.109  0.00  0.00    +0.000 NA
ATOM     28  C   UNL     1      -0.926  10.390  23.307  0.00  0.00    +0.000 A 
ATOM     29  C   UNL     1      -0.280   9.530  22.433  0.00  0.00    +0.000 A 
ENDBRANCH  22  24
ENDBRANCH   7  18
TORSDOF 3
ENDMDL
MODEL 2
REMARK VINA RESULT:      -9.1      1.455      1.812
REMARK  Name = 
REMARK  3 active torsions:
REMARK  status: ('A' for Active; 'I' for Inactive)
REMARK    1  A    between atoms: C_4  and  N_5
REMARK    2  A    between atoms: C_13  and  C_14
REMARK    3  A    between atoms: C_18  and  C_19
REMARK                            x       y       z     vdW  Elec       q    Type
REMARK                         _______ _______ _______ _____ _____    ______ ____
ROOT
ATOM      1  O   UNL     1       3.706   0.764  18.669  0.00  0.00    +0.000 OA
ATOM      2  C   UNL     1       3.676   1.979  18.508  0.00  0.00    +0.000 A 
ATOM      3  C   UNL     1       4.521   2.624  17.493  0.00  0.00    +0.000 A 
ATOM      4  C   UNL     1       4.536   3.960  17.382  0.00  0.00    +0.000 A 
ATOM      5  O   UNL     1       3.778   4.770  18.215  0.00  0.00    +0.000 OA
ATOM      6  C   UNL     1       2.822   4.221  19.044  0.00  0.00    +0.000 A 
ATOM      7  C   UNL     1       1.915   5.088  19.691  0.00  0.00    +0.000 A 
ATOM      8  C   UNL     1       1.017   4.503  20.617  0.00  0.00    +0.000 A 
ATOM      9  C   UNL     1       1.009   3.129  20.875  0.00  0.00    +0.000 A 
ATOM     10  C   UNL     1       1.880   2.295  20.189  0.00  0.00    +0.000 A 
ATOM     11  C   UNL     1       2.777   2.846  19.273  0.00  0.00    +0.000 A 
ENDROOT
BRANCH   4  12
ATOM     12  N   UNL     1       5.286   4.644  16.425  0.00  0.00    +0.000 N 
ATOM     13  C   UNL     1       5.324   4.241  15.002  0.00  0.00    +0.000 C 
ATOM     14  C   UNL     1       6.756   4.344  14.458  0.00  0.00    +0.000 C 
ATOM     15  O   UNL     1       7.321   5.650  14.668  0.00  0.00    +0.000 OA
ATOM     16  C   UNL     1       7.321   5.971  16.068  0.00  0.00    +0.000 C 
ATOM     17  C   UNL     1       5.898   5.970  16.640  0.00  0.00    +0.000 C 
ENDBRANCH   4  12
BRANCH   7  18
ATOM     18  C   UNL     1       1.871   6.550  19.428  0.00  0.00    +0.000 A 
ATOM     19  C   UNL     1       2.418   7.112  18.263  0.00  0.00    +0.000 A 
ATOM     20  C   UNL     1       2.409   8.486  18.041  0.00  0.00    +0.000 A 
ATOM     21  C   UNL     1       1.805   9.333  18.968  0.00  0.00    +0.000 A 
ATOM     22  C   UNL     1       1.216   8.830  20.138  0.00  0.00    +0.000 A 
ATOM     23  C   UNL     1       1.274   7.438  20.345  0.00  0.00    +0.000 A 
BRANCH  22  24
ATOM     24  C   UNL     1       0.588   9.724  21.136  0.00  0.00    +0.000 A 
ATOM     25  C   UNL     1       0.413  11.095  20.895  0.00  0.00    +0.000 A 
ATOM     26  C   UNL     1      -0.218  11.880  21.848  0.00  0.00    +0.000 A 
ATOM     27  N   UNL     1      -0.673  11.409  23.025  0.00  0.00    +0.000 NA
ATOM     28  C   UNL     1      -0.489  10.095  23.257  0.00  0.00    +0.000 A 
ATOM     29  C   UNL     1       0.122   9.231  22.361  0.00  0.00    +0.000 A 
ENDBRANCH  22  24
ENDBRANCH   7  18
TORSDOF 3
ENDMDL
MODEL 3
REMARK VINA RESULT:      -8.5      3.649      8.047
REMARK  Name = 
REMARK  3 active torsions:
REMARK  status: ('A' for Active; 'I' for Inactive)
REMARK    1  A    between atoms: C_4  and  N_5
REMARK    2  A    between atoms: C_13  and  C_14
REMARK    3  A    between atoms: C_18  and  C_19
REMARK                            x       y       z     vdW  Elec       q    Type
REMARK                         _______ _______ _______ _____ _____    ______ ____
ROOT
ATOM      1  O   UNL     1      -1.101  13.494  23.200  0.00  0.00    +0.000 OA
ATOM      2  C   UNL     1      -0.498  12.947  22.283  0.00  0.00    +0.000 A 
ATOM      3  C   UNL     1       0.202  13.740  21.263  0.00  0.00    +0.000 A 
ATOM      4  C   UNL     1       0.790  13.131  20.224  0.00  0.00    +0.000 A 
ATOM      5  O   UNL     1       0.749  11.753  20.068  0.00  0.00    +0.000 OA
ATOM      6  C   UNL     1       0.286  10.947  21.087  0.00  0.00    +0.000 A 
ATOM      7  C   UNL     1       0.483   9.553  20.984  0.00  0.00    +0.000 A 
ATOM      8  C   UNL     1      -0.098   8.746  21.992  0.00  0.00    +0.000 A 
ATOM      9  C   UNL     1      -0.824   9.295  23.054  0.00  0.00    +0.000 A 
ATOM     10  C   UNL     1      -0.961  10.672  23.155  0.00  0.00    +0.000 A 
ATOM     11  C   UNL     1      -0.400  11.489  22.173  0.00  0.00    +0.000 A 
ENDROOT
BRANCH   4  12
ATOM     12  N   UNL     1       1.499  13.812  19.234  0.00  0.00    +0.000 N 
ATOM     13  C   UNL     1       2.575  13.176  18.442  0.00  0.00    +0.000 C 
ATOM     14  C   UNL     1       3.753  14.146  18.269  0.00  0.00    +0.000 C 
ATOM     15  O   UNL     1       3.337  15.405  17.711  0.00  0.00    +0.000 OA
ATOM     16  C   UNL     1       2.340  16.014  18.545  0.00  0.00    +0.000 C 
ATOM     17  C   UNL     1       1.101  15.119  18.676  0.00  0.00    +0.000 C 
ENDBRANCH   4  12
BRANCH   7  18
ATOM     18  C   UNL     1       1.269   8.930  19.887  0.00  0.00    +0.000 A 
ATOM     19  C   UNL     1       1.431   9.556  18.641  0.00  0.00    +0.000 A 
ATOM     20  C   UNL     1       2.134   8.948  17.604  0.00  0.00    +0.000 A 
ATOM     21  C   UNL     1       2.738   7.709  17.810  0.00  0.00    +0.000 A 
ATOM     22  C   UNL     1       2.636   7.046  19.042  0.00  0.00    +0.000 A 
ATOM     23  C   UNL     1       1.888   7.674  20.056  0.00  0.00    +0.000 A 
BRANCH  22  24
ATOM     24  C   UNL     1       3.258   5.721  19.263  0.00  0.00    +0.000 A 
ATOM     25  C   UNL     1       2.625   4.723  20.019  0.00  0.00    +0.000 A 
ATOM     26  C   UNL     1       3.235   3.485  20.160  0.00  0.00    +0.000 A 
ATOM     27  N   UNL     1       4.429   3.172  19.621  0.00  0.00    +0.000 NA
ATOM     28  C   UNL     1       5.038   4.139  18.909  0.00  0.00    +0.000 A 
ATOM     29  C   UNL     1       4.503   5.402  18.705  0.00  0.00    +0.000 A 
ENDBRANCH  22  24
ENDBRANCH   7  18
TORSDOF 3
ENDMDL
MODEL 4
REMARK VINA RESULT:      -8.5      1.276      1.572
REMARK  Name = 
REMARK  3 active torsions:
REMARK  status: ('A' for Active; 'I' for Inactive)
REMARK    1  A    between atoms: C_4  and  N_5
REMARK    2  A    between atoms: C_13  and  C_14
REMARK    3  A    between atoms: C_18  and  C_19
REMARK                            x       y       z     vdW  Elec       q    Type
REMARK                         _______ _______ _______ _____ _____    ______ ____
ROOT
ATOM      1  O   UNL     1       4.615   1.104  19.850  0.00  0.00    +0.000 OA
ATOM      2  C   UNL     1       4.420   2.268  19.517  0.00  0.00    +0.000 A 
ATOM      3  C   UNL     1       5.207   2.885  18.441  0.00  0.00    +0.000 A 
ATOM      4  C   UNL     1       5.036   4.181  18.141  0.00  0.00    +0.000 A 
ATOM      5  O   UNL     1       4.135   4.977  18.834  0.00  0.00    +0.000 OA
ATOM      6  C   UNL     1       3.233   4.412  19.711  0.00  0.00    +0.000 A 
ATOM      7  C   UNL     1       2.185   5.217  20.209  0.00  0.00    +0.000 A 
ATOM      8  C   UNL     1       1.341   4.639  21.188  0.00  0.00    +0.000 A 
ATOM      9  C   UNL     1       1.518   3.327  21.638  0.00  0.00    +0.000 A 
ATOM     10  C   UNL     1       2.527   2.544  21.096  0.00  0.00    +0.000 A 
ATOM     11  C   UNL     1       3.375   3.090  20.132  0.00  0.00    +0.000 A 
ENDROOT
BRANCH   4  12
ATOM     12  N   UNL     1       5.721   4.829  17.114  0.00  0.00    +0.000 N 
ATOM     13  C   UNL     1       5.367   6.189  16.651  0.00  0.00    +0.000 C 
ATOM     14  C   UNL     1       5.430   6.263  15.119  0.00  0.00    +0.000 C 
ATOM     15  O   UNL     1       6.703   5.831  14.610  0.00  0.00    +0.000 OA
ATOM     16  C   UNL     1       6.976   4.486  15.032  0.00  0.00    +0.000 C 
ATOM     17  C   UNL     1       7.013   4.378  16.562  0.00  0.00    +0.000 C 
ENDBRANCH   4  12
BRANCH   7  18
ATOM     18  C   UNL     1       1.945   6.607  19.740  0.00  0.00    +0.000 A 
ATOM     19  C   UNL     1       2.275   7.019  18.439  0.00  0.00    +0.000 A 
ATOM     20  C   UNL     1       2.084   8.333  18.019  0.00  0.00    +0.000 A 
ATOM     21  C   UNL     1       1.509   9.260  18.885  0.00  0.00    +0.000 A 
ATOM     22  C   UNL     1       1.131   8.902  20.188  0.00  0.00    +0.000 A 
ATOM     23  C   UNL     1       1.371   7.573  20.590  0.00  0.00    +0.000 A 
BRANCH  22  24
ATOM     24  C   UNL     1       0.537   9.885  21.121  0.00  0.00    +0.000 A 
ATOM     25  C   UNL     1       0.551  11.262  20.852  0.00  0.00    +0.000 A 
ATOM     26  C   UNL     1      -0.057  12.136  21.741  0.00  0.00    +0.000 A 
ATOM     27  N   UNL     1      -0.663  11.747  22.880  0.00  0.00    +0.000 NA
ATOM     28  C   UNL     1      -0.660  10.426  23.139  0.00  0.00    +0.000 A 
ATOM     29  C   UNL     1      -0.087   9.477  22.307  0.00  0.00    +0.000 A 
ENDBRANCH  22  24
ENDBRANCH   7  18
TORSDOF 3
ENDMDL
MODEL 5
REMARK VINA RESULT:      -7.9      5.354     10.314
REMARK  Name = 
REMARK  3 active torsions:
REMARK  status: ('A' for Active; 'I' for Inactive)
REMARK    1  A    between atoms: C_4  and  N_5
REMARK    2  A    between atoms: C_13  and  C_14
REMARK    3  A    between atoms: C_18  and  C_19
REMARK                            x       y       z     vdW  Elec       q    Type
REMARK                         _______ _______ _______ _____ _____    ______ ____
ROOT
ATOM      1  O   UNL     1      -6.724  12.481  17.281  0.00  0.00    +0.000 OA
ATOM      2  C   UNL     1      -5.729  12.322  17.979  0.00  0.00    +0.000 A 
ATOM      3  C   UNL     1      -5.729  12.727  19.392  0.00  0.00    +0.000 A 
ATOM      4  C   UNL     1      -4.609  12.619  20.122  0.00  0.00    +0.000 A 
ATOM      5  O   UNL     1      -3.426  12.143  19.576  0.00  0.00    +0.000 OA
ATOM      6  C   UNL     1      -3.415  11.566  18.324  0.00  0.00    +0.000 A 
ATOM      7  C   UNL     1      -2.251  10.883  17.908  0.00  0.00    +0.000 A 
ATOM      8  C   UNL     1      -2.234  10.395  16.579  0.00  0.00    +0.000 A 
ATOM      9  C   UNL     1      -3.319  10.562  15.714  0.00  0.00    +0.000 A 
ATOM     10  C   UNL     1      -4.468  11.195  16.165  0.00  0.00    +0.000 A 
ATOM     11  C   UNL     1      -4.510  11.688  17.470  0.00  0.00    +0.000 A 
ENDROOT
BRANCH   4  12
ATOM     12  N   UNL     1      -4.538  12.952  21.474  0.00  0.00    +0.000 N 
ATOM     13  C   UNL     1      -3.261  13.001  22.219  0.00  0.00    +0.000 C 
ATOM     14  C   UNL     1      -3.434  12.379  23.613  0.00  0.00    +0.000 C 
ATOM     15  O   UNL     1      -4.513  12.986  24.344  0.00  0.00    +0.000 OA
ATOM     16  C   UNL     1      -5.742  12.859  23.613  0.00  0.00    +0.000 C 
ATOM     17  C   UNL     1      -5.649  13.546  22.244  0.00  0.00    +0.000 C 
ENDBRANCH   4  12
BRANCH   7  18
ATOM     18  C   UNL     1      -1.085  10.661  18.803  0.00  0.00    +0.000 A 
ATOM     19  C   UNL     1      -0.857  11.456  19.937  0.00  0.00    +0.000 A 
ATOM     20  C   UNL     1       0.259  11.268  20.748  0.00  0.00    +0.000 A 
ATOM     21  C   UNL     1       1.155  10.239  20.465  0.00  0.00    +0.000 A 
ATOM     22  C   UNL     1       0.966   9.392  19.362  0.00  0.00    +0.000 A 
ATOM     23  C   UNL     1      -0.155   9.634  18.545  0.00  0.00    +0.000 A 
BRANCH  22  24
ATOM     24  C   UNL     1       1.922   8.308  19.045  0.00  0.00    +0.000 A 
ATOM     25  C   UNL     1       2.099   7.206  19.894  0.00  0.00    +0.000 A 
ATOM     26  C   UNL     1       2.979   6.198  19.528  0.00  0.00    +0.000 A 
ATOM     27  N   UNL     1       3.705   6.211  18.393  0.00  0.00    +0.000 NA
ATOM     28  C   UNL     1       3.541   7.280  17.590  0.00  0.00    +0.000 A 
ATOM     29  C   UNL     1       2.679   8.330  17.866  0.00  0.00    +0.000 A 
ENDBRANCH  22  24
ENDBRANCH   7  18
TORSDOF 3
ENDMDL
MODEL 6
REMARK VINA RESULT:      -7.9      5.281     10.266
REMARK  Name = 
REMARK  3 active torsions:
REMARK  status: ('A' for Active; 'I' for Inactive)
REMARK    1  A    between atoms: C_4  and  N_5
REMARK    2  A    between atoms: C_13  and  C_14
REMARK    3  A    between atoms: C_18  and  C_19
REMARK                            x       y       z     vdW  Elec       q    Type
REMARK                         _______ _______ _______ _____ _____    ______ ____
ROOT
ATOM      1  O   UNL     1      -7.191  12.585  20.834  0.00  0.00    +0.000 OA
ATOM      2  C   UNL     1      -5.965  12.616  20.816  0.00  0.00    +0.000 A 
ATOM      3  C   UNL     1      -5.205  13.026  22.004  0.00  0.00    +0.000 A 
ATOM      4  C   UNL     1      -3.870  13.130  21.946  0.00  0.00    +0.000 A 
ATOM      5  O   UNL     1      -3.169  12.870  20.777  0.00  0.00    +0.000 OA
ATOM      6  C   UNL     1      -3.801  12.292  19.696  0.00  0.00    +0.000 A 
ATOM      7  C   UNL     1      -3.008  11.828  18.623  0.00  0.00    +0.000 A 
ATOM      8  C   UNL     1      -3.694  11.338  17.484  0.00  0.00    +0.000 A 
ATOM      9  C   UNL     1      -5.089  11.298  17.419  0.00  0.00    +0.000 A 
ATOM     10  C   UNL     1      -5.842  11.717  18.507  0.00  0.00    +0.000 A 
ATOM     11  C   UNL     1      -5.192  12.207  19.640  0.00  0.00    +0.000 A 
ENDROOT
BRANCH   4  12
ATOM     12  N   UNL     1      -3.077  13.483  23.038  0.00  0.00    +0.000 N 
ATOM     13  C   UNL     1      -3.632  13.694  24.393  0.00  0.00    +0.000 C 
ATOM     14  C   UNL     1      -2.981  14.921  25.049  0.00  0.00    +0.000 C 
ATOM     15  O   UNL     1      -1.546  14.829  25.057  0.00  0.00    +0.000 OA
ATOM     16  C   UNL     1      -1.049  14.688  23.717  0.00  0.00    +0.000 C 
ATOM     17  C   UNL     1      -1.603  13.424  23.048  0.00  0.00    +0.000 C 
ENDBRANCH   4  12
BRANCH   7  18
ATOM     18  C   UNL     1      -1.523  11.828  18.661  0.00  0.00    +0.000 A 
ATOM     19  C   UNL     1      -0.777  13.012  18.551  0.00  0.00    +0.000 A 
ATOM     20  C   UNL     1       0.615  13.001  18.547  0.00  0.00    +0.000 A 
ATOM     21  C   UNL     1       1.298  11.797  18.701  0.00  0.00    +0.000 A 
ATOM     22  C   UNL     1       0.609  10.583  18.843  0.00  0.00    +0.000 A 
ATOM     23  C   UNL     1      -0.798  10.628  18.808  0.00  0.00    +0.000 A 
BRANCH  22  24
ATOM     24  C   UNL     1       1.328   9.297  18.989  0.00  0.00    +0.000 A 
ATOM     25  C   UNL     1       1.341   8.590  20.201  0.00  0.00    +0.000 A 
ATOM     26  C   UNL     1       1.996   7.369  20.270  0.00  0.00    +0.000 A 
ATOM     27  N   UNL     1       2.648   6.808  19.234  0.00  0.00    +0.000 NA
ATOM     28  C   UNL     1       2.644   7.499  18.078  0.00  0.00    +0.000 A 
ATOM     29  C   UNL     1       2.010   8.720  17.910  0.00  0.00    +0.000 A 
ENDBRANCH  22  24
ENDBRANCH   7  18
TORSDOF 3
ENDMDL
MODEL 7
REMARK VINA RESULT:      -7.9      2.832      7.672
REMARK  Name = 
REMARK  3 active torsions:
REMARK  status: ('A' for Active; 'I' for Inactive)
REMARK    1  A    between atoms: C_4  and  N_5
REMARK    2  A    between atoms: C_13  and  C_14
REMARK    3  A    between atoms: C_18  and  C_19
REMARK                            x       y       z     vdW  Elec       q    Type
REMARK                         _______ _______ _______ _____ _____    ______ ____
ROOT
ATOM      1  O   UNL     1       1.007   3.284  21.802  0.00  0.00    +0.000 OA
ATOM      2  C   UNL     1       1.720   3.948  21.059  0.00  0.00    +0.000 A 
ATOM      3  C   UNL     1       1.439   5.371  20.818  0.00  0.00    +0.000 A 
ATOM      4  C   UNL     1       2.181   6.064  19.942  0.00  0.00    +0.000 A 
ATOM      5  O   UNL     1       3.215   5.471  19.233  0.00  0.00    +0.000 OA
ATOM      6  C   UNL     1       3.652   4.204  19.560  0.00  0.00    +0.000 A 
ATOM      7  C   UNL     1       4.852   3.736  18.981  0.00  0.00    +0.000 A 
ATOM      8  C   UNL     1       5.215   2.395  19.254  0.00  0.00    +0.000 A 
ATOM      9  C   UNL     1       4.438   1.567  20.069  0.00  0.00    +0.000 A 
ATOM     10  C   UNL     1       3.289   2.069  20.663  0.00  0.00    +0.000 A 
ATOM     11  C   UNL     1       2.907   3.386  20.409  0.00  0.00    +0.000 A 
ENDROOT
BRANCH   4  12
ATOM     12  N   UNL     1       1.996   7.422  19.683  0.00  0.00    +0.000 N 
ATOM     13  C   UNL     1       1.549   8.379  20.718  0.00  0.00    +0.000 C 
ATOM     14  C   UNL     1       0.516   9.353  20.131  0.00  0.00    +0.000 C 
ATOM     15  O   UNL     1       1.009  10.016  18.955  0.00  0.00    +0.000 OA
ATOM     16  C   UNL     1       1.372   9.051  17.955  0.00  0.00    +0.000 C 
ATOM     17  C   UNL     1       2.469   8.107  18.465  0.00  0.00    +0.000 C 
ENDBRANCH   4  12
BRANCH   7  18
ATOM     18  C   UNL     1       5.721   4.589  18.129  0.00  0.00    +0.000 A 
ATOM     19  C   UNL     1       6.415   5.694  18.648  0.00  0.00    +0.000 A 
ATOM     20  C   UNL     1       7.195   6.513  17.837  0.00  0.00    +0.000 A 
ATOM     21  C   UNL     1       7.339   6.212  16.483  0.00  0.00    +0.000 A 
ATOM     22  C   UNL     1       6.694   5.105  15.912  0.00  0.00    +0.000 A 
ATOM     23  C   UNL     1       5.885   4.320  16.756  0.00  0.00    +0.000 A 
BRANCH  22  24
ATOM     24  C   UNL     1       6.826   4.790  14.472  0.00  0.00    +0.000 A 
ATOM     25  C   UNL     1       7.764   5.439  13.655  0.00  0.00    +0.000 A 
ATOM     26  C   UNL     1       7.873   5.076  12.321  0.00  0.00    +0.000 A 
ATOM     27  N   UNL     1       7.113   4.130  11.737  0.00  0.00    +0.000 NA
ATOM     28  C   UNL     1       6.205   3.521  12.523  0.00  0.00    +0.000 A 
ATOM     29  C   UNL     1       6.029   3.809  13.867  0.00  0.00    +0.000 A 
ENDBRANCH  22  24
ENDBRANCH   7  18
TORSDOF 3
ENDMDL
MODEL 8
REMARK VINA RESULT:      -7.7      7.415     10.466
REMARK  Name = 
REMARK  3 active torsions:
REMARK  status: ('A' for Active; 'I' for Inactive)
REMARK    1  A    between atoms: C_4  and  N_5
REMARK    2  A    between atoms: C_13  and  C_14
REMARK    3  A    between atoms: C_18  and  C_19
REMARK                            x       y       z     vdW  Elec       q    Type
REMARK                         _______ _______ _______ _____ _____    ______ ____
ROOT
ATOM      1  O   UNL     1      -6.947  11.537  18.335  0.00  0.00    +0.000 OA
ATOM      2  C   UNL     1      -5.860  11.813  18.830  0.00  0.00    +0.000 A 
ATOM      3  C   UNL     1      -5.768  12.336  20.200  0.00  0.00    +0.000 A 
ATOM      4  C   UNL     1      -4.580  12.707  20.700  0.00  0.00    +0.000 A 
ATOM      5  O   UNL     1      -3.416  12.625  19.950  0.00  0.00    +0.000 OA
ATOM      6  C   UNL     1      -3.407  11.961  18.741  0.00  0.00    +0.000 A 
ATOM      7  C   UNL     1      -2.163  11.694  18.129  0.00  0.00    +0.000 A 
ATOM      8  C   UNL     1      -2.195  11.108  16.840  0.00  0.00    +0.000 A 
ATOM      9  C   UNL     1      -3.396  10.790  16.199  0.00  0.00    +0.000 A 
ATOM     10  C   UNL     1      -4.602  11.021  16.844  0.00  0.00    +0.000 A 
ATOM     11  C   UNL     1      -4.599  11.600  18.114  0.00  0.00    +0.000 A 
ENDROOT
BRANCH   4  12
ATOM     12  N   UNL     1      -4.407  13.182  21.999  0.00  0.00    +0.000 N 
ATOM     13  C   UNL     1      -3.352  14.153  22.361  0.00  0.00    +0.000 C 
ATOM     14  C   UNL     1      -2.706  13.764  23.699  0.00  0.00    +0.000 C 
ATOM     15  O   UNL     1      -3.682  13.608  24.743  0.00  0.00    +0.000 OA
ATOM     16  C   UNL     1      -4.648  12.612  24.375  0.00  0.00    +0.000 C 
ATOM     17  C   UNL     1      -5.387  13.000  23.088  0.00  0.00    +0.000 C 
ENDBRANCH   4  12
BRANCH   7  18
ATOM     18  C   UNL     1      -0.863  11.991  18.785  0.00  0.00    +0.000 A 
ATOM     19  C   UNL     1      -0.322  11.156  19.775  0.00  0.00    +0.000 A 
ATOM     20  C   UNL     1       0.876  11.462  20.414  0.00  0.00    +0.000 A 
ATOM     21  C   UNL     1       1.591  12.597  20.038  0.00  0.00    +0.000 A 
ATOM     22  C   UNL     1       1.117  13.456  19.035  0.00  0.00    +0.000 A 
ATOM     23  C   UNL     1      -0.116  13.134  18.435  0.00  0.00    +0.000 A 
BRANCH  22  24
ATOM     24  C   UNL     1       1.861  14.674  18.642  0.00  0.00    +0.000 A 
ATOM     25  C   UNL     1       1.367  15.960  18.907  0.00  0.00    +0.000 A 
ATOM     26  C   UNL     1       2.125  17.067  18.554  0.00  0.00    +0.000 A 
ATOM     27  N   UNL     1       3.325  16.992  17.946  0.00  0.00    +0.000 NA
ATOM     28  C   UNL     1       3.786  15.755  17.681  0.00  0.00    +0.000 A 
ATOM     29  C   UNL     1       3.105  14.591  18.005  0.00  0.00    +0.000 A 
ENDBRANCH  22  24
ENDBRANCH   7  18
TORSDOF 3
ENDMDL
MODEL 9
REMARK VINA RESULT:      -7.7      5.266     10.112
REMARK  Name = 
REMARK  3 active torsions:
REMARK  status: ('A' for Active; 'I' for Inactive)
REMARK    1  A    between atoms: C_4  and  N_5
REMARK    2  A    between atoms: C_13  and  C_14
REMARK    3  A    between atoms: C_18  and  C_19
REMARK                            x       y       z     vdW  Elec       q    Type
REMARK                         _______ _______ _______ _____ _____    ______ ____
ROOT
ATOM      1  O   UNL     1      -7.027  12.209  18.411  0.00  0.00    +0.000 OA
ATOM      2  C   UNL     1      -5.862  12.210  18.792  0.00  0.00    +0.000 A 
ATOM      3  C   UNL     1      -5.521  12.580  20.172  0.00  0.00    +0.000 A 
ATOM      4  C   UNL     1      -4.237  12.651  20.552  0.00  0.00    +0.000 A 
ATOM      5  O   UNL     1      -3.200  12.395  19.666  0.00  0.00    +0.000 OA
ATOM      6  C   UNL     1      -3.457  11.852  18.425  0.00  0.00    +0.000 A 
ATOM      7  C   UNL     1      -2.368  11.387  17.656  0.00  0.00    +0.000 A 
ATOM      8  C   UNL     1      -2.656  10.935  16.344  0.00  0.00    +0.000 A 
ATOM      9  C   UNL     1      -3.956  10.931  15.830  0.00  0.00    +0.000 A 
ATOM     10  C   UNL     1      -5.012  11.350  16.626  0.00  0.00    +0.000 A 
ATOM     11  C   UNL     1      -4.756  11.802  17.920  0.00  0.00    +0.000 A 
ENDROOT
BRANCH   4  12
ATOM     12  N   UNL     1      -3.835  12.965  21.850  0.00  0.00    +0.000 N 
ATOM     13  C   UNL     1      -4.648  13.804  22.757  0.00  0.00    +0.000 C 
ATOM     14  C   UNL     1      -3.748  14.784  23.525  0.00  0.00    +0.000 C 
ATOM     15  O   UNL     1      -2.683  14.109  24.216  0.00  0.00    +0.000 OA
ATOM     16  C   UNL     1      -1.885  13.358  23.289  0.00  0.00    +0.000 C 
ATOM     17  C   UNL     1      -2.723  12.302  22.559  0.00  0.00    +0.000 C 
ENDBRANCH   4  12
BRANCH   7  18
ATOM     18  C   UNL     1      -0.975  11.350  18.172  0.00  0.00    +0.000 A 
ATOM     19  C   UNL     1      -0.305  12.512  18.586  0.00  0.00    +0.000 A 
ATOM     20  C   UNL     1       1.013  12.476  19.031  0.00  0.00    +0.000 A 
ATOM     21  C   UNL     1       1.682  11.256  19.117  0.00  0.00    +0.000 A 
ATOM     22  C   UNL     1       1.056  10.056  18.745  0.00  0.00    +0.000 A 
ATOM     23  C   UNL     1      -0.266  10.136  18.267  0.00  0.00    +0.000 A 
BRANCH  22  24
ATOM     24  C   UNL     1       1.765   8.759  18.815  0.00  0.00    +0.000 A 
ATOM     25  C   UNL     1       2.581   8.303  17.769  0.00  0.00    +0.000 A 
ATOM     26  C   UNL     1       3.255   7.098  17.905  0.00  0.00    +0.000 A 
ATOM     27  N   UNL     1       3.166   6.308  18.992  0.00  0.00    +0.000 NA
ATOM     28  C   UNL     1       2.370   6.744  19.986  0.00  0.00    +0.000 A 
ATOM     29  C   UNL     1       1.665   7.937  19.945  0.00  0.00    +0.000 A 
ENDBRANCH  22  24
ENDBRANCH   7  18
TORSDOF 3
ENDMDL
