MODEL 1
REMARK VINA RESULT:      -7.9      0.000      0.000
REMARK  Name = 
REMARK  9 active torsions:
REMARK  status: ('A' for Active; 'I' for Inactive)
REMARK    1  A    between atoms: C_1  and  N_2
REMARK    2  A    between atoms: C_5  and  C_6
REMARK    3  A    between atoms: C_13  and  C_14
REMARK    4  A    between atoms: C_14  and  S_15
REMARK    5  A    between atoms: S_15  and  C_17
REMARK    6  A    between atoms: C_17  and  C_18
REMARK    7  A    between atoms: C_18  and  O_19
REMARK    8  A    between atoms: O_19  and  C_20
REMARK    9  A    between atoms: C_20  and  C_22
REMARK                            x       y       z     vdW  Elec       q    Type
REMARK                         _______ _______ _______ _____ _____    ______ ____
ROOT
ATOM      1  C   UNL     1       3.702   1.383  18.232  0.00  0.00    +0.000 C 
ATOM      2  N   UNL     1       3.404   2.811  18.261  0.00  0.00    +0.000 NA
ATOM      3  C   UNL     1       1.964   3.064  18.241  0.00  0.00    +0.000 C 
ATOM      4  C   UNL     1       1.701   4.564  18.125  0.00  0.00    +0.000 C 
ATOM      5  C   UNL     1       2.444   5.373  19.211  0.00  0.00    +0.000 C 
ATOM      6  C   UNL     1       3.956   4.987  19.276  0.00  0.00    +0.000 C 
ATOM      7  C   UNL     1       4.027   3.453  19.424  0.00  0.00    +0.000 C 
ENDROOT
BRANCH   5   8
ATOM      8  C   UNL     1       2.156   6.872  19.151  0.00  0.00    +0.000 A 
ATOM      9  C   UNL     1       1.725   7.537  20.312  0.00  0.00    +0.000 A 
ATOM     10  C   UNL     1       1.351   8.883  20.271  0.00  0.00    +0.000 A 
ATOM     11  C   UNL     1       1.408   9.585  19.070  0.00  0.00    +0.000 A 
ATOM     12 CL   UNL     1       0.900  11.227  19.007  0.00  0.00    +0.000 Cl
ATOM     13  C   UNL     1       1.867   8.958  17.917  0.00  0.00    +0.000 A 
ATOM     14  C   UNL     1       2.246   7.613  17.961  0.00  0.00    +0.000 A 
ENDBRANCH   5   8
BRANCH   6  15
ATOM     15  C   UNL     1       4.736   5.502  18.053  0.00  0.00    +0.000 C 
BRANCH  15  16
ATOM     16  S   UNL     1       6.496   5.898  18.383  0.00  0.00    +0.000 S 
ATOM     17  O   UNL     1       7.227   4.636  18.969  0.00  0.00    +0.000 OA
BRANCH  16  18
ATOM     18  C   UNL     1       7.009   5.995  16.636  0.00  0.00    +0.000 C 
BRANCH  18  19
ATOM     19  C   UNL     1       7.366   4.631  16.076  0.00  0.00    +0.000 C 
BRANCH  19  20
ATOM     20  O   UNL     1       6.442   4.252  15.042  0.00  0.00    +0.000 OA
BRANCH  20  21
ATOM     21  C   UNL     1       6.858   4.559  13.784  0.00  0.00    +0.000 C 
ATOM     22  O   UNL     1       7.695   5.402  13.501  0.00  0.00    +0.000 OA
BRANCH  21  23
ATOM     23  C   UNL     1       6.150   3.728  12.780  0.00  0.00    +0.000 A 
ATOM     24  C   UNL     1       6.865   2.696  12.158  0.00  0.00    +0.000 A 
ATOM     25  C   UNL     1       6.243   1.880  11.214  0.00  0.00    +0.000 A 
ATOM     26  C   UNL     1       4.905   2.090  10.888  0.00  0.00    +0.000 A 
ATOM     27  C   UNL     1       4.184   3.116  11.502  0.00  0.00    +0.000 A 
ATOM     28  C   UNL     1       4.804   3.934  12.448  0.00  0.00    +0.000 A 
ENDBRANCH  21  23
ENDBRANCH  20  21
ENDBRANCH  19  20
ENDBRANCH  18  19
ENDBRANCH  16  18
ENDBRANCH  15  16
ENDBRANCH   6  15
TORSDOF 8
ENDMDL
MODEL 2
REMARK VINA RESULT:      -7.7      4.505      8.446
REMARK  Name = 
REMARK  9 active torsions:
REMARK  status: ('A' for Active; 'I' for Inactive)
REMARK    1  A    between atoms: C_1  and  N_2
REMARK    2  A    between atoms: C_5  and  C_6
REMARK    3  A    between atoms: C_13  and  C_14
REMARK    4  A    between atoms: C_14  and  S_15
REMARK    5  A    between atoms: S_15  and  C_17
REMARK    6  A    between atoms: C_17  and  C_18
REMARK    7  A    between atoms: C_18  and  O_19
REMARK    8  A    between atoms: O_19  and  C_20
REMARK    9  A    between atoms: C_20  and  C_22
REMARK                            x       y       z     vdW  Elec       q    Type
REMARK                         _______ _______ _______ _____ _____    ______ ____
ROOT
ATOM      1  C   UNL     1       1.930   3.765  21.205  0.00  0.00    +0.000 C 
ATOM      2  N   UNL     1       2.810   4.107  20.093  0.00  0.00    +0.000 NA
ATOM      3  C   UNL     1       3.933   3.176  19.984  0.00  0.00    +0.000 C 
ATOM      4  C   UNL     1       4.903   3.654  18.906  0.00  0.00    +0.000 C 
ATOM      5  C   UNL     1       4.196   3.910  17.556  0.00  0.00    +0.000 C 
ATOM      6  C   UNL     1       2.935   4.816  17.736  0.00  0.00    +0.000 C 
ATOM      7  C   UNL     1       2.063   4.167  18.831  0.00  0.00    +0.000 C 
ENDROOT
BRANCH   5   8
ATOM      8  C   UNL     1       5.152   4.339  16.445  0.00  0.00    +0.000 A 
ATOM      9  C   UNL     1       4.846   4.015  15.112  0.00  0.00    +0.000 A 
ATOM     10  C   UNL     1       5.747   4.296  14.081  0.00  0.00    +0.000 A 
ATOM     11  C   UNL     1       6.962   4.910  14.366  0.00  0.00    +0.000 A 
ATOM     12 CL   UNL     1       8.094   5.211  13.105  0.00  0.00    +0.000 Cl
ATOM     13  C   UNL     1       7.270   5.273  15.673  0.00  0.00    +0.000 A 
ATOM     14  C   UNL     1       6.366   4.997  16.703  0.00  0.00    +0.000 A 
ENDBRANCH   5   8
BRANCH   6  15
ATOM     15  C   UNL     1       3.311   6.272  18.063  0.00  0.00    +0.000 C 
BRANCH  15  16
ATOM     16  S   UNL     1       1.917   7.305  18.656  0.00  0.00    +0.000 S 
ATOM     17  O   UNL     1       2.100   7.622  20.185  0.00  0.00    +0.000 OA
BRANCH  16  18
ATOM     18  C   UNL     1       2.407   8.824  17.777  0.00  0.00    +0.000 C 
BRANCH  18  19
ATOM     19  C   UNL     1       1.525  10.001  18.148  0.00  0.00    +0.000 C 
BRANCH  19  20
ATOM     20  O   UNL     1       0.141   9.612  18.154  0.00  0.00    +0.000 OA
BRANCH  20  21
ATOM     21  C   UNL     1      -0.692  10.525  18.722  0.00  0.00    +0.000 C 
ATOM     22  O   UNL     1      -0.467  11.145  19.750  0.00  0.00    +0.000 OA
BRANCH  21  23
ATOM     23  C   UNL     1      -1.933  10.672  17.923  0.00  0.00    +0.000 A 
ATOM     24  C   UNL     1      -2.977  11.433  18.465  0.00  0.00    +0.000 A 
ATOM     25  C   UNL     1      -4.162  11.610  17.751  0.00  0.00    +0.000 A 
ATOM     26  C   UNL     1      -4.307  11.031  16.492  0.00  0.00    +0.000 A 
ATOM     27  C   UNL     1      -3.272  10.272  15.944  0.00  0.00    +0.000 A 
ATOM     28  C   UNL     1      -2.086  10.092  16.656  0.00  0.00    +0.000 A 
ENDBRANCH  21  23
ENDBRANCH  20  21
ENDBRANCH  19  20
ENDBRANCH  18  19
ENDBRANCH  16  18
ENDBRANCH  15  16
ENDBRANCH   6  15
TORSDOF 8
ENDMDL
MODEL 3
REMARK VINA RESULT:      -7.4      4.309      8.290
REMARK  Name = 
REMARK  9 active torsions:
REMARK  status: ('A' for Active; 'I' for Inactive)
REMARK    1  A    between atoms: C_1  and  N_2
REMARK    2  A    between atoms: C_5  and  C_6
REMARK    3  A    between atoms: C_13  and  C_14
REMARK    4  A    between atoms: C_14  and  S_15
REMARK    5  A    between atoms: S_15  and  C_17
REMARK    6  A    between atoms: C_17  and  C_18
REMARK    7  A    between atoms: C_18  and  O_19
REMARK    8  A    between atoms: O_19  and  C_20
REMARK    9  A    between atoms: C_20  and  C_22
REMARK                            x       y       z     vdW  Elec       q    Type
REMARK                         _______ _______ _______ _____ _____    ______ ____
ROOT
ATOM      1  C   UNL     1       1.688   3.498  21.252  0.00  0.00    +0.000 C 
ATOM      2  N   UNL     1       2.615   3.808  20.170  0.00  0.00    +0.000 NA
ATOM      3  C   UNL     1       3.692   2.823  20.081  0.00  0.00    +0.000 C 
ATOM      4  C   UNL     1       4.716   3.264  19.036  0.00  0.00    +0.000 C 
ATOM      5  C   UNL     1       4.062   3.571  17.671  0.00  0.00    +0.000 C 
ATOM      6  C   UNL     1       2.843   4.537  17.827  0.00  0.00    +0.000 C 
ATOM      7  C   UNL     1       1.908   3.920  18.889  0.00  0.00    +0.000 C 
ENDROOT
BRANCH   5   8
ATOM      8  C   UNL     1       5.069   3.963  16.593  0.00  0.00    +0.000 A 
ATOM      9  C   UNL     1       6.296   4.535  16.971  0.00  0.00    +0.000 A 
ATOM     10  C   UNL     1       7.196   5.003  16.012  0.00  0.00    +0.000 A 
ATOM     11  C   UNL     1       6.887   4.901  14.659  0.00  0.00    +0.000 A 
ATOM     12 CL   UNL     1       7.972   5.523  13.476  0.00  0.00    +0.000 Cl
ATOM     13  C   UNL     1       5.696   4.306  14.259  0.00  0.00    +0.000 A 
ATOM     14  C   UNL     1       4.798   3.832  15.220  0.00  0.00    +0.000 A 
ENDBRANCH   5   8
BRANCH   6  15
ATOM     15  C   UNL     1       3.282   5.968  18.183  0.00  0.00    +0.000 C 
BRANCH  15  16
ATOM     16  S   UNL     1       1.925   7.064  18.750  0.00  0.00    +0.000 S 
ATOM     17  O   UNL     1       2.228   7.580  20.204  0.00  0.00    +0.000 OA
BRANCH  16  18
ATOM     18  C   UNL     1       2.318   8.457  17.643  0.00  0.00    +0.000 C 
BRANCH  18  19
ATOM     19  C   UNL     1       1.981   9.793  18.275  0.00  0.00    +0.000 C 
BRANCH  19  20
ATOM     20  O   UNL     1       0.615   9.810  18.722  0.00  0.00    +0.000 OA
BRANCH  20  21
ATOM     21  C   UNL     1       0.002  11.018  18.597  0.00  0.00    +0.000 C 
ATOM     22  O   UNL     1       0.515  12.100  18.838  0.00  0.00    +0.000 OA
BRANCH  21  23
ATOM     23  C   UNL     1      -1.394  10.852  18.125  0.00  0.00    +0.000 A 
ATOM     24  C   UNL     1      -2.391  11.622  18.739  0.00  0.00    +0.000 A 
ATOM     25  C   UNL     1      -3.719  11.511  18.327  0.00  0.00    +0.000 A 
ATOM     26  C   UNL     1      -4.055  10.632  17.298  0.00  0.00    +0.000 A 
ATOM     27  C   UNL     1      -3.069   9.862  16.681  0.00  0.00    +0.000 A 
ATOM     28  C   UNL     1      -1.740   9.971  17.091  0.00  0.00    +0.000 A 
ENDBRANCH  21  23
ENDBRANCH  20  21
ENDBRANCH  19  20
ENDBRANCH  18  19
ENDBRANCH  16  18
ENDBRANCH  15  16
ENDBRANCH   6  15
TORSDOF 8
ENDMDL
MODEL 4
REMARK VINA RESULT:      -7.3      0.662      1.134
REMARK  Name = 
REMARK  9 active torsions:
REMARK  status: ('A' for Active; 'I' for Inactive)
REMARK    1  A    between atoms: C_1  and  N_2
REMARK    2  A    between atoms: C_5  and  C_6
REMARK    3  A    between atoms: C_13  and  C_14
REMARK    4  A    between atoms: C_14  and  S_15
REMARK    5  A    between atoms: S_15  and  C_17
REMARK    6  A    between atoms: C_17  and  C_18
REMARK    7  A    between atoms: C_18  and  O_19
REMARK    8  A    between atoms: O_19  and  C_20
REMARK    9  A    between atoms: C_20  and  C_22
REMARK                            x       y       z     vdW  Elec       q    Type
REMARK                         _______ _______ _______ _____ _____    ______ ____
ROOT
ATOM      1  C   UNL     1       3.722   1.643  18.406  0.00  0.00    +0.000 C 
ATOM      2  N   UNL     1       3.404   3.066  18.378  0.00  0.00    +0.000 NA
ATOM      3  C   UNL     1       1.966   3.297  18.245  0.00  0.00    +0.000 C 
ATOM      4  C   UNL     1       1.692   4.790  18.073  0.00  0.00    +0.000 C 
ATOM      5  C   UNL     1       2.341   5.635  19.192  0.00  0.00    +0.000 C 
ATOM      6  C   UNL     1       3.850   5.273  19.377  0.00  0.00    +0.000 C 
ATOM      7  C   UNL     1       3.930   3.745  19.568  0.00  0.00    +0.000 C 
ENDROOT
BRANCH   5   8
ATOM      8  C   UNL     1       2.039   7.127  19.074  0.00  0.00    +0.000 A 
ATOM      9  C   UNL     1       2.168   7.760  17.825  0.00  0.00    +0.000 A 
ATOM     10  C   UNL     1       2.004   9.141  17.700  0.00  0.00    +0.000 A 
ATOM     11  C   UNL     1       1.701   9.911  18.819  0.00  0.00    +0.000 A 
ATOM     12 CL   UNL     1       1.549  11.619  18.677  0.00  0.00    +0.000 Cl
ATOM     13  C   UNL     1       1.532   9.303  20.058  0.00  0.00    +0.000 A 
ATOM     14  C   UNL     1       1.691   7.919  20.181  0.00  0.00    +0.000 A 
ENDBRANCH   5   8
BRANCH   6  15
ATOM     15  C   UNL     1       4.712   5.771  18.203  0.00  0.00    +0.000 C 
BRANCH  15  16
ATOM     16  S   UNL     1       6.519   5.731  18.512  0.00  0.00    +0.000 S 
ATOM     17  O   UNL     1       7.044   4.254  18.416  0.00  0.00    +0.000 OA
BRANCH  16  18
ATOM     18  C   UNL     1       7.006   6.529  16.948  0.00  0.00    +0.000 C 
BRANCH  18  19
ATOM     19  C   UNL     1       6.431   5.808  15.744  0.00  0.00    +0.000 C 
BRANCH  19  20
ATOM     20  O   UNL     1       7.404   4.913  15.179  0.00  0.00    +0.000 OA
BRANCH  20  21
ATOM     21  C   UNL     1       7.615   5.088  13.847  0.00  0.00    +0.000 C 
ATOM     22  O   UNL     1       8.407   5.878  13.354  0.00  0.00    +0.000 OA
BRANCH  21  23
ATOM     23  C   UNL     1       6.745   4.188  13.053  0.00  0.00    +0.000 A 
ATOM     24  C   UNL     1       7.355   3.332  12.127  0.00  0.00    +0.000 A 
ATOM     25  C   UNL     1       6.582   2.458  11.363  0.00  0.00    +0.000 A 
ATOM     26  C   UNL     1       5.198   2.434  11.523  0.00  0.00    +0.000 A 
ATOM     27  C   UNL     1       4.582   3.282  12.443  0.00  0.00    +0.000 A 
ATOM     28  C   UNL     1       5.352   4.158  13.209  0.00  0.00    +0.000 A 
ENDBRANCH  21  23
ENDBRANCH  20  21
ENDBRANCH  19  20
ENDBRANCH  18  19
ENDBRANCH  16  18
ENDBRANCH  15  16
ENDBRANCH   6  15
TORSDOF 8
ENDMDL
MODEL 5
REMARK VINA RESULT:      -7.2      4.169      8.202
REMARK  Name = 
REMARK  9 active torsions:
REMARK  status: ('A' for Active; 'I' for Inactive)
REMARK    1  A    between atoms: C_1  and  N_2
REMARK    2  A    between atoms: C_5  and  C_6
REMARK    3  A    between atoms: C_13  and  C_14
REMARK    4  A    between atoms: C_14  and  S_15
REMARK    5  A    between atoms: S_15  and  C_17
REMARK    6  A    between atoms: C_17  and  C_18
REMARK    7  A    between atoms: C_18  and  O_19
REMARK    8  A    between atoms: O_19  and  C_20
REMARK    9  A    between atoms: C_20  and  C_22
REMARK                            x       y       z     vdW  Elec       q    Type
REMARK                         _______ _______ _______ _____ _____    ______ ____
ROOT
ATOM      1  C   UNL     1       1.545   2.820  21.724  0.00  0.00    +0.000 C 
ATOM      2  N   UNL     1       2.485   3.304  20.719  0.00  0.00    +0.000 NA
ATOM      3  C   UNL     1       3.436   2.267  20.323  0.00  0.00    +0.000 C 
ATOM      4  C   UNL     1       4.487   2.855  19.384  0.00  0.00    +0.000 C 
ATOM      5  C   UNL     1       3.851   3.586  18.180  0.00  0.00    +0.000 C 
ATOM      6  C   UNL     1       2.759   4.603  18.643  0.00  0.00    +0.000 C 
ATOM      7  C   UNL     1       1.775   3.831  19.547  0.00  0.00    +0.000 C 
ENDROOT
BRANCH   5   8
ATOM      8  C   UNL     1       4.880   4.139  17.196  0.00  0.00    +0.000 A 
ATOM      9  C   UNL     1       4.505   4.364  15.861  0.00  0.00    +0.000 A 
ATOM     10  C   UNL     1       5.445   4.767  14.909  0.00  0.00    +0.000 A 
ATOM     11  C   UNL     1       6.772   4.958  15.279  0.00  0.00    +0.000 A 
ATOM     12 CL   UNL     1       7.942   5.406  14.099  0.00  0.00    +0.000 Cl
ATOM     13  C   UNL     1       7.160   4.778  16.602  0.00  0.00    +0.000 A 
ATOM     14  C   UNL     1       6.218   4.380  17.555  0.00  0.00    +0.000 A 
ENDBRANCH   5   8
BRANCH   6  15
ATOM     15  C   UNL     1       3.370   5.830  19.342  0.00  0.00    +0.000 C 
BRANCH  15  16
ATOM     16  S   UNL     1       2.651   7.437  18.827  0.00  0.00    +0.000 S 
ATOM     17  O   UNL     1       1.616   7.212  17.667  0.00  0.00    +0.000 OA
BRANCH  16  18
ATOM     18  C   UNL     1       1.655   7.699  20.331  0.00  0.00    +0.000 C 
BRANCH  18  19
ATOM     19  C   UNL     1       1.279   9.157  20.512  0.00  0.00    +0.000 C 
BRANCH  19  20
ATOM     20  O   UNL     1       0.002   9.428  19.909  0.00  0.00    +0.000 OA
BRANCH  20  21
ATOM     21  C   UNL     1       0.065  10.207  18.796  0.00  0.00    +0.000 C 
ATOM     22  O   UNL     1       1.093  10.606  18.269  0.00  0.00    +0.000 OA
BRANCH  21  23
ATOM     23  C   UNL     1      -1.295  10.521  18.296  0.00  0.00    +0.000 A 
ATOM     24  C   UNL     1      -1.760   9.825  17.173  0.00  0.00    +0.000 A 
ATOM     25  C   UNL     1      -3.036  10.075  16.669  0.00  0.00    +0.000 A 
ATOM     26  C   UNL     1      -3.853  11.020  17.286  0.00  0.00    +0.000 A 
ATOM     27  C   UNL     1      -3.398  11.718  18.406  0.00  0.00    +0.000 A 
ATOM     28  C   UNL     1      -2.122  11.470  18.913  0.00  0.00    +0.000 A 
ENDBRANCH  21  23
ENDBRANCH  20  21
ENDBRANCH  19  20
ENDBRANCH  18  19
ENDBRANCH  16  18
ENDBRANCH  15  16
ENDBRANCH   6  15
TORSDOF 8
ENDMDL
MODEL 6
REMARK VINA RESULT:      -7.0      4.038      8.834
REMARK  Name = 
REMARK  9 active torsions:
REMARK  status: ('A' for Active; 'I' for Inactive)
REMARK    1  A    between atoms: C_1  and  N_2
REMARK    2  A    between atoms: C_5  and  C_6
REMARK    3  A    between atoms: C_13  and  C_14
REMARK    4  A    between atoms: C_14  and  S_15
REMARK    5  A    between atoms: S_15  and  C_17
REMARK    6  A    between atoms: C_17  and  C_18
REMARK    7  A    between atoms: C_18  and  O_19
REMARK    8  A    between atoms: O_19  and  C_20
REMARK    9  A    between atoms: C_20  and  C_22
REMARK                            x       y       z     vdW  Elec       q    Type
REMARK                         _______ _______ _______ _____ _____    ______ ____
ROOT
ATOM      1  C   UNL     1       1.734   3.596  21.294  0.00  0.00    +0.000 C 
ATOM      2  N   UNL     1       2.661   3.879  20.205  0.00  0.00    +0.000 NA
ATOM      3  C   UNL     1       3.686   2.844  20.082  0.00  0.00    +0.000 C 
ATOM      4  C   UNL     1       4.716   3.252  19.031  0.00  0.00    +0.000 C 
ATOM      5  C   UNL     1       4.060   3.617  17.681  0.00  0.00    +0.000 C 
ATOM      6  C   UNL     1       2.893   4.639  17.872  0.00  0.00    +0.000 C 
ATOM      7  C   UNL     1       1.943   4.050  18.936  0.00  0.00    +0.000 C 
ENDROOT
BRANCH   5   8
ATOM      8  C   UNL     1       5.071   3.979  16.595  0.00  0.00    +0.000 A 
ATOM      9  C   UNL     1       6.319   4.508  16.965  0.00  0.00    +0.000 A 
ATOM     10  C   UNL     1       7.226   4.950  15.999  0.00  0.00    +0.000 A 
ATOM     11  C   UNL     1       6.903   4.861  14.649  0.00  0.00    +0.000 A 
ATOM     12 CL   UNL     1       7.998   5.450  13.459  0.00  0.00    +0.000 Cl
ATOM     13  C   UNL     1       5.690   4.306  14.257  0.00  0.00    +0.000 A 
ATOM     14  C   UNL     1       4.785   3.860  15.224  0.00  0.00    +0.000 A 
ENDBRANCH   5   8
BRANCH   6  15
ATOM     15  C   UNL     1       3.408   6.040  18.247  0.00  0.00    +0.000 C 
BRANCH  15  16
ATOM     16  S   UNL     1       2.114   7.192  18.850  0.00  0.00    +0.000 S 
ATOM     17  O   UNL     1       2.572   7.847  20.203  0.00  0.00    +0.000 OA
BRANCH  16  18
ATOM     18  C   UNL     1       2.373   8.467  17.574  0.00  0.00    +0.000 C 
BRANCH  18  19
ATOM     19  C   UNL     1       2.055   9.857  18.092  0.00  0.00    +0.000 C 
BRANCH  19  20
ATOM     20  O   UNL     1       0.905   9.823  18.954  0.00  0.00    +0.000 OA
BRANCH  20  21
ATOM     21  C   UNL     1       0.526  11.041  19.426  0.00  0.00    +0.000 C 
ATOM     22  O   UNL     1       0.670  12.103  18.840  0.00  0.00    +0.000 OA
BRANCH  21  23
ATOM     23  C   UNL     1      -0.093  10.915  20.768  0.00  0.00    +0.000 A 
ATOM     24  C   UNL     1      -1.061  11.857  21.136  0.00  0.00    +0.000 A 
ATOM     25  C   UNL     1      -1.681  11.779  22.383  0.00  0.00    +0.000 A 
ATOM     26  C   UNL     1      -1.336  10.757  23.265  0.00  0.00    +0.000 A 
ATOM     27  C   UNL     1      -0.373   9.814  22.907  0.00  0.00    +0.000 A 
ATOM     28  C   UNL     1       0.249   9.890  21.660  0.00  0.00    +0.000 A 
ENDBRANCH  21  23
ENDBRANCH  20  21
ENDBRANCH  19  20
ENDBRANCH  18  19
ENDBRANCH  16  18
ENDBRANCH  15  16
ENDBRANCH   6  15
TORSDOF 8
ENDMDL
MODEL 7
REMARK VINA RESULT:      -6.9      5.401      8.548
REMARK  Name = 
REMARK  9 active torsions:
REMARK  status: ('A' for Active; 'I' for Inactive)
REMARK    1  A    between atoms: C_1  and  N_2
REMARK    2  A    between atoms: C_5  and  C_6
REMARK    3  A    between atoms: C_13  and  C_14
REMARK    4  A    between atoms: C_14  and  S_15
REMARK    5  A    between atoms: S_15  and  C_17
REMARK    6  A    between atoms: C_17  and  C_18
REMARK    7  A    between atoms: C_18  and  O_19
REMARK    8  A    between atoms: O_19  and  C_20
REMARK    9  A    between atoms: C_20  and  C_22
REMARK                            x       y       z     vdW  Elec       q    Type
REMARK                         _______ _______ _______ _____ _____    ______ ____
ROOT
ATOM      1  C   UNL     1       2.638  13.139  19.283  0.00  0.00    +0.000 C 
ATOM      2  N   UNL     1       1.209  12.885  19.422  0.00  0.00    +0.000 NA
ATOM      3  C   UNL     1       0.410  13.886  18.716  0.00  0.00    +0.000 C 
ATOM      4  C   UNL     1      -1.074  13.669  19.008  0.00  0.00    +0.000 C 
ATOM      5  C   UNL     1      -1.521  12.220  18.714  0.00  0.00    +0.000 C 
ATOM      6  C   UNL     1      -0.571  11.181  19.394  0.00  0.00    +0.000 C 
ATOM      7  C   UNL     1       0.868  11.533  18.963  0.00  0.00    +0.000 C 
ENDROOT
BRANCH   5   8
ATOM      8  C   UNL     1      -3.012  11.988  18.948  0.00  0.00    +0.000 A 
ATOM      9  C   UNL     1      -3.723  11.146  18.076  0.00  0.00    +0.000 A 
ATOM     10  C   UNL     1      -5.107  10.994  18.193  0.00  0.00    +0.000 A 
ATOM     11  C   UNL     1      -5.800  11.677  19.189  0.00  0.00    +0.000 A 
ATOM     12 CL   UNL     1      -7.511  11.532  19.303  0.00  0.00    +0.000 Cl
ATOM     13  C   UNL     1      -5.113  12.487  20.086  0.00  0.00    +0.000 A 
ATOM     14  C   UNL     1      -3.728  12.634  19.971  0.00  0.00    +0.000 A 
ENDBRANCH   5   8
BRANCH   6  15
ATOM     15  C   UNL     1      -0.743  11.154  20.923  0.00  0.00    +0.000 C 
BRANCH  15  16
ATOM     16  S   UNL     1       0.622  10.332  21.830  0.00  0.00    +0.000 S 
ATOM     17  O   UNL     1       0.242  10.185  23.347  0.00  0.00    +0.000 OA
BRANCH  16  18
ATOM     18  C   UNL     1       0.378   8.680  21.100  0.00  0.00    +0.000 C 
BRANCH  18  19
ATOM     19  C   UNL     1       1.595   8.222  20.319  0.00  0.00    +0.000 C 
BRANCH  19  20
ATOM     20  O   UNL     1       1.853   6.828  20.557  0.00  0.00    +0.000 OA
BRANCH  20  21
ATOM     21  C   UNL     1       2.515   6.203  19.546  0.00  0.00    +0.000 C 
ATOM     22  O   UNL     1       3.386   6.706  18.854  0.00  0.00    +0.000 OA
BRANCH  21  23
ATOM     23  C   UNL     1       2.033   4.810  19.386  0.00  0.00    +0.000 A 
ATOM     24  C   UNL     1       1.532   4.153  20.516  0.00  0.00    +0.000 A 
ATOM     25  C   UNL     1       1.058   2.845  20.417  0.00  0.00    +0.000 A 
ATOM     26  C   UNL     1       1.080   2.190  19.187  0.00  0.00    +0.000 A 
ATOM     27  C   UNL     1       1.577   2.837  18.055  0.00  0.00    +0.000 A 
ATOM     28  C   UNL     1       2.053   4.145  18.151  0.00  0.00    +0.000 A 
ENDBRANCH  21  23
ENDBRANCH  20  21
ENDBRANCH  19  20
ENDBRANCH  18  19
ENDBRANCH  16  18
ENDBRANCH  15  16
ENDBRANCH   6  15
TORSDOF 8
ENDMDL
MODEL 8
REMARK VINA RESULT:      -6.9      4.275      8.132
REMARK  Name = 
REMARK  9 active torsions:
REMARK  status: ('A' for Active; 'I' for Inactive)
REMARK    1  A    between atoms: C_1  and  N_2
REMARK    2  A    between atoms: C_5  and  C_6
REMARK    3  A    between atoms: C_13  and  C_14
REMARK    4  A    between atoms: C_14  and  S_15
REMARK    5  A    between atoms: S_15  and  C_17
REMARK    6  A    between atoms: C_17  and  C_18
REMARK    7  A    between atoms: C_18  and  O_19
REMARK    8  A    between atoms: O_19  and  C_20
REMARK    9  A    between atoms: C_20  and  C_22
REMARK                            x       y       z     vdW  Elec       q    Type
REMARK                         _______ _______ _______ _____ _____    ______ ____
ROOT
ATOM      1  C   UNL     1       0.558   2.352  19.098  0.00  0.00    +0.000 C 
ATOM      2  N   UNL     1       1.728   3.219  19.009  0.00  0.00    +0.000 NA
ATOM      3  C   UNL     1       2.970   2.449  18.966  0.00  0.00    +0.000 C 
ATOM      4  C   UNL     1       4.170   3.393  19.023  0.00  0.00    +0.000 C 
ATOM      5  C   UNL     1       4.099   4.492  17.939  0.00  0.00    +0.000 C 
ATOM      6  C   UNL     1       2.712   5.211  17.945  0.00  0.00    +0.000 C 
ATOM      7  C   UNL     1       1.632   4.113  17.850  0.00  0.00    +0.000 C 
ENDROOT
BRANCH   5   8
ATOM      8  C   UNL     1       5.313   5.419  17.938  0.00  0.00    +0.000 A 
ATOM      9  C   UNL     1       6.290   5.276  18.938  0.00  0.00    +0.000 A 
ATOM     10  C   UNL     1       7.357   6.172  19.033  0.00  0.00    +0.000 A 
ATOM     11  C   UNL     1       7.468   7.220  18.125  0.00  0.00    +0.000 A 
ATOM     12 CL   UNL     1       8.754   8.355  18.270  0.00  0.00    +0.000 Cl
ATOM     13  C   UNL     1       6.535   7.360  17.104  0.00  0.00    +0.000 A 
ATOM     14  C   UNL     1       5.470   6.460  17.007  0.00  0.00    +0.000 A 
ENDBRANCH   5   8
BRANCH   6  15
ATOM     15  C   UNL     1       2.534   6.113  19.179  0.00  0.00    +0.000 C 
BRANCH  15  16
ATOM     16  S   UNL     1       2.571   7.912  18.820  0.00  0.00    +0.000 S 
ATOM     17  O   UNL     1       2.408   8.151  17.275  0.00  0.00    +0.000 OA
BRANCH  16  18
ATOM     18  C   UNL     1       0.945   8.293  19.550  0.00  0.00    +0.000 C 
BRANCH  18  19
ATOM     19  C   UNL     1       0.998   9.525  20.433  0.00  0.00    +0.000 C 
BRANCH  19  20
ATOM     20  O   UNL     1      -0.218  10.283  20.316  0.00  0.00    +0.000 OA
BRANCH  20  21
ATOM     21  C   UNL     1      -0.265  11.097  19.227  0.00  0.00    +0.000 C 
ATOM     22  O   UNL     1       0.607  11.886  18.895  0.00  0.00    +0.000 OA
BRANCH  21  23
ATOM     23  C   UNL     1      -1.533  10.907  18.483  0.00  0.00    +0.000 A 
ATOM     24  C   UNL     1      -2.612  11.743  18.798  0.00  0.00    +0.000 A 
ATOM     25  C   UNL     1      -3.824  11.613  18.121  0.00  0.00    +0.000 A 
ATOM     26  C   UNL     1      -3.962  10.648  17.125  0.00  0.00    +0.000 A 
ATOM     27  C   UNL     1      -2.893   9.811  16.804  0.00  0.00    +0.000 A 
ATOM     28  C   UNL     1      -1.679   9.939  17.480  0.00  0.00    +0.000 A 
ENDBRANCH  21  23
ENDBRANCH  20  21
ENDBRANCH  19  20
ENDBRANCH  18  19
ENDBRANCH  16  18
ENDBRANCH  15  16
ENDBRANCH   6  15
TORSDOF 8
ENDMDL
MODEL 9
REMARK VINA RESULT:      -6.9      4.780      7.685
REMARK  Name = 
REMARK  9 active torsions:
REMARK  status: ('A' for Active; 'I' for Inactive)
REMARK    1  A    between atoms: C_1  and  N_2
REMARK    2  A    between atoms: C_5  and  C_6
REMARK    3  A    between atoms: C_13  and  C_14
REMARK    4  A    between atoms: C_14  and  S_15
REMARK    5  A    between atoms: S_15  and  C_17
REMARK    6  A    between atoms: C_17  and  C_18
REMARK    7  A    between atoms: C_18  and  O_19
REMARK    8  A    between atoms: O_19  and  C_20
REMARK    9  A    between atoms: C_20  and  C_22
REMARK                            x       y       z     vdW  Elec       q    Type
REMARK                         _______ _______ _______ _____ _____    ______ ____
ROOT
ATOM      1  C   UNL     1       7.831   5.241  13.309  0.00  0.00    +0.000 C 
ATOM      2  N   UNL     1       6.819   5.050  14.342  0.00  0.00    +0.000 NA
ATOM      3  C   UNL     1       5.652   4.332  13.831  0.00  0.00    +0.000 C 
ATOM      4  C   UNL     1       4.561   4.283  14.899  0.00  0.00    +0.000 C 
ATOM      5  C   UNL     1       5.082   3.718  16.239  0.00  0.00    +0.000 C 
ATOM      6  C   UNL     1       6.394   4.436  16.690  0.00  0.00    +0.000 C 
ATOM      7  C   UNL     1       7.382   4.359  15.508  0.00  0.00    +0.000 C 
ENDROOT
BRANCH   5   8
ATOM      8  C   UNL     1       3.998   3.608  17.310  0.00  0.00    +0.000 A 
ATOM      9  C   UNL     1       3.010   4.604  17.394  0.00  0.00    +0.000 A 
ATOM     10  C   UNL     1       2.068   4.595  18.425  0.00  0.00    +0.000 A 
ATOM     11  C   UNL     1       2.094   3.586  19.384  0.00  0.00    +0.000 A 
ATOM     12 CL   UNL     1       0.966   3.601  20.683  0.00  0.00    +0.000 Cl
ATOM     13  C   UNL     1       3.039   2.570  19.300  0.00  0.00    +0.000 A 
ATOM     14  C   UNL     1       3.978   2.577  18.265  0.00  0.00    +0.000 A 
ENDBRANCH   5   8
BRANCH   6  15
ATOM     15  C   UNL     1       6.133   5.880  17.152  0.00  0.00    +0.000 C 
BRANCH  15  16
ATOM     16  S   UNL     1       7.106   6.400  18.617  0.00  0.00    +0.000 S 
ATOM     17  O   UNL     1       8.047   5.228  19.076  0.00  0.00    +0.000 OA
BRANCH  16  18
ATOM     18  C   UNL     1       8.182   7.577  17.733  0.00  0.00    +0.000 C 
BRANCH  18  19
ATOM     19  C   UNL     1       7.819   9.016  18.044  0.00  0.00    +0.000 C 
BRANCH  19  20
ATOM     20  O   UNL     1       8.914   9.892  17.727  0.00  0.00    +0.000 OA
BRANCH  20  21
ATOM     21  C   UNL     1       9.386  10.602  18.788  0.00  0.00    +0.000 C 
ATOM     22  O   UNL     1       9.228  10.306  19.962  0.00  0.00    +0.000 OA
BRANCH  21  23
ATOM     23  C   UNL     1      10.125  11.803  18.330  0.00  0.00    +0.000 A 
ATOM     24  C   UNL     1      11.524  11.777  18.391  0.00  0.00    +0.000 A 
ATOM     25  C   UNL     1      12.267  12.877  17.964  0.00  0.00    +0.000 A 
ATOM     26  C   UNL     1      11.615  14.006  17.472  0.00  0.00    +0.000 A 
ATOM     27  C   UNL     1      10.222  14.041  17.407  0.00  0.00    +0.000 A 
ATOM     28  C   UNL     1       9.475  12.942  17.834  0.00  0.00    +0.000 A 
ENDBRANCH  21  23
ENDBRANCH  20  21
ENDBRANCH  19  20
ENDBRANCH  18  19
ENDBRANCH  16  18
ENDBRANCH  15  16
ENDBRANCH   6  15
TORSDOF 8
ENDMDL
