MODEL 1
REMARK VINA RESULT:      -7.8      0.000      0.000
REMARK  Name = 
REMARK  6 active torsions:
REMARK  status: ('A' for Active; 'I' for Inactive)
REMARK    1  A    between atoms: C_1  and  C_2
REMARK    2  A    between atoms: C_6  and  C_7
REMARK    3  A    between atoms: C_10  and  C_11
REMARK    4  A    between atoms: N_13  and  N_14
REMARK    5  A    between atoms: C_15  and  C_16
REMARK    6  A    between atoms: C_28  and  C_29
REMARK                            x       y       z     vdW  Elec       q    Type
REMARK                         _______ _______ _______ _____ _____    ______ ____
ROOT
ATOM      1  C   UNL     1      -1.593  11.726  22.369  0.00  0.00    +0.000 A 
ATOM      2  C   UNL     1      -1.111  11.663  21.060  0.00  0.00    +0.000 A 
ATOM      3  C   UNL     1      -0.314  10.587  20.644  0.00  0.00    +0.000 A 
ATOM      4  C   UNL     1       0.038   9.553  21.530  0.00  0.00    +0.000 A 
ATOM      5  C   UNL     1      -0.445   9.615  22.842  0.00  0.00    +0.000 A 
ATOM      6  C   UNL     1      -1.251  10.692  23.254  0.00  0.00    +0.000 A 
ENDROOT
BRANCH   1  12
ATOM      7  C   UNL     1      -4.856  17.670  25.269  0.00  0.00    +0.000 C 
ATOM      8  C   UNL     1      -4.671  16.426  24.440  0.00  0.00    +0.000 A 
ATOM      9  C   UNL     1      -3.463  15.710  24.559  0.00  0.00    +0.000 A 
ATOM     10  C   UNL     1      -3.263  14.562  23.783  0.00  0.00    +0.000 A 
ATOM     11  N   UNL     1      -2.175  13.726  23.717  0.00  0.00    +0.000 NA
ATOM     12  C   UNL     1      -2.467  12.817  22.807  0.00  0.00    +0.000 A 
ATOM     13  N   UNL     1      -3.736  13.036  22.306  0.00  0.00    +0.000 N 
ATOM     14  C   UNL     1      -4.258  14.154  22.910  0.00  0.00    +0.000 A 
ATOM     15  C   UNL     1      -5.477  14.823  22.768  0.00  0.00    +0.000 A 
ATOM     16  C   UNL     1      -5.678  15.975  23.557  0.00  0.00    +0.000 A 
ATOM     17  C   UNL     1      -6.992  16.707  23.450  0.00  0.00    +0.000 C 
ATOM     18  H   UNL     1      -4.188  12.487  21.596  0.00  0.00    +0.000 HD
ENDBRANCH   1  12
BRANCH   4  19
ATOM     19  C   UNL     1       0.913   8.453  20.999  0.00  0.00    +0.000 C 
ATOM     20  O   UNL     1       1.037   7.428  21.674  0.00  0.00    +0.000 OA
ATOM     21  N   UNL     1       1.529   8.642  19.763  0.00  0.00    +0.000 N 
ATOM     22  H   UNL     1       1.385   9.471  19.207  0.00  0.00    +0.000 HD
BRANCH  21  23
ATOM     23  N   UNL     1       2.307   7.639  19.253  0.00  0.00    +0.000 NA
ATOM     24  C   UNL     1       2.764   7.799  18.050  0.00  0.00    +0.000 C 
BRANCH  24  25
ATOM     25  C   UNL     1       3.605   6.761  17.411  0.00  0.00    +0.000 A 
ATOM     26  C   UNL     1       4.610   7.122  16.510  0.00  0.00    +0.000 A 
ATOM     27  C   UNL     1       5.395   6.138  15.901  0.00  0.00    +0.000 A 
ATOM     28  C   UNL     1       5.170   4.797  16.195  0.00  0.00    +0.000 A 
ATOM     29 CL   UNL     1       6.144   3.585  15.451  0.00  0.00    +0.000 Cl
ATOM     30  C   UNL     1       4.174   4.426  17.101  0.00  0.00    +0.000 A 
ATOM     31  C   UNL     1       3.390   5.410  17.714  0.00  0.00    +0.000 A 
ENDBRANCH  24  25
ENDBRANCH  21  23
ENDBRANCH   4  19
TORSDOF 4
ENDMDL
MODEL 2
REMARK VINA RESULT:      -7.7      4.362     12.235
REMARK  Name = 
REMARK  6 active torsions:
REMARK  status: ('A' for Active; 'I' for Inactive)
REMARK    1  A    between atoms: C_1  and  C_2
REMARK    2  A    between atoms: C_6  and  C_7
REMARK    3  A    between atoms: C_10  and  C_11
REMARK    4  A    between atoms: N_13  and  N_14
REMARK    5  A    between atoms: C_15  and  C_16
REMARK    6  A    between atoms: C_28  and  C_29
REMARK                            x       y       z     vdW  Elec       q    Type
REMARK                         _______ _______ _______ _____ _____    ______ ____
ROOT
ATOM      1  C   UNL     1       0.959   8.640  20.863  0.00  0.00    +0.000 A 
ATOM      2  C   UNL     1       0.469   9.737  20.152  0.00  0.00    +0.000 A 
ATOM      3  C   UNL     1      -0.158  10.798  20.820  0.00  0.00    +0.000 A 
ATOM      4  C   UNL     1      -0.328  10.784  22.216  0.00  0.00    +0.000 A 
ATOM      5  C   UNL     1       0.164   9.686  22.930  0.00  0.00    +0.000 A 
ATOM      6  C   UNL     1       0.800   8.627  22.257  0.00  0.00    +0.000 A 
ENDROOT
BRANCH   1  12
ATOM      7  C   UNL     1       3.770   2.304  18.343  0.00  0.00    +0.000 C 
ATOM      8  C   UNL     1       3.490   3.781  18.448  0.00  0.00    +0.000 A 
ATOM      9  C   UNL     1       2.697   4.243  19.516  0.00  0.00    +0.000 A 
ATOM     10  C   UNL     1       2.410   5.610  19.621  0.00  0.00    +0.000 A 
ATOM     11  N   UNL     1       1.654   6.278  20.553  0.00  0.00    +0.000 NA
ATOM     12  C   UNL     1       1.659   7.545  20.187  0.00  0.00    +0.000 A 
ATOM     13  N   UNL     1       2.430   7.709  19.051  0.00  0.00    +0.000 N 
ATOM     14  C   UNL     1       2.910   6.481  18.668  0.00  0.00    +0.000 A 
ATOM     15  C   UNL     1       3.711   6.071  17.598  0.00  0.00    +0.000 A 
ATOM     16  C   UNL     1       4.005   4.695  17.500  0.00  0.00    +0.000 A 
ATOM     17  C   UNL     1       4.890   4.220  16.376  0.00  0.00    +0.000 C 
ATOM     18  H   UNL     1       2.585   8.578  18.570  0.00  0.00    +0.000 HD
ENDBRANCH   1  12
BRANCH   4  19
ATOM     19  C   UNL     1      -1.030  11.957  22.841  0.00  0.00    +0.000 C 
ATOM     20  O   UNL     1      -0.367  12.963  23.101  0.00  0.00    +0.000 OA
ATOM     21  N   UNL     1      -2.399  11.851  23.083  0.00  0.00    +0.000 N 
ATOM     22  H   UNL     1      -2.933  11.034  22.827  0.00  0.00    +0.000 HD
BRANCH  21  23
ATOM     23  N   UNL     1      -3.057  12.919  23.626  0.00  0.00    +0.000 NA
ATOM     24  C   UNL     1      -3.568  13.780  22.802  0.00  0.00    +0.000 C 
BRANCH  24  25
ATOM     25  C   UNL     1      -4.289  14.976  23.300  0.00  0.00    +0.000 A 
ATOM     26  C   UNL     1      -5.400  15.467  22.611  0.00  0.00    +0.000 A 
ATOM     27  C   UNL     1      -6.072  16.601  23.078  0.00  0.00    +0.000 A 
ATOM     28  C   UNL     1      -5.628  17.239  24.232  0.00  0.00    +0.000 A 
ATOM     29 CL   UNL     1      -6.461  18.631  24.812  0.00  0.00    +0.000 Cl
ATOM     30  C   UNL     1      -4.522  16.750  24.932  0.00  0.00    +0.000 A 
ATOM     31  C   UNL     1      -3.852  15.613  24.468  0.00  0.00    +0.000 A 
ENDBRANCH  24  25
ENDBRANCH  21  23
ENDBRANCH   4  19
TORSDOF 4
ENDMDL
MODEL 3
REMARK VINA RESULT:      -7.6      0.829      1.859
REMARK  Name = 
REMARK  6 active torsions:
REMARK  status: ('A' for Active; 'I' for Inactive)
REMARK    1  A    between atoms: C_1  and  C_2
REMARK    2  A    between atoms: C_6  and  C_7
REMARK    3  A    between atoms: C_10  and  C_11
REMARK    4  A    between atoms: N_13  and  N_14
REMARK    5  A    between atoms: C_15  and  C_16
REMARK    6  A    between atoms: C_28  and  C_29
REMARK                            x       y       z     vdW  Elec       q    Type
REMARK                         _______ _______ _______ _____ _____    ______ ____
ROOT
ATOM      1  C   UNL     1      -0.893  11.797  22.343  0.00  0.00    +0.000 A 
ATOM      2  C   UNL     1      -0.303  11.813  21.078  0.00  0.00    +0.000 A 
ATOM      3  C   UNL     1       0.329  10.669  20.572  0.00  0.00    +0.000 A 
ATOM      4  C   UNL     1       0.405   9.483  21.324  0.00  0.00    +0.000 A 
ATOM      5  C   UNL     1      -0.187   9.466  22.592  0.00  0.00    +0.000 A 
ATOM      6  C   UNL     1      -0.828  10.613  23.093  0.00  0.00    +0.000 A 
ENDROOT
BRANCH   1  12
ATOM      7  C   UNL     1      -5.610  16.989  24.624  0.00  0.00    +0.000 C 
ATOM      8  C   UNL     1      -4.305  16.279  24.376  0.00  0.00    +0.000 A 
ATOM      9  C   UNL     1      -4.319  15.074  23.649  0.00  0.00    +0.000 A 
ATOM     10  C   UNL     1      -3.119  14.388  23.425  0.00  0.00    +0.000 A 
ATOM     11  N   UNL     1      -2.894  13.203  22.768  0.00  0.00    +0.000 NA
ATOM     12  C   UNL     1      -1.600  12.969  22.869  0.00  0.00    +0.000 A 
ATOM     13  N   UNL     1      -0.982  13.998  23.554  0.00  0.00    +0.000 N 
ATOM     14  C   UNL     1      -1.938  14.910  23.927  0.00  0.00    +0.000 A 
ATOM     15  C   UNL     1      -1.872  16.109  24.643  0.00  0.00    +0.000 A 
ATOM     16  C   UNL     1      -3.082  16.800  24.860  0.00  0.00    +0.000 A 
ATOM     17  C   UNL     1      -3.046  18.111  25.605  0.00  0.00    +0.000 C 
ATOM     18  H   UNL     1      -0.002  14.052  23.770  0.00  0.00    +0.000 HD
ENDBRANCH   1  12
BRANCH   4  19
ATOM     19  C   UNL     1       1.120   8.314  20.706  0.00  0.00    +0.000 C 
ATOM     20  O   UNL     1       1.145   7.250  21.328  0.00  0.00    +0.000 OA
ATOM     21  N   UNL     1       1.708   8.491  19.455  0.00  0.00    +0.000 N 
ATOM     22  H   UNL     1       1.643   9.358  18.943  0.00  0.00    +0.000 HD
BRANCH  21  23
ATOM     23  N   UNL     1       2.339   7.430  18.866  0.00  0.00    +0.000 NA
ATOM     24  C   UNL     1       3.216   7.699  17.949  0.00  0.00    +0.000 C 
BRANCH  24  25
ATOM     25  C   UNL     1       3.942   6.613  17.249  0.00  0.00    +0.000 A 
ATOM     26  C   UNL     1       3.717   5.278  17.592  0.00  0.00    +0.000 A 
ATOM     27  C   UNL     1       4.411   4.257  16.936  0.00  0.00    +0.000 A 
ATOM     28  C   UNL     1       5.327   4.577  15.938  0.00  0.00    +0.000 A 
ATOM     29 CL   UNL     1       6.176   3.318  15.123  0.00  0.00    +0.000 Cl
ATOM     30  C   UNL     1       5.552   5.909  15.582  0.00  0.00    +0.000 A 
ATOM     31  C   UNL     1       4.856   6.931  16.235  0.00  0.00    +0.000 A 
ENDBRANCH  24  25
ENDBRANCH  21  23
ENDBRANCH   4  19
TORSDOF 4
ENDMDL
MODEL 4
REMARK VINA RESULT:      -7.5      1.045      1.596
REMARK  Name = 
REMARK  6 active torsions:
REMARK  status: ('A' for Active; 'I' for Inactive)
REMARK    1  A    between atoms: C_1  and  C_2
REMARK    2  A    between atoms: C_6  and  C_7
REMARK    3  A    between atoms: C_10  and  C_11
REMARK    4  A    between atoms: N_13  and  N_14
REMARK    5  A    between atoms: C_15  and  C_16
REMARK    6  A    between atoms: C_28  and  C_29
REMARK                            x       y       z     vdW  Elec       q    Type
REMARK                         _______ _______ _______ _____ _____    ______ ____
ROOT
ATOM      1  C   UNL     1      -0.638  11.988  22.396  0.00  0.00    +0.000 A 
ATOM      2  C   UNL     1       0.086  12.134  21.211  0.00  0.00    +0.000 A 
ATOM      3  C   UNL     1       0.640  11.017  20.571  0.00  0.00    +0.000 A 
ATOM      4  C   UNL     1       0.501   9.724  21.107  0.00  0.00    +0.000 A 
ATOM      5  C   UNL     1      -0.225   9.576  22.294  0.00  0.00    +0.000 A 
ATOM      6  C   UNL     1      -0.787  10.698  22.929  0.00  0.00    +0.000 A 
ENDROOT
BRANCH   1  12
ATOM      7  C   UNL     1      -2.472  18.206  25.913  0.00  0.00    +0.000 C 
ATOM      8  C   UNL     1      -2.632  16.917  25.149  0.00  0.00    +0.000 A 
ATOM      9  C   UNL     1      -1.483  16.152  24.868  0.00  0.00    +0.000 A 
ATOM     10  C   UNL     1      -1.607  14.961  24.142  0.00  0.00    +0.000 A 
ATOM     11  N   UNL     1      -0.640  14.074  23.740  0.00  0.00    +0.000 NA
ATOM     12  C   UNL     1      -1.265  13.138  23.052  0.00  0.00    +0.000 A 
ATOM     13  N   UNL     1      -2.623  13.393  23.028  0.00  0.00    +0.000 N 
ATOM     14  C   UNL     1      -2.861  14.560  23.711  0.00  0.00    +0.000 A 
ATOM     15  C   UNL     1      -4.031  15.279  23.976  0.00  0.00    +0.000 A 
ATOM     16  C   UNL     1      -3.902  16.473  24.714  0.00  0.00    +0.000 A 
ATOM     17  C   UNL     1      -5.146  17.260  25.043  0.00  0.00    +0.000 C 
ATOM     18  H   UNL     1      -3.315  12.833  22.562  0.00  0.00    +0.000 HD
ENDBRANCH   1  12
BRANCH   4  19
ATOM     19  C   UNL     1       1.146   8.590  20.361  0.00  0.00    +0.000 C 
ATOM     20  O   UNL     1       1.391   7.550  20.975  0.00  0.00    +0.000 OA
ATOM     21  N   UNL     1       1.424   8.769  19.006  0.00  0.00    +0.000 N 
ATOM     22  H   UNL     1       1.181   9.614  18.510  0.00  0.00    +0.000 HD
BRANCH  21  23
ATOM     23  N   UNL     1       1.986   7.738  18.306  0.00  0.00    +0.000 NA
ATOM     24  C   UNL     1       3.281   7.712  18.231  0.00  0.00    +0.000 C 
BRANCH  24  25
ATOM     25  C   UNL     1       3.978   6.639  17.483  0.00  0.00    +0.000 A 
ATOM     26  C   UNL     1       3.814   5.301  17.851  0.00  0.00    +0.000 A 
ATOM     27  C   UNL     1       4.482   4.293  17.149  0.00  0.00    +0.000 A 
ATOM     28  C   UNL     1       5.312   4.628  16.083  0.00  0.00    +0.000 A 
ATOM     29 CL   UNL     1       6.127   3.384  15.213  0.00  0.00    +0.000 Cl
ATOM     30  C   UNL     1       5.475   5.962  15.703  0.00  0.00    +0.000 A 
ATOM     31  C   UNL     1       4.804   6.972  16.402  0.00  0.00    +0.000 A 
ENDBRANCH  24  25
ENDBRANCH  21  23
ENDBRANCH   4  19
TORSDOF 4
ENDMDL
MODEL 5
REMARK VINA RESULT:      -7.5      4.319     12.317
REMARK  Name = 
REMARK  6 active torsions:
REMARK  status: ('A' for Active; 'I' for Inactive)
REMARK    1  A    between atoms: C_1  and  C_2
REMARK    2  A    between atoms: C_6  and  C_7
REMARK    3  A    between atoms: C_10  and  C_11
REMARK    4  A    between atoms: N_13  and  N_14
REMARK    5  A    between atoms: C_15  and  C_16
REMARK    6  A    between atoms: C_28  and  C_29
REMARK                            x       y       z     vdW  Elec       q    Type
REMARK                         _______ _______ _______ _____ _____    ______ ____
ROOT
ATOM      1  C   UNL     1       1.338   8.585  20.461  0.00  0.00    +0.000 A 
ATOM      2  C   UNL     1       1.156   8.655  21.844  0.00  0.00    +0.000 A 
ATOM      3  C   UNL     1       0.533   9.768  22.426  0.00  0.00    +0.000 A 
ATOM      4  C   UNL     1       0.093  10.851  21.643  0.00  0.00    +0.000 A 
ATOM      5  C   UNL     1       0.275  10.781  20.258  0.00  0.00    +0.000 A 
ATOM      6  C   UNL     1       0.892   9.659  19.676  0.00  0.00    +0.000 A 
ENDROOT
BRANCH   1  12
ATOM      7  C   UNL     1       3.519   1.937  18.127  0.00  0.00    +0.000 C 
ATOM      8  C   UNL     1       3.414   3.438  18.214  0.00  0.00    +0.000 A 
ATOM      9  C   UNL     1       2.616   4.000  19.229  0.00  0.00    +0.000 A 
ATOM     10  C   UNL     1       2.489   5.392  19.315  0.00  0.00    +0.000 A 
ATOM     11  N   UNL     1       1.762   6.154  20.196  0.00  0.00    +0.000 NA
ATOM     12  C   UNL     1       1.943   7.408  19.831  0.00  0.00    +0.000 A 
ATOM     13  N   UNL     1       2.798   7.470  18.747  0.00  0.00    +0.000 N 
ATOM     14  C   UNL     1       3.150   6.189  18.395  0.00  0.00    +0.000 A 
ATOM     15  C   UNL     1       3.962   5.678  17.379  0.00  0.00    +0.000 A 
ATOM     16  C   UNL     1       4.094   4.276  17.301  0.00  0.00    +0.000 A 
ATOM     17  C   UNL     1       4.984   3.689  16.235  0.00  0.00    +0.000 C 
ATOM     18  H   UNL     1       3.087   8.309  18.276  0.00  0.00    +0.000 HD
ENDBRANCH   1  12
BRANCH   4  19
ATOM     19  C   UNL     1      -0.545  12.008  22.359  0.00  0.00    +0.000 C 
ATOM     20  O   UNL     1       0.008  13.108  22.299  0.00  0.00    +0.000 OA
ATOM     21  N   UNL     1      -1.739  11.781  23.042  0.00  0.00    +0.000 N 
ATOM     22  H   UNL     1      -2.198  10.883  23.048  0.00  0.00    +0.000 HD
BRANCH  21  23
ATOM     23  N   UNL     1      -2.346  12.830  23.676  0.00  0.00    +0.000 NA
ATOM     24  C   UNL     1      -3.125  13.581  22.961  0.00  0.00    +0.000 C 
BRANCH  24  25
ATOM     25  C   UNL     1      -3.816  14.748  23.559  0.00  0.00    +0.000 A 
ATOM     26  C   UNL     1      -5.153  15.011  23.248  0.00  0.00    +0.000 A 
ATOM     27  C   UNL     1      -5.798  16.119  23.806  0.00  0.00    +0.000 A 
ATOM     28  C   UNL     1      -5.104  16.958  24.673  0.00  0.00    +0.000 A 
ATOM     29 CL   UNL     1      -5.903  18.317  25.368  0.00  0.00    +0.000 Cl
ATOM     30  C   UNL     1      -3.770  16.697  24.997  0.00  0.00    +0.000 A 
ATOM     31  C   UNL     1      -3.124  15.587  24.442  0.00  0.00    +0.000 A 
ENDBRANCH  24  25
ENDBRANCH  21  23
ENDBRANCH   4  19
TORSDOF 4
ENDMDL
MODEL 6
REMARK VINA RESULT:      -7.4      4.307     12.256
REMARK  Name = 
REMARK  6 active torsions:
REMARK  status: ('A' for Active; 'I' for Inactive)
REMARK    1  A    between atoms: C_1  and  C_2
REMARK    2  A    between atoms: C_6  and  C_7
REMARK    3  A    between atoms: C_10  and  C_11
REMARK    4  A    between atoms: N_13  and  N_14
REMARK    5  A    between atoms: C_15  and  C_16
REMARK    6  A    between atoms: C_28  and  C_29
REMARK                            x       y       z     vdW  Elec       q    Type
REMARK                         _______ _______ _______ _____ _____    ______ ____
ROOT
ATOM      1  C   UNL     1       1.159   8.787  20.455  0.00  0.00    +0.000 A 
ATOM      2  C   UNL     1       0.435   9.846  19.905  0.00  0.00    +0.000 A 
ATOM      3  C   UNL     1      -0.312  10.701  20.728  0.00  0.00    +0.000 A 
ATOM      4  C   UNL     1      -0.370  10.510  22.120  0.00  0.00    +0.000 A 
ATOM      5  C   UNL     1       0.357   9.449  22.671  0.00  0.00    +0.000 A 
ATOM      6  C   UNL     1       1.112   8.598  21.844  0.00  0.00    +0.000 A 
ENDROOT
BRANCH   1  12
ATOM      7  C   UNL     1       4.738   3.347  16.990  0.00  0.00    +0.000 C 
ATOM      8  C   UNL     1       4.262   4.739  17.317  0.00  0.00    +0.000 A 
ATOM      9  C   UNL     1       3.444   4.923  18.449  0.00  0.00    +0.000 A 
ATOM     10  C   UNL     1       2.975   6.205  18.760  0.00  0.00    +0.000 A 
ATOM     11  N   UNL     1       2.162   6.617  19.787  0.00  0.00    +0.000 NA
ATOM     12  C   UNL     1       1.983   7.912  19.616  0.00  0.00    +0.000 A 
ATOM     13  N   UNL     1       2.691   8.348  18.511  0.00  0.00    +0.000 N 
ATOM     14  C   UNL     1       3.324   7.269  17.944  0.00  0.00    +0.000 A 
ATOM     15  C   UNL     1       4.143   7.137  16.819  0.00  0.00    +0.000 A 
ATOM     16  C   UNL     1       4.619   5.846  16.513  0.00  0.00    +0.000 A 
ATOM     17  C   UNL     1       5.528   5.670  15.323  0.00  0.00    +0.000 C 
ATOM     18  H   UNL     1       2.712   9.291  18.165  0.00  0.00    +0.000 HD
ENDBRANCH   1  12
BRANCH   4  19
ATOM     19  C   UNL     1      -1.212  11.466  22.917  0.00  0.00    +0.000 C 
ATOM     20  O   UNL     1      -2.199  11.023  23.507  0.00  0.00    +0.000 OA
ATOM     21  N   UNL     1      -0.826  12.805  22.958  0.00  0.00    +0.000 N 
ATOM     22  H   UNL     1       0.007  13.143  22.500  0.00  0.00    +0.000 HD
BRANCH  21  23
ATOM     23  N   UNL     1      -1.566  13.683  23.700  0.00  0.00    +0.000 NA
ATOM     24  C   UNL     1      -2.262  14.565  23.052  0.00  0.00    +0.000 C 
BRANCH  24  25
ATOM     25  C   UNL     1      -3.085  15.565  23.772  0.00  0.00    +0.000 A 
ATOM     26  C   UNL     1      -4.480  15.480  23.747  0.00  0.00    +0.000 A 
ATOM     27  C   UNL     1      -5.253  16.432  24.419  0.00  0.00    +0.000 A 
ATOM     28  C   UNL     1      -4.628  17.463  25.114  0.00  0.00    +0.000 A 
ATOM     29 CL   UNL     1      -5.582  18.629  25.950  0.00  0.00    +0.000 Cl
ATOM     30  C   UNL     1      -3.235  17.550  25.152  0.00  0.00    +0.000 A 
ATOM     31  C   UNL     1      -2.459  16.597  24.483  0.00  0.00    +0.000 A 
ENDBRANCH  24  25
ENDBRANCH  21  23
ENDBRANCH   4  19
TORSDOF 4
ENDMDL
MODEL 7
REMARK VINA RESULT:      -7.4      4.308     12.328
REMARK  Name = 
REMARK  6 active torsions:
REMARK  status: ('A' for Active; 'I' for Inactive)
REMARK    1  A    between atoms: C_1  and  C_2
REMARK    2  A    between atoms: C_6  and  C_7
REMARK    3  A    between atoms: C_10  and  C_11
REMARK    4  A    between atoms: N_13  and  N_14
REMARK    5  A    between atoms: C_15  and  C_16
REMARK    6  A    between atoms: C_28  and  C_29
REMARK                            x       y       z     vdW  Elec       q    Type
REMARK                         _______ _______ _______ _____ _____    ______ ____
ROOT
ATOM      1  C   UNL     1       1.509   8.612  19.948  0.00  0.00    +0.000 A 
ATOM      2  C   UNL     1       1.289   9.765  19.193  0.00  0.00    +0.000 A 
ATOM      3  C   UNL     1       0.770  10.922  19.793  0.00  0.00    +0.000 A 
ATOM      4  C   UNL     1       0.440  10.951  21.160  0.00  0.00    +0.000 A 
ATOM      5  C   UNL     1       0.661   9.795  21.917  0.00  0.00    +0.000 A 
ATOM      6  C   UNL     1       1.189   8.639  21.314  0.00  0.00    +0.000 A 
ENDROOT
BRANCH   1  12
ATOM      7  C   UNL     1       5.244   3.471  16.204  0.00  0.00    +0.000 C 
ATOM      8  C   UNL     1       4.287   4.076  17.197  0.00  0.00    +0.000 A 
ATOM      9  C   UNL     1       4.112   5.473  17.201  0.00  0.00    +0.000 A 
ATOM     10  C   UNL     1       3.242   6.058  18.130  0.00  0.00    +0.000 A 
ATOM     11  N   UNL     1       2.931   7.380  18.329  0.00  0.00    +0.000 NA
ATOM     12  C   UNL     1       2.094   7.410  19.348  0.00  0.00    +0.000 A 
ATOM     13  N   UNL     1       1.838   6.125  19.791  0.00  0.00    +0.000 N 
ATOM     14  C   UNL     1       2.570   5.247  19.030  0.00  0.00    +0.000 A 
ATOM     15  C   UNL     1       2.701   3.855  19.056  0.00  0.00    +0.000 A 
ATOM     16  C   UNL     1       3.573   3.270  18.114  0.00  0.00    +0.000 A 
ATOM     17  C   UNL     1       3.718   1.770  18.095  0.00  0.00    +0.000 C 
ATOM     18  H   UNL     1       1.240   5.879  20.560  0.00  0.00    +0.000 HD
ENDBRANCH   1  12
BRANCH   4  19
ATOM     19  C   UNL     1      -0.128  12.229  21.709  0.00  0.00    +0.000 C 
ATOM     20  O   UNL     1       0.116  13.280  21.114  0.00  0.00    +0.000 OA
ATOM     21  N   UNL     1      -0.914  12.158  22.858  0.00  0.00    +0.000 N 
ATOM     22  H   UNL     1      -1.136  11.284  23.310  0.00  0.00    +0.000 HD
BRANCH  21  23
ATOM     23  N   UNL     1      -1.461  13.308  23.356  0.00  0.00    +0.000 NA
ATOM     24  C   UNL     1      -2.755  13.372  23.411  0.00  0.00    +0.000 C 
BRANCH  24  25
ATOM     25  C   UNL     1      -3.437  14.584  23.923  0.00  0.00    +0.000 A 
ATOM     26  C   UNL     1      -2.766  15.462  24.778  0.00  0.00    +0.000 A 
ATOM     27  C   UNL     1      -3.416  16.599  25.268  0.00  0.00    +0.000 A 
ATOM     28  C   UNL     1      -4.735  16.852  24.901  0.00  0.00    +0.000 A 
ATOM     29 CL   UNL     1      -5.532  18.258  25.497  0.00  0.00    +0.000 Cl
ATOM     30  C   UNL     1      -5.410  15.984  24.040  0.00  0.00    +0.000 A 
ATOM     31  C   UNL     1      -4.760  14.848  23.546  0.00  0.00    +0.000 A 
ENDBRANCH  24  25
ENDBRANCH  21  23
ENDBRANCH   4  19
TORSDOF 4
ENDMDL
MODEL 8
REMARK VINA RESULT:      -7.4      4.290     12.287
REMARK  Name = 
REMARK  6 active torsions:
REMARK  status: ('A' for Active; 'I' for Inactive)
REMARK    1  A    between atoms: C_1  and  C_2
REMARK    2  A    between atoms: C_6  and  C_7
REMARK    3  A    between atoms: C_10  and  C_11
REMARK    4  A    between atoms: N_13  and  N_14
REMARK    5  A    between atoms: C_15  and  C_16
REMARK    6  A    between atoms: C_28  and  C_29
REMARK                            x       y       z     vdW  Elec       q    Type
REMARK                         _______ _______ _______ _____ _____    ______ ____
ROOT
ATOM      1  C   UNL     1       1.285   8.531  20.421  0.00  0.00    +0.000 A 
ATOM      2  C   UNL     1       1.118   8.462  21.805  0.00  0.00    +0.000 A 
ATOM      3  C   UNL     1       0.455   9.486  22.495  0.00  0.00    +0.000 A 
ATOM      4  C   UNL     1      -0.044  10.616  21.823  0.00  0.00    +0.000 A 
ATOM      5  C   UNL     1       0.122  10.686  20.436  0.00  0.00    +0.000 A 
ATOM      6  C   UNL     1       0.781   9.653  19.745  0.00  0.00    +0.000 A 
ENDROOT
BRANCH   1  12
ATOM      7  C   UNL     1       5.266   4.114  16.058  0.00  0.00    +0.000 C 
ATOM      8  C   UNL     1       4.290   4.536  17.124  0.00  0.00    +0.000 A 
ATOM      9  C   UNL     1       4.031   5.910  17.297  0.00  0.00    +0.000 A 
ATOM     10  C   UNL     1       3.141   6.325  18.296  0.00  0.00    +0.000 A 
ATOM     11  N   UNL     1       2.755   7.592  18.655  0.00  0.00    +0.000 NA
ATOM     12  C   UNL     1       1.933   7.448  19.677  0.00  0.00    +0.000 A 
ATOM     13  N   UNL     1       1.762   6.107  19.964  0.00  0.00    +0.000 N 
ATOM     14  C   UNL     1       2.534   5.372  19.098  0.00  0.00    +0.000 A 
ATOM     15  C   UNL     1       2.749   3.998  18.956  0.00  0.00    +0.000 A 
ATOM     16  C   UNL     1       3.640   3.584  17.944  0.00  0.00    +0.000 A 
ATOM     17  C   UNL     1       3.875   2.109  17.743  0.00  0.00    +0.000 C 
ATOM     18  H   UNL     1       1.191   5.735  20.703  0.00  0.00    +0.000 HD
ENDBRANCH   1  12
BRANCH   4  19
ATOM     19  C   UNL     1      -0.724  11.671  22.651  0.00  0.00    +0.000 C 
ATOM     20  O   UNL     1      -1.361  11.315  23.644  0.00  0.00    +0.000 OA
ATOM     21  N   UNL     1      -0.586  13.002  22.259  0.00  0.00    +0.000 N 
ATOM     22  H   UNL     1      -0.028  13.279  21.466  0.00  0.00    +0.000 HD
BRANCH  21  23
ATOM     23  N   UNL     1      -1.176  13.977  23.016  0.00  0.00    +0.000 NA
ATOM     24  C   UNL     1      -2.411  14.267  22.749  0.00  0.00    +0.000 C 
BRANCH  24  25
ATOM     25  C   UNL     1      -3.128  15.317  23.509  0.00  0.00    +0.000 A 
ATOM     26  C   UNL     1      -2.415  16.269  24.242  0.00  0.00    +0.000 A 
ATOM     27  C   UNL     1      -3.096  17.253  24.965  0.00  0.00    +0.000 A 
ATOM     28  C   UNL     1      -4.487  17.280  24.953  0.00  0.00    +0.000 A 
ATOM     29 CL   UNL     1      -5.325  18.498  25.837  0.00  0.00    +0.000 Cl
ATOM     30  C   UNL     1      -5.208  16.338  24.216  0.00  0.00    +0.000 A 
ATOM     31  C   UNL     1      -4.529  15.355  23.488  0.00  0.00    +0.000 A 
ENDBRANCH  24  25
ENDBRANCH  21  23
ENDBRANCH   4  19
TORSDOF 4
ENDMDL
MODEL 9
REMARK VINA RESULT:      -7.3      4.104     12.312
REMARK  Name = 
REMARK  6 active torsions:
REMARK  status: ('A' for Active; 'I' for Inactive)
REMARK    1  A    between atoms: C_1  and  C_2
REMARK    2  A    between atoms: C_6  and  C_7
REMARK    3  A    between atoms: C_10  and  C_11
REMARK    4  A    between atoms: N_13  and  N_14
REMARK    5  A    between atoms: C_15  and  C_16
REMARK    6  A    between atoms: C_28  and  C_29
REMARK                            x       y       z     vdW  Elec       q    Type
REMARK                         _______ _______ _______ _____ _____    ______ ____
ROOT
ATOM      1  C   UNL     1       1.720   8.246  19.603  0.00  0.00    +0.000 A 
ATOM      2  C   UNL     1       1.168   9.458  19.184  0.00  0.00    +0.000 A 
ATOM      3  C   UNL     1       0.407  10.238  20.067  0.00  0.00    +0.000 A 
ATOM      4  C   UNL     1       0.162   9.819  21.387  0.00  0.00    +0.000 A 
ATOM      5  C   UNL     1       0.715   8.604  21.807  0.00  0.00    +0.000 A 
ATOM      6  C   UNL     1       1.485   7.829  20.922  0.00  0.00    +0.000 A 
ENDROOT
BRANCH   1  12
ATOM      7  C   UNL     1       6.490   5.433  14.731  0.00  0.00    +0.000 C 
ATOM      8  C   UNL     1       5.429   5.483  15.800  0.00  0.00    +0.000 A 
ATOM      9  C   UNL     1       4.943   6.740  16.209  0.00  0.00    +0.000 A 
ATOM     10  C   UNL     1       3.971   6.809  17.215  0.00  0.00    +0.000 A 
ATOM     11  N   UNL     1       3.370   7.907  17.780  0.00  0.00    +0.000 NA
ATOM     12  C   UNL     1       2.558   7.442  18.709  0.00  0.00    +0.000 A 
ATOM     13  N   UNL     1       2.603   6.060  18.732  0.00  0.00    +0.000 N 
ATOM     14  C   UNL     1       3.509   5.637  17.791  0.00  0.00    +0.000 A 
ATOM     15  C   UNL     1       3.952   4.368  17.409  0.00  0.00    +0.000 A 
ATOM     16  C   UNL     1       4.925   4.301  16.391  0.00  0.00    +0.000 A 
ATOM     17  C   UNL     1       5.406   2.948  15.933  0.00  0.00    +0.000 C 
ATOM     18  H   UNL     1       2.083   5.468  19.356  0.00  0.00    +0.000 HD
ENDBRANCH   1  12
BRANCH   4  19
ATOM     19  C   UNL     1      -0.682  10.712  22.252  0.00  0.00    +0.000 C 
ATOM     20  O   UNL     1      -0.657  10.535  23.472  0.00  0.00    +0.000 OA
ATOM     21  N   UNL     1      -1.439  11.704  21.631  0.00  0.00    +0.000 N 
ATOM     22  H   UNL     1      -1.417  11.859  20.635  0.00  0.00    +0.000 HD
BRANCH  21  23
ATOM     23  N   UNL     1      -2.191  12.542  22.407  0.00  0.00    +0.000 NA
ATOM     24  C   UNL     1      -1.953  13.813  22.307  0.00  0.00    +0.000 C 
BRANCH  24  25
ATOM     25  C   UNL     1      -2.710  14.796  23.117  0.00  0.00    +0.000 A 
ATOM     26  C   UNL     1      -4.081  14.971  22.914  0.00  0.00    +0.000 A 
ATOM     27  C   UNL     1      -4.789  15.907  23.674  0.00  0.00    +0.000 A 
ATOM     28  C   UNL     1      -4.123  16.663  24.634  0.00  0.00    +0.000 A 
ATOM     29 CL   UNL     1      -4.999  17.810  25.576  0.00  0.00    +0.000 Cl
ATOM     30  C   UNL     1      -2.754  16.489  24.849  0.00  0.00    +0.000 A 
ATOM     31  C   UNL     1      -2.044  15.550  24.093  0.00  0.00    +0.000 A 
ENDBRANCH  24  25
ENDBRANCH  21  23
ENDBRANCH   4  19
TORSDOF 4
ENDMDL
