MODEL 1
REMARK VINA RESULT:      -7.9      0.000      0.000
REMARK  Name = 
REMARK  12 active torsions:
REMARK  status: ('A' for Active; 'I' for Inactive)
REMARK    1  A    between atoms: C_1  and  C_2
REMARK    2  A    between atoms: C_2  and  N_3
REMARK    3  A    between atoms: C_4  and  S_5
REMARK    4  A    between atoms: S_5  and  C_6
REMARK    5  A    between atoms: C_6  and  C_7
REMARK    6  A    between atoms: N_9  and  N_10
REMARK    7  A    between atoms: C_11  and  C_13
REMARK    8  A    between atoms: C_16  and  O_17
REMARK    9  A    between atoms: O_17  and  C_18
REMARK   10  A    between atoms: C_23  and  C_24
REMARK   11  A    between atoms: C_24  and  C_25
REMARK   12  A    between atoms: C_24  and  C_26
REMARK                            x       y       z     vdW  Elec       q    Type
REMARK                         _______ _______ _______ _____ _____    ______ ____
ROOT
ATOM      1  C   UNL     1       7.473   5.661  19.005  0.00  0.00    +0.000 C 
ATOM      2  O   UNL     1       7.876   5.609  20.168  0.00  0.00    +0.000 OA
ATOM      3  N   UNL     1       7.786   6.745  18.193  0.00  0.00    +0.000 N 
ATOM      4  H   UNL     1       7.377   6.913  17.274  0.00  0.00    +0.000 HD
ENDROOT
BRANCH   3   5
ATOM      5  N   UNL     1       8.499   7.826  18.764  0.00  0.00    +0.000 N 
ATOM      6  C   UNL     1       8.366   9.087  18.210  0.00  0.00    +0.000 C 
ATOM      7  O   UNL     1       7.640   9.299  17.240  0.00  0.00    +0.000 OA
ATOM      8  H   UNL     1       9.120   7.592  19.534  0.00  0.00    +0.000 HD
BRANCH   6   9
ATOM      9  C   UNL     1       9.170  10.202  18.812  0.00  0.00    +0.000 A 
ATOM     10  C   UNL     1       9.899  11.033  17.949  0.00  0.00    +0.000 A 
ATOM     11  C   UNL     1      10.679  12.081  18.455  0.00  0.00    +0.000 A 
ATOM     12  C   UNL     1      10.720  12.337  19.826  0.00  0.00    +0.000 A 
ATOM     13  C   UNL     1       9.993  11.522  20.695  0.00  0.00    +0.000 A 
ATOM     14  C   UNL     1       9.219  10.458  20.190  0.00  0.00    +0.000 A 
BRANCH  12  15
ATOM     15  O   UNL     1      11.526  13.377  20.200  0.00  0.00    +0.000 OA
ATOM     16  C   UNL     1      10.906  14.656  20.272  0.00  0.00    +0.000 C 
ENDBRANCH  12  15
ENDBRANCH   6   9
ENDBRANCH   3   5
BRANCH   1  17
ATOM     17  C   UNL     1       6.638   4.572  18.314  0.00  0.00    +0.000 C 
BRANCH  17  18
ATOM     18  S   UNL     1       5.278   5.299  17.328  0.00  0.00    +0.000 S 
BRANCH  18  20
ATOM     19  N   UNL     1       3.399   4.290  19.066  0.00  0.00    +0.000 N 
ATOM     20  C   UNL     1       3.966   5.387  18.458  0.00  0.00    +0.000 A 
ATOM     21  N   UNL     1       3.354   6.474  18.862  0.00  0.00    +0.000 NA
ATOM     22  N   UNL     1       2.371   6.094  19.751  0.00  0.00    +0.000 NA
ATOM     23  C   UNL     1       2.389   4.781  19.871  0.00  0.00    +0.000 A 
BRANCH  23  24
ATOM     24  C   UNL     1       1.474   3.960  20.745  0.00  0.00    +0.000 C 
ATOM     25  C   UNL     1       0.539   3.096  19.899  0.00  0.00    +0.000 C 
ATOM     26  C   UNL     1       2.261   3.062  21.703  0.00  0.00    +0.000 C 
ENDBRANCH  23  24
BRANCH  19  28
ATOM     27  C   UNL     1       3.166   2.226  17.724  0.00  0.00    +0.000 C 
ATOM     28  C   UNL     1       3.790   2.902  18.933  0.00  0.00    +0.000 C 
ENDBRANCH  19  28
ENDBRANCH  18  20
ENDBRANCH  17  18
ENDBRANCH   1  17
TORSDOF 8
ENDMDL
MODEL 2
REMARK VINA RESULT:      -7.7      4.489      7.151
REMARK  Name = 
REMARK  12 active torsions:
REMARK  status: ('A' for Active; 'I' for Inactive)
REMARK    1  A    between atoms: C_1  and  C_2
REMARK    2  A    between atoms: C_2  and  N_3
REMARK    3  A    between atoms: C_4  and  S_5
REMARK    4  A    between atoms: S_5  and  C_6
REMARK    5  A    between atoms: C_6  and  C_7
REMARK    6  A    between atoms: N_9  and  N_10
REMARK    7  A    between atoms: C_11  and  C_13
REMARK    8  A    between atoms: C_16  and  O_17
REMARK    9  A    between atoms: O_17  and  C_18
REMARK   10  A    between atoms: C_23  and  C_24
REMARK   11  A    between atoms: C_24  and  C_25
REMARK   12  A    between atoms: C_24  and  C_26
REMARK                            x       y       z     vdW  Elec       q    Type
REMARK                         _______ _______ _______ _____ _____    ______ ____
ROOT
ATOM      1  C   UNL     1       1.987   4.026  20.898  0.00  0.00    +0.000 C 
ATOM      2  O   UNL     1       0.844   4.019  20.437  0.00  0.00    +0.000 OA
ATOM      3  N   UNL     1       2.605   5.223  21.244  0.00  0.00    +0.000 N 
ATOM      4  H   UNL     1       3.589   5.309  21.501  0.00  0.00    +0.000 HD
ENDROOT
BRANCH   3   5
ATOM      5  N   UNL     1       1.926   6.433  20.966  0.00  0.00    +0.000 N 
ATOM      6  C   UNL     1       2.248   7.137  19.819  0.00  0.00    +0.000 C 
ATOM      7  O   UNL     1       3.102   6.738  19.028  0.00  0.00    +0.000 OA
ATOM      8  H   UNL     1       1.263   6.743  21.671  0.00  0.00    +0.000 HD
BRANCH   6   9
ATOM      9  C   UNL     1       1.540   8.438  19.578  0.00  0.00    +0.000 A 
ATOM     10  C   UNL     1       1.652   9.027  18.309  0.00  0.00    +0.000 A 
ATOM     11  C   UNL     1       1.025  10.248  18.030  0.00  0.00    +0.000 A 
ATOM     12  C   UNL     1       0.250  10.886  19.000  0.00  0.00    +0.000 A 
ATOM     13  C   UNL     1       0.126  10.307  20.264  0.00  0.00    +0.000 A 
ATOM     14  C   UNL     1       0.767   9.086  20.552  0.00  0.00    +0.000 A 
BRANCH  12  15
ATOM     15  O   UNL     1      -0.300  12.077  18.615  0.00  0.00    +0.000 OA
ATOM     16  C   UNL     1      -1.595  12.009  18.029  0.00  0.00    +0.000 C 
ENDBRANCH  12  15
ENDBRANCH   6   9
ENDBRANCH   3   5
BRANCH   1  17
ATOM     17  C   UNL     1       2.833   2.773  21.174  0.00  0.00    +0.000 C 
BRANCH  17  18
ATOM     18  S   UNL     1       3.651   2.172  19.652  0.00  0.00    +0.000 S 
BRANCH  18  20
ATOM     19  N   UNL     1       4.841   3.992  17.967  0.00  0.00    +0.000 N 
ATOM     20  C   UNL     1       4.724   3.469  19.234  0.00  0.00    +0.000 A 
ATOM     21  N   UNL     1       5.545   4.094  20.042  0.00  0.00    +0.000 NA
ATOM     22  N   UNL     1       6.214   5.047  19.302  0.00  0.00    +0.000 NA
ATOM     23  C   UNL     1       5.799   4.984  18.053  0.00  0.00    +0.000 A 
BRANCH  23  24
ATOM     24  C   UNL     1       6.280   5.853  16.917  0.00  0.00    +0.000 C 
ATOM     25  C   UNL     1       5.125   6.654  16.314  0.00  0.00    +0.000 C 
ATOM     26  C   UNL     1       7.381   6.816  17.368  0.00  0.00    +0.000 C 
ENDBRANCH  23  24
BRANCH  19  28
ATOM     27  C   UNL     1       2.594   3.768  16.958  0.00  0.00    +0.000 C 
ATOM     28  C   UNL     1       4.096   3.621  16.782  0.00  0.00    +0.000 C 
ENDBRANCH  19  28
ENDBRANCH  18  20
ENDBRANCH  17  18
ENDBRANCH   1  17
TORSDOF 8
ENDMDL
MODEL 3
REMARK VINA RESULT:      -7.7      4.302      7.056
REMARK  Name = 
REMARK  12 active torsions:
REMARK  status: ('A' for Active; 'I' for Inactive)
REMARK    1  A    between atoms: C_1  and  C_2
REMARK    2  A    between atoms: C_2  and  N_3
REMARK    3  A    between atoms: C_4  and  S_5
REMARK    4  A    between atoms: S_5  and  C_6
REMARK    5  A    between atoms: C_6  and  C_7
REMARK    6  A    between atoms: N_9  and  N_10
REMARK    7  A    between atoms: C_11  and  C_13
REMARK    8  A    between atoms: C_16  and  O_17
REMARK    9  A    between atoms: O_17  and  C_18
REMARK   10  A    between atoms: C_23  and  C_24
REMARK   11  A    between atoms: C_24  and  C_25
REMARK   12  A    between atoms: C_24  and  C_26
REMARK                            x       y       z     vdW  Elec       q    Type
REMARK                         _______ _______ _______ _____ _____    ______ ____
ROOT
ATOM      1  C   UNL     1       1.858   3.834  20.372  0.00  0.00    +0.000 C 
ATOM      2  O   UNL     1       0.658   3.936  20.116  0.00  0.00    +0.000 OA
ATOM      3  N   UNL     1       2.591   4.938  20.794  0.00  0.00    +0.000 N 
ATOM      4  H   UNL     1       3.606   4.952  20.891  0.00  0.00    +0.000 HD
ENDROOT
BRANCH   3   5
ATOM      5  N   UNL     1       1.944   6.197  20.830  0.00  0.00    +0.000 N 
ATOM      6  C   UNL     1       2.212   7.119  19.832  0.00  0.00    +0.000 C 
ATOM      7  O   UNL     1       2.988   6.874  18.911  0.00  0.00    +0.000 OA
ATOM      8  H   UNL     1       1.348   6.368  21.635  0.00  0.00    +0.000 HD
BRANCH   6   9
ATOM      9  C   UNL     1       1.544   8.459  19.925  0.00  0.00    +0.000 A 
ATOM     10  C   UNL     1       1.380   9.200  18.746  0.00  0.00    +0.000 A 
ATOM     11  C   UNL     1       0.776  10.463  18.773  0.00  0.00    +0.000 A 
ATOM     12  C   UNL     1       0.297  10.995  19.971  0.00  0.00    +0.000 A 
ATOM     13  C   UNL     1       0.448  10.265  21.151  0.00  0.00    +0.000 A 
ATOM     14  C   UNL     1       1.068   9.000  21.129  0.00  0.00    +0.000 A 
BRANCH  12  15
ATOM     15  O   UNL     1      -0.260  12.241  19.873  0.00  0.00    +0.000 OA
ATOM     16  C   UNL     1       0.439  13.293  20.529  0.00  0.00    +0.000 C 
ENDBRANCH  12  15
ENDBRANCH   6   9
ENDBRANCH   3   5
BRANCH   1  17
ATOM     17  C   UNL     1       2.666   2.528  20.300  0.00  0.00    +0.000 C 
BRANCH  17  18
ATOM     18  S   UNL     1       3.602   2.409  18.732  0.00  0.00    +0.000 S 
BRANCH  18  20
ATOM     19  N   UNL     1       5.253   4.416  17.831  0.00  0.00    +0.000 N 
ATOM     20  C   UNL     1       4.798   3.656  18.884  0.00  0.00    +0.000 A 
ATOM     21  N   UNL     1       5.413   4.019  19.983  0.00  0.00    +0.000 NA
ATOM     22  N   UNL     1       6.286   5.036  19.657  0.00  0.00    +0.000 NA
ATOM     23  C   UNL     1       6.198   5.272  18.363  0.00  0.00    +0.000 A 
BRANCH  23  24
ATOM     24  C   UNL     1       6.986   6.307  17.598  0.00  0.00    +0.000 C 
ATOM     25  C   UNL     1       6.067   7.397  17.046  0.00  0.00    +0.000 C 
ATOM     26  C   UNL     1       8.067   6.953  18.469  0.00  0.00    +0.000 C 
ENDBRANCH  23  24
BRANCH  19  28
ATOM     27  C   UNL     1       5.835   3.713  15.532  0.00  0.00    +0.000 C 
ATOM     28  C   UNL     1       4.818   4.371  16.451  0.00  0.00    +0.000 C 
ENDBRANCH  19  28
ENDBRANCH  18  20
ENDBRANCH  17  18
ENDBRANCH   1  17
TORSDOF 8
ENDMDL
MODEL 4
REMARK VINA RESULT:      -7.6      1.605      2.006
REMARK  Name = 
REMARK  12 active torsions:
REMARK  status: ('A' for Active; 'I' for Inactive)
REMARK    1  A    between atoms: C_1  and  C_2
REMARK    2  A    between atoms: C_2  and  N_3
REMARK    3  A    between atoms: C_4  and  S_5
REMARK    4  A    between atoms: S_5  and  C_6
REMARK    5  A    between atoms: C_6  and  C_7
REMARK    6  A    between atoms: N_9  and  N_10
REMARK    7  A    between atoms: C_11  and  C_13
REMARK    8  A    between atoms: C_16  and  O_17
REMARK    9  A    between atoms: O_17  and  C_18
REMARK   10  A    between atoms: C_23  and  C_24
REMARK   11  A    between atoms: C_24  and  C_25
REMARK   12  A    between atoms: C_24  and  C_26
REMARK                            x       y       z     vdW  Elec       q    Type
REMARK                         _______ _______ _______ _____ _____    ______ ____
ROOT
ATOM      1  C   UNL     1       7.538   7.081  17.821  0.00  0.00    +0.000 C 
ATOM      2  O   UNL     1       7.416   7.340  16.623  0.00  0.00    +0.000 OA
ATOM      3  N   UNL     1       8.126   7.996  18.688  0.00  0.00    +0.000 N 
ATOM      4  H   UNL     1       8.377   7.792  19.656  0.00  0.00    +0.000 HD
ENDROOT
BRANCH   3   5
ATOM      5  N   UNL     1       8.663   9.187  18.143  0.00  0.00    +0.000 N 
ATOM      6  C   UNL     1       9.098  10.182  19.001  0.00  0.00    +0.000 C 
ATOM      7  O   UNL     1       9.039  10.060  20.223  0.00  0.00    +0.000 OA
ATOM      8  H   UNL     1       8.648   9.258  17.130  0.00  0.00    +0.000 HD
BRANCH   6   9
ATOM      9  C   UNL     1       9.620  11.449  18.389  0.00  0.00    +0.000 A 
ATOM     10  C   UNL     1      10.943  11.462  17.922  0.00  0.00    +0.000 A 
ATOM     11  C   UNL     1      11.489  12.620  17.354  0.00  0.00    +0.000 A 
ATOM     12  C   UNL     1      10.717  13.774  17.214  0.00  0.00    +0.000 A 
ATOM     13  C   UNL     1       9.398  13.772  17.669  0.00  0.00    +0.000 A 
ATOM     14  C   UNL     1       8.849  12.613  18.253  0.00  0.00    +0.000 A 
BRANCH  12  15
ATOM     15  O   UNL     1      11.364  14.843  16.659  0.00  0.00    +0.000 OA
ATOM     16  C   UNL     1      11.154  16.101  17.290  0.00  0.00    +0.000 C 
ENDBRANCH  12  15
ENDBRANCH   6   9
ENDBRANCH   3   5
BRANCH   1  17
ATOM     17  C   UNL     1       7.049   5.791  18.498  0.00  0.00    +0.000 C 
BRANCH  17  18
ATOM     18  S   UNL     1       5.803   4.930  17.471  0.00  0.00    +0.000 S 
BRANCH  18  20
ATOM     19  N   UNL     1       3.670   4.194  19.045  0.00  0.00    +0.000 N 
ATOM     20  C   UNL     1       4.324   5.179  18.342  0.00  0.00    +0.000 A 
ATOM     21  N   UNL     1       3.651   6.300  18.433  0.00  0.00    +0.000 NA
ATOM     22  N   UNL     1       2.537   6.057  19.210  0.00  0.00    +0.000 NA
ATOM     23  C   UNL     1       2.541   4.790  19.573  0.00  0.00    +0.000 A 
BRANCH  23  24
ATOM     24  C   UNL     1       1.499   4.112  20.428  0.00  0.00    +0.000 C 
ATOM     25  C   UNL     1       0.764   3.027  19.639  0.00  0.00    +0.000 C 
ATOM     26  C   UNL     1       2.114   3.491  21.685  0.00  0.00    +0.000 C 
ENDBRANCH  23  24
BRANCH  19  28
ATOM     27  C   UNL     1       3.774   1.937  18.037  0.00  0.00    +0.000 C 
ATOM     28  C   UNL     1       4.082   2.819  19.236  0.00  0.00    +0.000 C 
ENDBRANCH  19  28
ENDBRANCH  18  20
ENDBRANCH  17  18
ENDBRANCH   1  17
TORSDOF 8
ENDMDL
MODEL 5
REMARK VINA RESULT:      -7.5      1.049      1.481
REMARK  Name = 
REMARK  12 active torsions:
REMARK  status: ('A' for Active; 'I' for Inactive)
REMARK    1  A    between atoms: C_1  and  C_2
REMARK    2  A    between atoms: C_2  and  N_3
REMARK    3  A    between atoms: C_4  and  S_5
REMARK    4  A    between atoms: S_5  and  C_6
REMARK    5  A    between atoms: C_6  and  C_7
REMARK    6  A    between atoms: N_9  and  N_10
REMARK    7  A    between atoms: C_11  and  C_13
REMARK    8  A    between atoms: C_16  and  O_17
REMARK    9  A    between atoms: O_17  and  C_18
REMARK   10  A    between atoms: C_23  and  C_24
REMARK   11  A    between atoms: C_24  and  C_25
REMARK   12  A    between atoms: C_24  and  C_26
REMARK                            x       y       z     vdW  Elec       q    Type
REMARK                         _______ _______ _______ _____ _____    ______ ____
ROOT
ATOM      1  C   UNL     1       7.867   5.686  18.869  0.00  0.00    +0.000 C 
ATOM      2  O   UNL     1       8.353   5.583  19.997  0.00  0.00    +0.000 OA
ATOM      3  N   UNL     1       7.956   6.882  18.165  0.00  0.00    +0.000 N 
ATOM      4  H   UNL     1       7.464   7.075  17.293  0.00  0.00    +0.000 HD
ENDROOT
BRANCH   3   5
ATOM      5  N   UNL     1       8.535   8.000  18.814  0.00  0.00    +0.000 N 
ATOM      6  C   UNL     1       8.463   9.241  18.206  0.00  0.00    +0.000 C 
ATOM      7  O   UNL     1       7.905   9.405  17.123  0.00  0.00    +0.000 OA
ATOM      8  H   UNL     1       9.025   7.805  19.683  0.00  0.00    +0.000 HD
BRANCH   6   9
ATOM      9  C   UNL     1       9.126  10.395  18.899  0.00  0.00    +0.000 A 
ATOM     10  C   UNL     1       9.594  11.459  18.114  0.00  0.00    +0.000 A 
ATOM     11  C   UNL     1      10.232  12.557  18.703  0.00  0.00    +0.000 A 
ATOM     12  C   UNL     1      10.388  12.627  20.089  0.00  0.00    +0.000 A 
ATOM     13  C   UNL     1       9.922  11.578  20.882  0.00  0.00    +0.000 A 
ATOM     14  C   UNL     1       9.291  10.466  20.291  0.00  0.00    +0.000 A 
BRANCH  12  15
ATOM     15  O   UNL     1      11.039  13.740  20.545  0.00  0.00    +0.000 OA
ATOM     16  C   UNL     1      11.762  14.487  19.573  0.00  0.00    +0.000 C 
ENDBRANCH  12  15
ENDBRANCH   6   9
ENDBRANCH   3   5
BRANCH   1  17
ATOM     17  C   UNL     1       7.160   4.554  18.107  0.00  0.00    +0.000 C 
BRANCH  17  18
ATOM     18  S   UNL     1       5.436   5.004  17.693  0.00  0.00    +0.000 S 
BRANCH  18  20
ATOM     19  N   UNL     1       3.162   4.281  19.063  0.00  0.00    +0.000 N 
ATOM     20  C   UNL     1       4.498   4.067  18.811  0.00  0.00    +0.000 A 
ATOM     21  N   UNL     1       4.926   3.070  19.547  0.00  0.00    +0.000 NA
ATOM     22  N   UNL     1       3.860   2.615  20.295  0.00  0.00    +0.000 NA
ATOM     23  C   UNL     1       2.800   3.345  20.012  0.00  0.00    +0.000 A 
BRANCH  23  24
ATOM     24  C   UNL     1       1.426   3.179  20.614  0.00  0.00    +0.000 C 
ATOM     25  C   UNL     1       0.514   2.377  19.684  0.00  0.00    +0.000 C 
ATOM     26  C   UNL     1       1.486   2.488  21.979  0.00  0.00    +0.000 C 
ENDBRANCH  23  24
BRANCH  19  28
ATOM     27  C   UNL     1       1.417   4.659  17.352  0.00  0.00    +0.000 C 
ATOM     28  C   UNL     1       2.288   5.256  18.444  0.00  0.00    +0.000 C 
ENDBRANCH  19  28
ENDBRANCH  18  20
ENDBRANCH  17  18
ENDBRANCH   1  17
TORSDOF 8
ENDMDL
MODEL 6
REMARK VINA RESULT:      -7.4      5.093      7.134
REMARK  Name = 
REMARK  12 active torsions:
REMARK  status: ('A' for Active; 'I' for Inactive)
REMARK    1  A    between atoms: C_1  and  C_2
REMARK    2  A    between atoms: C_2  and  N_3
REMARK    3  A    between atoms: C_4  and  S_5
REMARK    4  A    between atoms: S_5  and  C_6
REMARK    5  A    between atoms: C_6  and  C_7
REMARK    6  A    between atoms: N_9  and  N_10
REMARK    7  A    between atoms: C_11  and  C_13
REMARK    8  A    between atoms: C_16  and  O_17
REMARK    9  A    between atoms: O_17  and  C_18
REMARK   10  A    between atoms: C_23  and  C_24
REMARK   11  A    between atoms: C_24  and  C_25
REMARK   12  A    between atoms: C_24  and  C_26
REMARK                            x       y       z     vdW  Elec       q    Type
REMARK                         _______ _______ _______ _____ _____    ______ ____
ROOT
ATOM      1  C   UNL     1       1.769   3.880  20.693  0.00  0.00    +0.000 C 
ATOM      2  O   UNL     1       0.620   3.999  20.265  0.00  0.00    +0.000 OA
ATOM      3  N   UNL     1       2.492   4.996  21.103  0.00  0.00    +0.000 N 
ATOM      4  H   UNL     1       3.484   4.984  21.337  0.00  0.00    +0.000 HD
ENDROOT
BRANCH   3   5
ATOM      5  N   UNL     1       1.908   6.274  20.929  0.00  0.00    +0.000 N 
ATOM      6  C   UNL     1       2.236   7.016  19.808  0.00  0.00    +0.000 C 
ATOM      7  O   UNL     1       3.015   6.596  18.954  0.00  0.00    +0.000 OA
ATOM      8  H   UNL     1       1.308   6.595  21.684  0.00  0.00    +0.000 HD
BRANCH   6   9
ATOM      9  C   UNL     1       1.634   8.384  19.678  0.00  0.00    +0.000 A 
ATOM     10  C   UNL     1       1.021   8.948  20.807  0.00  0.00    +0.000 A 
ATOM     11  C   UNL     1       0.431  10.216  20.741  0.00  0.00    +0.000 A 
ATOM     12  C   UNL     1       0.468  10.956  19.559  0.00  0.00    +0.000 A 
ATOM     13  C   UNL     1       1.080  10.409  18.430  0.00  0.00    +0.000 A 
ATOM     14  C   UNL     1       1.664   9.128  18.489  0.00  0.00    +0.000 A 
BRANCH  12  15
ATOM     15  O   UNL     1      -0.155  12.173  19.614  0.00  0.00    +0.000 OA
ATOM     16  C   UNL     1       0.056  13.036  18.502  0.00  0.00    +0.000 C 
ENDBRANCH  12  15
ENDBRANCH   6   9
ENDBRANCH   3   5
BRANCH   1  17
ATOM     17  C   UNL     1       2.515   2.547  20.857  0.00  0.00    +0.000 C 
BRANCH  17  18
ATOM     18  S   UNL     1       4.235   2.665  20.245  0.00  0.00    +0.000 S 
BRANCH  18  20
ATOM     19  N   UNL     1       4.993   3.926  17.920  0.00  0.00    +0.000 N 
ATOM     20  C   UNL     1       4.043   3.208  18.609  0.00  0.00    +0.000 A 
ATOM     21  N   UNL     1       2.997   3.021  17.842  0.00  0.00    +0.000 NA
ATOM     22  N   UNL     1       3.257   3.619  16.627  0.00  0.00    +0.000 NA
ATOM     23  C   UNL     1       4.454   4.171  16.673  0.00  0.00    +0.000 A 
BRANCH  23  24
ATOM     24  C   UNL     1       5.121   4.929  15.552  0.00  0.00    +0.000 C 
ATOM     25  C   UNL     1       5.222   6.418  15.882  0.00  0.00    +0.000 C 
ATOM     26  C   UNL     1       6.520   4.383  15.253  0.00  0.00    +0.000 C 
ENDBRANCH  23  24
BRANCH  19  28
ATOM     27  C   UNL     1       6.286   5.572  19.239  0.00  0.00    +0.000 C 
ATOM     28  C   UNL     1       6.310   4.321  18.377  0.00  0.00    +0.000 C 
ENDBRANCH  19  28
ENDBRANCH  18  20
ENDBRANCH  17  18
ENDBRANCH   1  17
TORSDOF 8
ENDMDL
MODEL 7
REMARK VINA RESULT:      -7.4      4.581      6.913
REMARK  Name = 
REMARK  12 active torsions:
REMARK  status: ('A' for Active; 'I' for Inactive)
REMARK    1  A    between atoms: C_1  and  C_2
REMARK    2  A    between atoms: C_2  and  N_3
REMARK    3  A    between atoms: C_4  and  S_5
REMARK    4  A    between atoms: S_5  and  C_6
REMARK    5  A    between atoms: C_6  and  C_7
REMARK    6  A    between atoms: N_9  and  N_10
REMARK    7  A    between atoms: C_11  and  C_13
REMARK    8  A    between atoms: C_16  and  O_17
REMARK    9  A    between atoms: O_17  and  C_18
REMARK   10  A    between atoms: C_23  and  C_24
REMARK   11  A    between atoms: C_24  and  C_25
REMARK   12  A    between atoms: C_24  and  C_26
REMARK                            x       y       z     vdW  Elec       q    Type
REMARK                         _______ _______ _______ _____ _____    ______ ____
ROOT
ATOM      1  C   UNL     1       1.683   3.919  18.263  0.00  0.00    +0.000 C 
ATOM      2  O   UNL     1       1.106   4.304  17.245  0.00  0.00    +0.000 OA
ATOM      3  N   UNL     1       2.139   4.832  19.208  0.00  0.00    +0.000 N 
ATOM      4  H   UNL     1       2.738   4.592  19.998  0.00  0.00    +0.000 HD
ENDROOT
BRANCH   3   5
ATOM      5  N   UNL     1       2.006   6.213  18.925  0.00  0.00    +0.000 N 
ATOM      6  C   UNL     1       1.762   7.092  19.965  0.00  0.00    +0.000 C 
ATOM      7  O   UNL     1       1.665   6.711  21.130  0.00  0.00    +0.000 OA
ATOM      8  H   UNL     1       2.049   6.471  17.943  0.00  0.00    +0.000 HD
BRANCH   6   9
ATOM      9  C   UNL     1       1.582   8.542  19.624  0.00  0.00    +0.000 A 
ATOM     10  C   UNL     1       2.073   8.998  18.391  0.00  0.00    +0.000 A 
ATOM     11  C   UNL     1       1.946  10.343  18.024  0.00  0.00    +0.000 A 
ATOM     12  C   UNL     1       1.301  11.250  18.866  0.00  0.00    +0.000 A 
ATOM     13  C   UNL     1       0.802  10.808  20.092  0.00  0.00    +0.000 A 
ATOM     14  C   UNL     1       0.940   9.458  20.470  0.00  0.00    +0.000 A 
BRANCH  12  15
ATOM     15  O   UNL     1       1.251  12.537  18.406  0.00  0.00    +0.000 OA
ATOM     16  C   UNL     1      -0.038  13.139  18.361  0.00  0.00    +0.000 C 
ENDBRANCH  12  15
ENDBRANCH   6   9
ENDBRANCH   3   5
BRANCH   1  17
ATOM     17  C   UNL     1       1.936   2.448  18.630  0.00  0.00    +0.000 C 
BRANCH  17  18
ATOM     18  S   UNL     1       3.539   1.862  17.971  0.00  0.00    +0.000 S 
BRANCH  18  20
ATOM     19  N   UNL     1       5.132   4.040  17.433  0.00  0.00    +0.000 N 
ATOM     20  C   UNL     1       4.629   3.155  18.358  0.00  0.00    +0.000 A 
ATOM     21  N   UNL     1       5.109   3.442  19.543  0.00  0.00    +0.000 NA
ATOM     22  N   UNL     1       5.940   4.535  19.403  0.00  0.00    +0.000 NA
ATOM     23  C   UNL     1       5.962   4.892  18.135  0.00  0.00    +0.000 A 
BRANCH  23  24
ATOM     24  C   UNL     1       6.749   6.041  17.554  0.00  0.00    +0.000 C 
ATOM     25  C   UNL     1       5.826   7.199  17.172  0.00  0.00    +0.000 C 
ATOM     26  C   UNL     1       7.815   6.547  18.529  0.00  0.00    +0.000 C 
ENDBRANCH  23  24
BRANCH  19  28
ATOM     27  C   UNL     1       6.015   3.703  15.147  0.00  0.00    +0.000 C 
ATOM     28  C   UNL     1       4.836   4.106  16.016  0.00  0.00    +0.000 C 
ENDBRANCH  19  28
ENDBRANCH  18  20
ENDBRANCH  17  18
ENDBRANCH   1  17
TORSDOF 8
ENDMDL
MODEL 8
REMARK VINA RESULT:      -7.3      2.248      3.188
REMARK  Name = 
REMARK  12 active torsions:
REMARK  status: ('A' for Active; 'I' for Inactive)
REMARK    1  A    between atoms: C_1  and  C_2
REMARK    2  A    between atoms: C_2  and  N_3
REMARK    3  A    between atoms: C_4  and  S_5
REMARK    4  A    between atoms: S_5  and  C_6
REMARK    5  A    between atoms: C_6  and  C_7
REMARK    6  A    between atoms: N_9  and  N_10
REMARK    7  A    between atoms: C_11  and  C_13
REMARK    8  A    between atoms: C_16  and  O_17
REMARK    9  A    between atoms: O_17  and  C_18
REMARK   10  A    between atoms: C_23  and  C_24
REMARK   11  A    between atoms: C_24  and  C_25
REMARK   12  A    between atoms: C_24  and  C_26
REMARK                            x       y       z     vdW  Elec       q    Type
REMARK                         _______ _______ _______ _____ _____    ______ ____
ROOT
ATOM      1  C   UNL     1       8.104   8.058  18.145  0.00  0.00    +0.000 C 
ATOM      2  O   UNL     1       7.586   8.381  17.075  0.00  0.00    +0.000 OA
ATOM      3  N   UNL     1       8.810   8.988  18.900  0.00  0.00    +0.000 N 
ATOM      4  H   UNL     1       9.372   8.756  19.719  0.00  0.00    +0.000 HD
ENDROOT
BRANCH   3   5
ATOM      5  N   UNL     1       8.996  10.285  18.364  0.00  0.00    +0.000 N 
ATOM      6  C   UNL     1       9.900  11.139  18.970  0.00  0.00    +0.000 C 
ATOM      7  O   UNL     1      10.553  10.803  19.956  0.00  0.00    +0.000 OA
ATOM      8  H   UNL     1       8.401  10.530  17.578  0.00  0.00    +0.000 HD
BRANCH   6   9
ATOM      9  C   UNL     1      10.040  12.521  18.403  0.00  0.00    +0.000 A 
ATOM     10  C   UNL     1      11.124  12.781  17.551  0.00  0.00    +0.000 A 
ATOM     11  C   UNL     1      11.314  14.055  17.003  0.00  0.00    +0.000 A 
ATOM     12  C   UNL     1      10.409  15.084  17.269  0.00  0.00    +0.000 A 
ATOM     13  C   UNL     1       9.322  14.837  18.109  0.00  0.00    +0.000 A 
ATOM     14  C   UNL     1       9.136  13.560  18.673  0.00  0.00    +0.000 A 
BRANCH  12  15
ATOM     15  O   UNL     1      10.707  16.286  16.688  0.00  0.00    +0.000 OA
ATOM     16  C   UNL     1      10.318  17.447  17.414  0.00  0.00    +0.000 C 
ENDBRANCH  12  15
ENDBRANCH   6   9
ENDBRANCH   3   5
BRANCH   1  17
ATOM     17  C   UNL     1       8.016   6.661  18.780  0.00  0.00    +0.000 C 
BRANCH  17  18
ATOM     18  S   UNL     1       7.531   5.398  17.548  0.00  0.00    +0.000 S 
BRANCH  18  20
ATOM     19  N   UNL     1       4.920   4.553  17.368  0.00  0.00    +0.000 N 
ATOM     20  C   UNL     1       6.019   4.805  18.156  0.00  0.00    +0.000 A 
ATOM     21  N   UNL     1       5.730   4.538  19.406  0.00  0.00    +0.000 NA
ATOM     22  N   UNL     1       4.423   4.100  19.448  0.00  0.00    +0.000 NA
ATOM     23  C   UNL     1       3.930   4.114  18.226  0.00  0.00    +0.000 A 
BRANCH  23  24
ATOM     24  C   UNL     1       2.530   3.711  17.832  0.00  0.00    +0.000 C 
ATOM     25  C   UNL     1       2.459   2.216  17.521  0.00  0.00    +0.000 C 
ATOM     26  C   UNL     1       1.515   4.046  18.928  0.00  0.00    +0.000 C 
ENDBRANCH  23  24
BRANCH  19  28
ATOM     27  C   UNL     1       5.696   3.691  15.183  0.00  0.00    +0.000 C 
ATOM     28  C   UNL     1       4.813   4.677  15.929  0.00  0.00    +0.000 C 
ENDBRANCH  19  28
ENDBRANCH  18  20
ENDBRANCH  17  18
ENDBRANCH   1  17
TORSDOF 8
ENDMDL
MODEL 9
REMARK VINA RESULT:      -7.3      4.993      7.006
REMARK  Name = 
REMARK  12 active torsions:
REMARK  status: ('A' for Active; 'I' for Inactive)
REMARK    1  A    between atoms: C_1  and  C_2
REMARK    2  A    between atoms: C_2  and  N_3
REMARK    3  A    between atoms: C_4  and  S_5
REMARK    4  A    between atoms: S_5  and  C_6
REMARK    5  A    between atoms: C_6  and  C_7
REMARK    6  A    between atoms: N_9  and  N_10
REMARK    7  A    between atoms: C_11  and  C_13
REMARK    8  A    between atoms: C_16  and  O_17
REMARK    9  A    between atoms: O_17  and  C_18
REMARK   10  A    between atoms: C_23  and  C_24
REMARK   11  A    between atoms: C_24  and  C_25
REMARK   12  A    between atoms: C_24  and  C_26
REMARK                            x       y       z     vdW  Elec       q    Type
REMARK                         _______ _______ _______ _____ _____    ______ ____
ROOT
ATOM      1  C   UNL     1       1.871   4.101  20.531  0.00  0.00    +0.000 C 
ATOM      2  O   UNL     1       0.662   4.308  20.421  0.00  0.00    +0.000 OA
ATOM      3  N   UNL     1       2.760   5.158  20.691  0.00  0.00    +0.000 N 
ATOM      4  H   UNL     1       3.776   5.066  20.653  0.00  0.00    +0.000 HD
ENDROOT
BRANCH   3   5
ATOM      5  N   UNL     1       2.252   6.477  20.630  0.00  0.00    +0.000 N 
ATOM      6  C   UNL     1       2.246   7.140  19.415  0.00  0.00    +0.000 C 
ATOM      7  O   UNL     1       2.664   6.614  18.385  0.00  0.00    +0.000 OA
ATOM      8  H   UNL     1       1.962   6.883  21.515  0.00  0.00    +0.000 HD
BRANCH   6   9
ATOM      9  C   UNL     1       1.741   8.553  19.395  0.00  0.00    +0.000 A 
ATOM     10  C   UNL     1       1.038   9.020  20.515  0.00  0.00    +0.000 A 
ATOM     11  C   UNL     1       0.531  10.325  20.547  0.00  0.00    +0.000 A 
ATOM     12  C   UNL     1       0.744  11.196  19.477  0.00  0.00    +0.000 A 
ATOM     13  C   UNL     1       1.448  10.745  18.360  0.00  0.00    +0.000 A 
ATOM     14  C   UNL     1       1.947   9.429  18.319  0.00  0.00    +0.000 A 
BRANCH  12  15
ATOM     15  O   UNL     1       0.189  12.438  19.619  0.00  0.00    +0.000 OA
ATOM     16  C   UNL     1       0.889  13.345  20.464  0.00  0.00    +0.000 C 
ENDBRANCH  12  15
ENDBRANCH   6   9
ENDBRANCH   3   5
BRANCH   1  17
ATOM     17  C   UNL     1       2.529   2.712  20.542  0.00  0.00    +0.000 C 
BRANCH  17  18
ATOM     18  S   UNL     1       4.342   2.831  20.335  0.00  0.00    +0.000 S 
BRANCH  18  20
ATOM     19  N   UNL     1       5.309   4.447  18.329  0.00  0.00    +0.000 N 
ATOM     20  C   UNL     1       4.524   3.379  18.700  0.00  0.00    +0.000 A 
ATOM     21  N   UNL     1       3.949   2.872  17.637  0.00  0.00    +0.000 NA
ATOM     22  N   UNL     1       4.359   3.610  16.547  0.00  0.00    +0.000 NA
ATOM     23  C   UNL     1       5.171   4.563  16.959  0.00  0.00    +0.000 A 
BRANCH  23  24
ATOM     24  C   UNL     1       5.842   5.593  16.085  0.00  0.00    +0.000 C 
ATOM     25  C   UNL     1       6.295   4.976  14.761  0.00  0.00    +0.000 C 
ATOM     26  C   UNL     1       4.919   6.780  15.798  0.00  0.00    +0.000 C 
ENDBRANCH  23  24
BRANCH  19  28
ATOM     27  C   UNL     1       7.606   5.261  18.757  0.00  0.00    +0.000 C 
ATOM     28  C   UNL     1       6.146   5.270  19.178  0.00  0.00    +0.000 C 
ENDBRANCH  19  28
ENDBRANCH  18  20
ENDBRANCH  17  18
ENDBRANCH   1  17
TORSDOF 8
ENDMDL
