MODEL 1
REMARK VINA RESULT:      -8.4      0.000      0.000
REMARK  Name = 
REMARK  7 active torsions:
REMARK  status: ('A' for Active; 'I' for Inactive)
REMARK    1  A    between atoms: C_2  and  C_3
REMARK    2  A    between atoms: C_3  and  O_4
REMARK    3  A    between atoms: O_4  and  C_5
REMARK    4  A    between atoms: C_5  and  C_6
REMARK    5  A    between atoms: C_8  and  C_9
REMARK    6  A    between atoms: N_20  and  C_21
REMARK    7  A    between atoms: C_21  and  C_22
REMARK                            x       y       z     vdW  Elec       q    Type
REMARK                         _______ _______ _______ _____ _____    ______ ____
ROOT
ATOM      1  C   UNL     1       3.585   3.074  20.296  0.00  0.00    +0.000 C 
ENDROOT
BRANCH   1   2
ATOM      2  C   UNL     1       2.937   4.411  20.384  0.00  0.00    +0.000 A 
ATOM      3  C   UNL     1       3.200   5.543  19.582  0.00  0.00    +0.000 A 
ATOM      4  C   UNL     1       2.260   6.466  19.970  0.00  0.00    +0.000 A 
ATOM      5  O   UNL     1       1.501   5.925  20.964  0.00  0.00    +0.000 OA
ATOM      6  N   UNL     1       1.921   4.632  21.226  0.00  0.00    +0.000 NA
BRANCH   4   7
ATOM      7  C   UNL     1       1.909   7.810  19.528  0.00  0.00    +0.000 A 
ATOM      8  C   UNL     1       2.315   8.292  18.262  0.00  0.00    +0.000 A 
ATOM      9  C   UNL     1       2.011   9.594  17.847  0.00  0.00    +0.000 A 
ATOM     10  C   UNL     1       1.308  10.394  18.720  0.00  0.00    +0.000 A 
ATOM     11  C   UNL     1       0.901   9.938  19.947  0.00  0.00    +0.000 A 
ATOM     12  C   UNL     1       1.176   8.656  20.378  0.00  0.00    +0.000 A 
ATOM     13  O   UNL     1       0.230  10.882  20.659  0.00  0.00    +0.000 OA
ATOM     14  C   UNL     1       0.323  12.008  19.760  0.00  0.00    +0.000 C 
ATOM     15  O   UNL     1       0.947  11.683  18.502  0.00  0.00    +0.000 OA
ENDBRANCH   4   7
ENDBRANCH   1   2
BRANCH   1  16
ATOM     16  O   UNL     1       2.716   2.068  19.747  0.00  0.00    +0.000 OA
BRANCH  16  17
ATOM     17  C   UNL     1       3.169   1.612  18.468  0.00  0.00    +0.000 C 
BRANCH  17  19
ATOM     18  O   UNL     1       2.389   3.311  16.937  0.00  0.00    +0.000 OA
ATOM     19  C   UNL     1       3.346   2.757  17.472  0.00  0.00    +0.000 C 
ATOM     20  N   UNL     1       4.653   3.104  17.244  0.00  0.00    +0.000 N 
ATOM     21  H   UNL     1       5.362   2.574  17.742  0.00  0.00    +0.000 HD
BRANCH  20  22
ATOM     22  C   UNL     1       5.042   4.142  16.324  0.00  0.00    +0.000 C 
BRANCH  22  23
ATOM     23  C   UNL     1       5.993   5.116  16.970  0.00  0.00    +0.000 A 
ATOM     24  C   UNL     1       5.969   6.477  16.624  0.00  0.00    +0.000 A 
ATOM     25  C   UNL     1       6.840   7.375  17.241  0.00  0.00    +0.000 A 
ATOM     26  C   UNL     1       7.741   6.915  18.194  0.00  0.00    +0.000 A 
ATOM     27  F   UNL     1       8.569   7.782  18.792  0.00  0.00    +0.000 F 
ATOM     28  C   UNL     1       7.797   5.569  18.535  0.00  0.00    +0.000 A 
ATOM     29  C   UNL     1       6.927   4.667  17.918  0.00  0.00    +0.000 A 
ENDBRANCH  22  23
ENDBRANCH  20  22
ENDBRANCH  17  19
ENDBRANCH  16  17
ENDBRANCH   1  16
TORSDOF 7
ENDMDL
MODEL 2
REMARK VINA RESULT:      -8.0      1.483      2.044
REMARK  Name = 
REMARK  7 active torsions:
REMARK  status: ('A' for Active; 'I' for Inactive)
REMARK    1  A    between atoms: C_2  and  C_3
REMARK    2  A    between atoms: C_3  and  O_4
REMARK    3  A    between atoms: O_4  and  C_5
REMARK    4  A    between atoms: C_5  and  C_6
REMARK    5  A    between atoms: C_8  and  C_9
REMARK    6  A    between atoms: N_20  and  C_21
REMARK    7  A    between atoms: C_21  and  C_22
REMARK                            x       y       z     vdW  Elec       q    Type
REMARK                         _______ _______ _______ _____ _____    ______ ____
ROOT
ATOM      1  C   UNL     1       2.950   3.836  20.389  0.00  0.00    +0.000 C 
ENDROOT
BRANCH   1   2
ATOM      2  C   UNL     1       2.604   5.263  20.152  0.00  0.00    +0.000 A 
ATOM      3  C   UNL     1       1.530   5.988  20.714  0.00  0.00    +0.000 A 
ATOM      4  C   UNL     1       1.724   7.279  20.288  0.00  0.00    +0.000 A 
ATOM      5  O   UNL     1       2.832   7.316  19.495  0.00  0.00    +0.000 OA
ATOM      6  N   UNL     1       3.390   6.051  19.409  0.00  0.00    +0.000 NA
BRANCH   4   7
ATOM      7  C   UNL     1       1.045   8.545  20.533  0.00  0.00    +0.000 A 
ATOM      8  C   UNL     1       0.807   9.462  19.483  0.00  0.00    +0.000 A 
ATOM      9  C   UNL     1       0.187  10.695  19.720  0.00  0.00    +0.000 A 
ATOM     10  C   UNL     1      -0.177  10.988  21.015  0.00  0.00    +0.000 A 
ATOM     11  C   UNL     1       0.041  10.106  22.041  0.00  0.00    +0.000 A 
ATOM     12  C   UNL     1       0.639   8.879  21.837  0.00  0.00    +0.000 A 
ATOM     13  O   UNL     1      -0.382  10.586  23.241  0.00  0.00    +0.000 OA
ATOM     14  C   UNL     1      -0.829  11.904  22.857  0.00  0.00    +0.000 C 
ATOM     15  O   UNL     1      -0.762  12.137  21.436  0.00  0.00    +0.000 OA
ENDBRANCH   4   7
ENDBRANCH   1   2
BRANCH   1  16
ATOM     16  O   UNL     1       1.963   2.929  19.868  0.00  0.00    +0.000 OA
BRANCH  16  17
ATOM     17  C   UNL     1       1.868   3.006  18.441  0.00  0.00    +0.000 C 
BRANCH  17  19
ATOM     18  O   UNL     1       3.827   1.736  17.816  0.00  0.00    +0.000 OA
ATOM     19  C   UNL     1       3.220   2.802  17.757  0.00  0.00    +0.000 C 
ATOM     20  N   UNL     1       3.675   3.903  17.079  0.00  0.00    +0.000 N 
ATOM     21  H   UNL     1       3.088   4.731  17.101  0.00  0.00    +0.000 HD
BRANCH  20  22
ATOM     22  C   UNL     1       4.937   3.932  16.385  0.00  0.00    +0.000 C 
BRANCH  22  23
ATOM     23  C   UNL     1       5.878   4.934  17.003  0.00  0.00    +0.000 A 
ATOM     24  C   UNL     1       6.831   4.530  17.952  0.00  0.00    +0.000 A 
ATOM     25  C   UNL     1       7.711   5.461  18.506  0.00  0.00    +0.000 A 
ATOM     26  C   UNL     1       7.633   6.793  18.121  0.00  0.00    +0.000 A 
ATOM     27  F   UNL     1       8.486   7.683  18.647  0.00  0.00    +0.000 F 
ATOM     28  C   UNL     1       6.683   7.218  17.201  0.00  0.00    +0.000 A 
ATOM     29  C   UNL     1       5.800   6.290  16.646  0.00  0.00    +0.000 A 
ENDBRANCH  22  23
ENDBRANCH  20  22
ENDBRANCH  17  19
ENDBRANCH  16  17
ENDBRANCH   1  16
TORSDOF 7
ENDMDL
MODEL 3
REMARK VINA RESULT:      -7.8      4.371      6.884
REMARK  Name = 
REMARK  7 active torsions:
REMARK  status: ('A' for Active; 'I' for Inactive)
REMARK    1  A    between atoms: C_2  and  C_3
REMARK    2  A    between atoms: C_3  and  O_4
REMARK    3  A    between atoms: O_4  and  C_5
REMARK    4  A    between atoms: C_5  and  C_6
REMARK    5  A    between atoms: C_8  and  C_9
REMARK    6  A    between atoms: N_20  and  C_21
REMARK    7  A    between atoms: C_21  and  C_22
REMARK                            x       y       z     vdW  Elec       q    Type
REMARK                         _______ _______ _______ _____ _____    ______ ____
ROOT
ATOM      1  C   UNL     1       7.661   4.714  18.012  0.00  0.00    +0.000 C 
ENDROOT
BRANCH   1   2
ATOM      2  C   UNL     1       7.708   6.192  17.837  0.00  0.00    +0.000 A 
ATOM      3  C   UNL     1       8.230   7.145  18.739  0.00  0.00    +0.000 A 
ATOM      4  C   UNL     1       8.156   8.337  18.062  0.00  0.00    +0.000 A 
ATOM      5  O   UNL     1       7.597   8.112  16.840  0.00  0.00    +0.000 OA
ATOM      6  N   UNL     1       7.316   6.764  16.692  0.00  0.00    +0.000 NA
BRANCH   4   7
ATOM      7  C   UNL     1       8.570   9.703  18.357  0.00  0.00    +0.000 A 
ATOM      8  C   UNL     1       8.186  10.780  17.524  0.00  0.00    +0.000 A 
ATOM      9  C   UNL     1       8.609  12.088  17.785  0.00  0.00    +0.000 A 
ATOM     10  C   UNL     1       9.421  12.291  18.879  0.00  0.00    +0.000 A 
ATOM     11  C   UNL     1       9.794  11.258  19.699  0.00  0.00    +0.000 A 
ATOM     12  C   UNL     1       9.383   9.960  19.475  0.00  0.00    +0.000 A 
ATOM     13  O   UNL     1      10.602  11.665  20.715  0.00  0.00    +0.000 OA
ATOM     14  C   UNL     1      10.747  13.065  20.395  0.00  0.00    +0.000 C 
ATOM     15  O   UNL     1       9.946  13.479  19.270  0.00  0.00    +0.000 OA
ENDBRANCH   4   7
ENDBRANCH   1   2
BRANCH   1  16
ATOM     16  O   UNL     1       6.361   4.240  18.402  0.00  0.00    +0.000 OA
BRANCH  16  17
ATOM     17  C   UNL     1       5.719   5.135  19.318  0.00  0.00    +0.000 C 
BRANCH  17  19
ATOM     18  O   UNL     1       3.683   4.748  18.074  0.00  0.00    +0.000 OA
ATOM     19  C   UNL     1       4.217   5.252  19.059  0.00  0.00    +0.000 C 
ATOM     20  N   UNL     1       3.538   5.955  20.020  0.00  0.00    +0.000 N 
ATOM     21  H   UNL     1       4.085   6.328  20.789  0.00  0.00    +0.000 HD
BRANCH  20  22
ATOM     22  C   UNL     1       2.120   6.203  19.956  0.00  0.00    +0.000 C 
BRANCH  22  23
ATOM     23  C   UNL     1       1.832   7.628  19.560  0.00  0.00    +0.000 A 
ATOM     24  C   UNL     1       2.170   8.098  18.280  0.00  0.00    +0.000 A 
ATOM     25  C   UNL     1       1.882   9.413  17.914  0.00  0.00    +0.000 A 
ATOM     26  C   UNL     1       1.268  10.262  18.827  0.00  0.00    +0.000 A 
ATOM     27  F   UNL     1       0.984  11.522  18.470  0.00  0.00    +0.000 F 
ATOM     28  C   UNL     1       0.946   9.825  20.106  0.00  0.00    +0.000 A 
ATOM     29  C   UNL     1       1.234   8.509  20.476  0.00  0.00    +0.000 A 
ENDBRANCH  22  23
ENDBRANCH  20  22
ENDBRANCH  17  19
ENDBRANCH  16  17
ENDBRANCH   1  16
TORSDOF 7
ENDMDL
MODEL 4
REMARK VINA RESULT:      -7.8      2.697      4.670
REMARK  Name = 
REMARK  7 active torsions:
REMARK  status: ('A' for Active; 'I' for Inactive)
REMARK    1  A    between atoms: C_2  and  C_3
REMARK    2  A    between atoms: C_3  and  O_4
REMARK    3  A    between atoms: O_4  and  C_5
REMARK    4  A    between atoms: C_5  and  C_6
REMARK    5  A    between atoms: C_8  and  C_9
REMARK    6  A    between atoms: N_20  and  C_21
REMARK    7  A    between atoms: C_21  and  C_22
REMARK                            x       y       z     vdW  Elec       q    Type
REMARK                         _______ _______ _______ _____ _____    ______ ____
ROOT
ATOM      1  C   UNL     1       5.768   5.604  15.850  0.00  0.00    +0.000 C 
ENDROOT
BRANCH   1   2
ATOM      2  C   UNL     1       4.645   5.947  16.765  0.00  0.00    +0.000 A 
ATOM      3  C   UNL     1       4.378   7.199  17.360  0.00  0.00    +0.000 A 
ATOM      4  C   UNL     1       3.174   7.029  17.998  0.00  0.00    +0.000 A 
ATOM      5  O   UNL     1       2.762   5.742  17.818  0.00  0.00    +0.000 OA
ATOM      6  N   UNL     1       3.682   5.059  17.040  0.00  0.00    +0.000 NA
BRANCH   4   7
ATOM      7  C   UNL     1       2.286   7.907  18.749  0.00  0.00    +0.000 A 
ATOM      8  C   UNL     1       1.937   7.622  20.089  0.00  0.00    +0.000 A 
ATOM      9  C   UNL     1       1.057   8.444  20.803  0.00  0.00    +0.000 A 
ATOM     10  C   UNL     1       0.535   9.538  20.150  0.00  0.00    +0.000 A 
ATOM     11  C   UNL     1       0.870   9.832  18.854  0.00  0.00    +0.000 A 
ATOM     12  C   UNL     1       1.744   9.047  18.129  0.00  0.00    +0.000 A 
ATOM     13  O   UNL     1       0.243  10.946  18.392  0.00  0.00    +0.000 OA
ATOM     14  C   UNL     1      -0.580  11.280  19.530  0.00  0.00    +0.000 C 
ATOM     15  O   UNL     1      -0.348  10.428  20.670  0.00  0.00    +0.000 OA
ENDBRANCH   4   7
ENDBRANCH   1   2
BRANCH   1  16
ATOM     16  O   UNL     1       6.747   4.750  16.466  0.00  0.00    +0.000 OA
BRANCH  16  17
ATOM     17  C   UNL     1       7.365   5.375  17.596  0.00  0.00    +0.000 C 
BRANCH  17  19
ATOM     18  O   UNL     1       7.193   5.286  20.005  0.00  0.00    +0.000 OA
ATOM     19  C   UNL     1       6.836   4.830  18.922  0.00  0.00    +0.000 C 
ATOM     20  N   UNL     1       5.935   3.805  18.785  0.00  0.00    +0.000 N 
ATOM     21  H   UNL     1       5.716   3.509  17.839  0.00  0.00    +0.000 HD
BRANCH  20  22
ATOM     22  C   UNL     1       5.333   3.133  19.909  0.00  0.00    +0.000 C 
BRANCH  22  23
ATOM     23  C   UNL     1       3.845   2.989  19.724  0.00  0.00    +0.000 A 
ATOM     24  C   UNL     1       2.950   3.730  20.514  0.00  0.00    +0.000 A 
ATOM     25  C   UNL     1       1.573   3.605  20.323  0.00  0.00    +0.000 A 
ATOM     26  C   UNL     1       1.090   2.735  19.354  0.00  0.00    +0.000 A 
ATOM     27  F   UNL     1      -0.232   2.624  19.167  0.00  0.00    +0.000 F 
ATOM     28  C   UNL     1       1.956   1.975  18.578  0.00  0.00    +0.000 A 
ATOM     29  C   UNL     1       3.335   2.097  18.767  0.00  0.00    +0.000 A 
ENDBRANCH  22  23
ENDBRANCH  20  22
ENDBRANCH  17  19
ENDBRANCH  16  17
ENDBRANCH   1  16
TORSDOF 7
ENDMDL
MODEL 5
REMARK VINA RESULT:      -7.6      2.919      4.796
REMARK  Name = 
REMARK  7 active torsions:
REMARK  status: ('A' for Active; 'I' for Inactive)
REMARK    1  A    between atoms: C_2  and  C_3
REMARK    2  A    between atoms: C_3  and  O_4
REMARK    3  A    between atoms: O_4  and  C_5
REMARK    4  A    between atoms: C_5  and  C_6
REMARK    5  A    between atoms: C_8  and  C_9
REMARK    6  A    between atoms: N_20  and  C_21
REMARK    7  A    between atoms: C_21  and  C_22
REMARK                            x       y       z     vdW  Elec       q    Type
REMARK                         _______ _______ _______ _____ _____    ______ ____
ROOT
ATOM      1  C   UNL     1       3.153   7.109  17.367  0.00  0.00    +0.000 C 
ENDROOT
BRANCH   1   2
ATOM      2  C   UNL     1       2.509   7.527  18.642  0.00  0.00    +0.000 A 
ATOM      3  C   UNL     1       1.891   8.765  18.924  0.00  0.00    +0.000 A 
ATOM      4  C   UNL     1       1.345   8.602  20.174  0.00  0.00    +0.000 A 
ATOM      5  O   UNL     1       1.645   7.351  20.622  0.00  0.00    +0.000 OA
ATOM      6  N   UNL     1       2.374   6.669  19.661  0.00  0.00    +0.000 NA
BRANCH   4   7
ATOM      7  C   UNL     1       0.526   9.436  21.043  0.00  0.00    +0.000 A 
ATOM      8  C   UNL     1       0.387   9.141  22.420  0.00  0.00    +0.000 A 
ATOM      9  C   UNL     1      -0.427   9.919  23.251  0.00  0.00    +0.000 A 
ATOM     10  C   UNL     1      -1.096  10.979  22.681  0.00  0.00    +0.000 A 
ATOM     11  C   UNL     1      -0.965  11.281  21.350  0.00  0.00    +0.000 A 
ATOM     12  C   UNL     1      -0.161  10.540  20.508  0.00  0.00    +0.000 A 
ATOM     13  O   UNL     1      -1.712  12.356  20.982  0.00  0.00    +0.000 OA
ATOM     14  C   UNL     1      -2.382  12.652  22.227  0.00  0.00    +0.000 C 
ATOM     15  O   UNL     1      -1.943  11.823  23.322  0.00  0.00    +0.000 OA
ENDBRANCH   4   7
ENDBRANCH   1   2
BRANCH   1  16
ATOM     16  O   UNL     1       4.589   7.178  17.419  0.00  0.00    +0.000 OA
BRANCH  16  17
ATOM     17  C   UNL     1       5.201   6.185  16.590  0.00  0.00    +0.000 C 
BRANCH  17  19
ATOM     18  O   UNL     1       6.121   4.382  17.911  0.00  0.00    +0.000 OA
ATOM     19  C   UNL     1       5.184   4.799  17.235  0.00  0.00    +0.000 C 
ATOM     20  N   UNL     1       4.038   4.085  16.995  0.00  0.00    +0.000 N 
ATOM     21  H   UNL     1       3.330   4.531  16.420  0.00  0.00    +0.000 HD
BRANCH  20  22
ATOM     22  C   UNL     1       3.827   2.749  17.491  0.00  0.00    +0.000 C 
BRANCH  22  23
ATOM     23  C   UNL     1       3.026   2.761  18.767  0.00  0.00    +0.000 A 
ATOM     24  C   UNL     1       1.637   2.962  18.739  0.00  0.00    +0.000 A 
ATOM     25  C   UNL     1       0.899   2.952  19.924  0.00  0.00    +0.000 A 
ATOM     26  C   UNL     1       1.549   2.752  21.136  0.00  0.00    +0.000 A 
ATOM     27  F   UNL     1       0.838   2.733  22.271  0.00  0.00    +0.000 F 
ATOM     28  C   UNL     1       2.926   2.574  21.189  0.00  0.00    +0.000 A 
ATOM     29  C   UNL     1       3.667   2.585  20.004  0.00  0.00    +0.000 A 
ENDBRANCH  22  23
ENDBRANCH  20  22
ENDBRANCH  17  19
ENDBRANCH  16  17
ENDBRANCH   1  16
TORSDOF 7
ENDMDL
MODEL 6
REMARK VINA RESULT:      -7.6      3.238      4.117
REMARK  Name = 
REMARK  7 active torsions:
REMARK  status: ('A' for Active; 'I' for Inactive)
REMARK    1  A    between atoms: C_2  and  C_3
REMARK    2  A    between atoms: C_3  and  O_4
REMARK    3  A    between atoms: O_4  and  C_5
REMARK    4  A    between atoms: C_5  and  C_6
REMARK    5  A    between atoms: C_8  and  C_9
REMARK    6  A    between atoms: N_20  and  C_21
REMARK    7  A    between atoms: C_21  and  C_22
REMARK                            x       y       z     vdW  Elec       q    Type
REMARK                         _______ _______ _______ _____ _____    ______ ____
ROOT
ATOM      1  C   UNL     1       4.377   3.978  18.263  0.00  0.00    +0.000 C 
ENDROOT
BRANCH   1   2
ATOM      2  C   UNL     1       3.663   5.283  18.319  0.00  0.00    +0.000 A 
ATOM      3  C   UNL     1       2.787   5.736  19.330  0.00  0.00    +0.000 A 
ATOM      4  C   UNL     1       2.503   7.034  18.984  0.00  0.00    +0.000 A 
ATOM      5  O   UNL     1       3.149   7.328  17.821  0.00  0.00    +0.000 OA
ATOM      6  N   UNL     1       3.882   6.231  17.400  0.00  0.00    +0.000 NA
BRANCH   4   7
ATOM      7  C   UNL     1       1.729   8.106  19.598  0.00  0.00    +0.000 A 
ATOM      8  C   UNL     1       1.434   9.293  18.889  0.00  0.00    +0.000 A 
ATOM      9  C   UNL     1       0.722  10.339  19.487  0.00  0.00    +0.000 A 
ATOM     10  C   UNL     1       0.323  10.175  20.795  0.00  0.00    +0.000 A 
ATOM     11  C   UNL     1       0.595   9.026  21.492  0.00  0.00    +0.000 A 
ATOM     12  C   UNL     1       1.285   7.974  20.926  0.00  0.00    +0.000 A 
ATOM     13  O   UNL     1       0.125   9.066  22.767  0.00  0.00    +0.000 OA
ATOM     14  C   UNL     1      -0.416  10.404  22.810  0.00  0.00    +0.000 C 
ATOM     15  O   UNL     1      -0.351  11.086  21.541  0.00  0.00    +0.000 OA
ENDBRANCH   4   7
ENDBRANCH   1   2
BRANCH   1  16
ATOM     16  O   UNL     1       5.524   3.932  19.129  0.00  0.00    +0.000 OA
BRANCH  16  17
ATOM     17  C   UNL     1       6.396   5.048  18.919  0.00  0.00    +0.000 C 
BRANCH  17  19
ATOM     18  O   UNL     1       8.334   4.149  17.790  0.00  0.00    +0.000 OA
ATOM     19  C   UNL     1       7.323   4.843  17.722  0.00  0.00    +0.000 C 
ATOM     20  N   UNL     1       6.919   5.494  16.584  0.00  0.00    +0.000 N 
ATOM     21  H   UNL     1       6.067   6.042  16.646  0.00  0.00    +0.000 HD
BRANCH  20  22
ATOM     22  C   UNL     1       7.661   5.452  15.350  0.00  0.00    +0.000 C 
BRANCH  22  23
ATOM     23  C   UNL     1       6.888   4.737  14.272  0.00  0.00    +0.000 A 
ATOM     24  C   UNL     1       7.465   4.501  13.014  0.00  0.00    +0.000 A 
ATOM     25  C   UNL     1       6.749   3.821  12.027  0.00  0.00    +0.000 A 
ATOM     26  C   UNL     1       5.457   3.387  12.293  0.00  0.00    +0.000 A 
ATOM     27  F   UNL     1       4.775   2.726  11.347  0.00  0.00    +0.000 F 
ATOM     28  C   UNL     1       4.858   3.630  13.523  0.00  0.00    +0.000 A 
ATOM     29  C   UNL     1       5.571   4.312  14.512  0.00  0.00    +0.000 A 
ENDBRANCH  22  23
ENDBRANCH  20  22
ENDBRANCH  17  19
ENDBRANCH  16  17
ENDBRANCH   1  16
TORSDOF 7
ENDMDL
MODEL 7
REMARK VINA RESULT:      -7.6      3.413      7.607
REMARK  Name = 
REMARK  7 active torsions:
REMARK  status: ('A' for Active; 'I' for Inactive)
REMARK    1  A    between atoms: C_2  and  C_3
REMARK    2  A    between atoms: C_3  and  O_4
REMARK    3  A    between atoms: O_4  and  C_5
REMARK    4  A    between atoms: C_5  and  C_6
REMARK    5  A    between atoms: C_8  and  C_9
REMARK    6  A    between atoms: N_20  and  C_21
REMARK    7  A    between atoms: C_21  and  C_22
REMARK                            x       y       z     vdW  Elec       q    Type
REMARK                         _______ _______ _______ _____ _____    ______ ____
ROOT
ATOM      1  C   UNL     1       0.960   2.594  19.107  0.00  0.00    +0.000 C 
ENDROOT
BRANCH   1   2
ATOM      2  C   UNL     1       2.261   2.638  18.385  0.00  0.00    +0.000 A 
ATOM      3  C   UNL     1       2.734   3.663  17.536  0.00  0.00    +0.000 A 
ATOM      4  C   UNL     1       4.020   3.293  17.231  0.00  0.00    +0.000 A 
ATOM      5  O   UNL     1       4.288   2.103  17.839  0.00  0.00    +0.000 OA
ATOM      6  N   UNL     1       3.186   1.689  18.568  0.00  0.00    +0.000 NA
BRANCH   4   7
ATOM      7  C   UNL     1       5.102   3.902  16.468  0.00  0.00    +0.000 A 
ATOM      8  C   UNL     1       5.988   4.828  17.066  0.00  0.00    +0.000 A 
ATOM      9  C   UNL     1       7.006   5.442  16.328  0.00  0.00    +0.000 A 
ATOM     10  C   UNL     1       7.111   5.120  14.993  0.00  0.00    +0.000 A 
ATOM     11  C   UNL     1       6.264   4.219  14.402  0.00  0.00    +0.000 A 
ATOM     12  C   UNL     1       5.258   3.589  15.106  0.00  0.00    +0.000 A 
ATOM     13  O   UNL     1       6.527   4.046  13.079  0.00  0.00    +0.000 OA
ATOM     14  C   UNL     1       7.597   4.998  12.894  0.00  0.00    +0.000 C 
ATOM     15  O   UNL     1       8.014   5.631  14.120  0.00  0.00    +0.000 OA
ENDBRANCH   4   7
ENDBRANCH   1   2
BRANCH   1  16
ATOM     16  O   UNL     1       0.543   3.885  19.584  0.00  0.00    +0.000 OA
BRANCH  16  17
ATOM     17  C   UNL     1       1.328   4.321  20.699  0.00  0.00    +0.000 C 
BRANCH  17  19
ATOM     18  O   UNL     1       3.189   5.726  20.061  0.00  0.00    +0.000 OA
ATOM     19  C   UNL     1       2.020   5.658  20.434  0.00  0.00    +0.000 C 
ATOM     20  N   UNL     1       1.221   6.752  20.644  0.00  0.00    +0.000 N 
ATOM     21  H   UNL     1       0.271   6.575  20.954  0.00  0.00    +0.000 HD
BRANCH  20  22
ATOM     22  C   UNL     1       1.683   8.106  20.474  0.00  0.00    +0.000 C 
BRANCH  22  23
ATOM     23  C   UNL     1       0.783   9.083  21.186  0.00  0.00    +0.000 A 
ATOM     24  C   UNL     1       0.086  10.069  20.468  0.00  0.00    +0.000 A 
ATOM     25  C   UNL     1      -0.761  10.957  21.132  0.00  0.00    +0.000 A 
ATOM     26  C   UNL     1      -0.904  10.869  22.511  0.00  0.00    +0.000 A 
ATOM     27  F   UNL     1      -1.726  11.717  23.145  0.00  0.00    +0.000 F 
ATOM     28  C   UNL     1      -0.206   9.917  23.244  0.00  0.00    +0.000 A 
ATOM     29  C   UNL     1       0.643   9.027  22.582  0.00  0.00    +0.000 A 
ENDBRANCH  22  23
ENDBRANCH  20  22
ENDBRANCH  17  19
ENDBRANCH  16  17
ENDBRANCH   1  16
TORSDOF 7
ENDMDL
MODEL 8
REMARK VINA RESULT:      -7.6      4.185      8.892
REMARK  Name = 
REMARK  7 active torsions:
REMARK  status: ('A' for Active; 'I' for Inactive)
REMARK    1  A    between atoms: C_2  and  C_3
REMARK    2  A    between atoms: C_3  and  O_4
REMARK    3  A    between atoms: O_4  and  C_5
REMARK    4  A    between atoms: C_5  and  C_6
REMARK    5  A    between atoms: C_8  and  C_9
REMARK    6  A    between atoms: N_20  and  C_21
REMARK    7  A    between atoms: C_21  and  C_22
REMARK                            x       y       z     vdW  Elec       q    Type
REMARK                         _______ _______ _______ _____ _____    ______ ____
ROOT
ATOM      1  C   UNL     1       0.536   9.343  20.691  0.00  0.00    +0.000 C 
ENDROOT
BRANCH   1   2
ATOM      2  C   UNL     1       1.407   8.780  19.623  0.00  0.00    +0.000 A 
ATOM      3  C   UNL     1       2.126   7.566  19.656  0.00  0.00    +0.000 A 
ATOM      4  C   UNL     1       2.656   7.444  18.395  0.00  0.00    +0.000 A 
ATOM      5  O   UNL     1       2.298   8.536  17.663  0.00  0.00    +0.000 OA
ATOM      6  N   UNL     1       1.510   9.378  18.429  0.00  0.00    +0.000 NA
BRANCH   4   7
ATOM      7  C   UNL     1       3.443   6.423  17.715  0.00  0.00    +0.000 A 
ATOM      8  C   UNL     1       3.056   5.063  17.744  0.00  0.00    +0.000 A 
ATOM      9  C   UNL     1       3.827   4.073  17.123  0.00  0.00    +0.000 A 
ATOM     10  C   UNL     1       4.983   4.470  16.487  0.00  0.00    +0.000 A 
ATOM     11  C   UNL     1       5.366   5.785  16.445  0.00  0.00    +0.000 A 
ATOM     12  C   UNL     1       4.621   6.784  17.038  0.00  0.00    +0.000 A 
ATOM     13  O   UNL     1       6.538   5.966  15.779  0.00  0.00    +0.000 OA
ATOM     14  C   UNL     1       6.880   4.598  15.467  0.00  0.00    +0.000 C 
ATOM     15  O   UNL     1       5.863   3.653  15.856  0.00  0.00    +0.000 OA
ENDBRANCH   4   7
ENDBRANCH   1   2
BRANCH   1  16
ATOM     16  O   UNL     1       1.222  10.291  21.527  0.00  0.00    +0.000 OA
BRANCH  16  17
ATOM     17  C   UNL     1       0.774  11.631  21.292  0.00  0.00    +0.000 C 
BRANCH  17  19
ATOM     18  O   UNL     1      -1.498  11.475  22.101  0.00  0.00    +0.000 OA
ATOM     19  C   UNL     1      -0.746  11.720  21.162  0.00  0.00    +0.000 C 
ATOM     20  N   UNL     1      -1.178  12.101  19.917  0.00  0.00    +0.000 N 
ATOM     21  H   UNL     1      -0.465  12.276  19.216  0.00  0.00    +0.000 HD
BRANCH  20  22
ATOM     22  C   UNL     1      -2.572  12.224  19.573  0.00  0.00    +0.000 C 
BRANCH  22  23
ATOM     23  C   UNL     1      -2.880  11.517  18.279  0.00  0.00    +0.000 A 
ATOM     24  C   UNL     1      -4.093  11.744  17.610  0.00  0.00    +0.000 A 
ATOM     25  C   UNL     1      -4.363  11.099  16.402  0.00  0.00    +0.000 A 
ATOM     26  C   UNL     1      -3.427  10.222  15.868  0.00  0.00    +0.000 A 
ATOM     27  F   UNL     1      -3.683   9.612  14.702  0.00  0.00    +0.000 F 
ATOM     28  C   UNL     1      -2.230   9.966  16.524  0.00  0.00    +0.000 A 
ATOM     29  C   UNL     1      -1.957  10.608  17.734  0.00  0.00    +0.000 A 
ENDBRANCH  22  23
ENDBRANCH  20  22
ENDBRANCH  17  19
ENDBRANCH  16  17
ENDBRANCH   1  16
TORSDOF 7
ENDMDL
MODEL 9
REMARK VINA RESULT:      -7.5      4.915      7.292
REMARK  Name = 
REMARK  7 active torsions:
REMARK  status: ('A' for Active; 'I' for Inactive)
REMARK    1  A    between atoms: C_2  and  C_3
REMARK    2  A    between atoms: C_3  and  O_4
REMARK    3  A    between atoms: O_4  and  C_5
REMARK    4  A    between atoms: C_5  and  C_6
REMARK    5  A    between atoms: C_8  and  C_9
REMARK    6  A    between atoms: N_20  and  C_21
REMARK    7  A    between atoms: C_21  and  C_22
REMARK                            x       y       z     vdW  Elec       q    Type
REMARK                         _______ _______ _______ _____ _____    ______ ____
ROOT
ATOM      1  C   UNL     1       7.476   5.421  17.759  0.00  0.00    +0.000 C 
ENDROOT
BRANCH   1   2
ATOM      2  C   UNL     1       7.681   6.892  17.851  0.00  0.00    +0.000 A 
ATOM      3  C   UNL     1       8.486   7.587  18.780  0.00  0.00    +0.000 A 
ATOM      4  C   UNL     1       8.441   8.895  18.365  0.00  0.00    +0.000 A 
ATOM      5  O   UNL     1       7.634   8.979  17.270  0.00  0.00    +0.000 OA
ATOM      6  N   UNL     1       7.156   7.721  16.941  0.00  0.00    +0.000 NA
BRANCH   4   7
ATOM      7  C   UNL     1       9.078  10.128  18.811  0.00  0.00    +0.000 A 
ATOM      8  C   UNL     1       9.228  10.416  20.188  0.00  0.00    +0.000 A 
ATOM      9  C   UNL     1       9.808  11.614  20.621  0.00  0.00    +0.000 A 
ATOM     10  C   UNL     1      10.222  12.508  19.659  0.00  0.00    +0.000 A 
ATOM     11  C   UNL     1      10.090  12.238  18.321  0.00  0.00    +0.000 A 
ATOM     12  C   UNL     1       9.533  11.061  17.864  0.00  0.00    +0.000 A 
ATOM     13  O   UNL     1      10.551  13.250  17.537  0.00  0.00    +0.000 OA
ATOM     14  C   UNL     1      10.925  14.217  18.542  0.00  0.00    +0.000 C 
ATOM     15  O   UNL     1      10.780  13.723  19.889  0.00  0.00    +0.000 OA
ENDBRANCH   4   7
ENDBRANCH   1   2
BRANCH   1  16
ATOM     16  O   UNL     1       6.896   5.016  16.507  0.00  0.00    +0.000 OA
BRANCH  16  17
ATOM     17  C   UNL     1       5.721   4.220  16.696  0.00  0.00    +0.000 C 
BRANCH  17  19
ATOM     18  O   UNL     1       5.093   4.690  18.982  0.00  0.00    +0.000 OA
ATOM     19  C   UNL     1       4.811   4.778  17.790  0.00  0.00    +0.000 C 
ATOM     20  N   UNL     1       3.674   5.382  17.317  0.00  0.00    +0.000 N 
ATOM     21  H   UNL     1       3.545   5.394  16.310  0.00  0.00    +0.000 HD
BRANCH  20  22
ATOM     22  C   UNL     1       2.671   5.953  18.179  0.00  0.00    +0.000 C 
BRANCH  22  23
ATOM     23  C   UNL     1       2.197   4.953  19.202  0.00  0.00    +0.000 A 
ATOM     24  C   UNL     1       2.515   5.113  20.561  0.00  0.00    +0.000 A 
ATOM     25  C   UNL     1       2.056   4.193  21.504  0.00  0.00    +0.000 A 
ATOM     26  C   UNL     1       1.290   3.109  21.091  0.00  0.00    +0.000 A 
ATOM     27  F   UNL     1       0.842   2.233  22.001  0.00  0.00    +0.000 F 
ATOM     28  C   UNL     1       0.984   2.919  19.750  0.00  0.00    +0.000 A 
ATOM     29  C   UNL     1       1.443   3.838  18.803  0.00  0.00    +0.000 A 
ENDBRANCH  22  23
ENDBRANCH  20  22
ENDBRANCH  17  19
ENDBRANCH  16  17
ENDBRANCH   1  16
TORSDOF 7
ENDMDL
