MODEL 1
REMARK VINA RESULT:      -7.5      0.000      0.000
REMARK  Name = 
REMARK  4 active torsions:
REMARK  status: ('A' for Active; 'I' for Inactive)
REMARK    1  A    between atoms: C_1  and  O_2
REMARK    2  A    between atoms: O_2  and  C_3
REMARK    3  A    between atoms: C_8  and  C_9
REMARK    4  A    between atoms: N_11  and  C_12
REMARK                            x       y       z     vdW  Elec       q    Type
REMARK                         _______ _______ _______ _____ _____    ______ ____
ROOT
ATOM      1  C   UNL     1       1.372   8.092  20.583  0.00  0.00    +0.000 C 
ATOM      2  O   UNL     1       1.569   7.210  21.415  0.00  0.00    +0.000 OA
ATOM      3  N   UNL     1       1.872   8.072  19.295  0.00  0.00    +0.000 N 
ATOM      4  H   UNL     1       1.558   8.816  18.681  0.00  0.00    +0.000 HD
ENDROOT
BRANCH   3   5
ATOM      5  C   UNL     1       2.613   7.012  18.714  0.00  0.00    +0.000 A 
ATOM      6  C   UNL     1       2.388   5.656  18.963  0.00  0.00    +0.000 A 
ATOM      7  C   UNL     1       3.079   4.667  18.250  0.00  0.00    +0.000 A 
ATOM      8  C   UNL     1       4.006   5.019  17.262  0.00  0.00    +0.000 A 
ATOM      9  C   UNL     1       4.283   6.372  17.048  0.00  0.00    +0.000 A 
ATOM     10  C   UNL     1       3.601   7.356  17.789  0.00  0.00    +0.000 A 
ATOM     11  C   UNL     1       5.203   6.803  15.948  0.00  0.00    +0.000 C 
ATOM     12  N   UNL     1       6.029   5.752  15.417  0.00  0.00    +0.000 N 
ATOM     13  C   UNL     1       5.678   4.435  15.410  0.00  0.00    +0.000 C 
ATOM     14  O   UNL     1       6.233   3.669  14.622  0.00  0.00    +0.000 OA
ATOM     15  C   UNL     1       4.652   3.950  16.415  0.00  0.00    +0.000 C 
ATOM     16  H   UNL     1       6.685   5.992  14.685  0.00  0.00    +0.000 HD
ENDBRANCH   3   5
BRANCH   1  22
ATOM     17  C   UNL     1      -0.006  10.269  20.158  0.00  0.00    +0.000 A 
ATOM     18  C   UNL     1      -0.715  11.338  20.741  0.00  0.00    +0.000 A 
ATOM     19  C   UNL     1      -0.996  11.366  22.107  0.00  0.00    +0.000 A 
ATOM     20  C   UNL     1      -0.574  10.324  22.917  0.00  0.00    +0.000 A 
ATOM     21  C   UNL     1       0.172   9.288  22.367  0.00  0.00    +0.000 A 
ATOM     22  C   UNL     1       0.500   9.251  20.990  0.00  0.00    +0.000 A 
BRANCH  17  24
ATOM     23  C   UNL     1      -0.972  10.178  17.990  0.00  0.00    +0.000 C 
ATOM     24  O   UNL     1       0.212  10.196  18.797  0.00  0.00    +0.000 OA
ENDBRANCH  17  24
ENDBRANCH   1  22
TORSDOF 3
ENDMDL
MODEL 2
REMARK VINA RESULT:      -7.5      1.236      1.348
REMARK  Name = 
REMARK  4 active torsions:
REMARK  status: ('A' for Active; 'I' for Inactive)
REMARK    1  A    between atoms: C_1  and  O_2
REMARK    2  A    between atoms: O_2  and  C_3
REMARK    3  A    between atoms: C_8  and  C_9
REMARK    4  A    between atoms: N_11  and  C_12
REMARK                            x       y       z     vdW  Elec       q    Type
REMARK                         _______ _______ _______ _____ _____    ______ ____
ROOT
ATOM      1  C   UNL     1       1.677   8.462  19.265  0.00  0.00    +0.000 C 
ATOM      2  O   UNL     1       1.946   9.068  18.231  0.00  0.00    +0.000 OA
ATOM      3  N   UNL     1       2.085   7.171  19.537  0.00  0.00    +0.000 N 
ATOM      4  H   UNL     1       1.874   6.821  20.466  0.00  0.00    +0.000 HD
ENDROOT
BRANCH   3   5
ATOM      5  C   UNL     1       2.929   6.382  18.716  0.00  0.00    +0.000 A 
ATOM      6  C   UNL     1       2.560   5.169  18.130  0.00  0.00    +0.000 A 
ATOM      7  C   UNL     1       3.409   4.515  17.227  0.00  0.00    +0.000 A 
ATOM      8  C   UNL     1       4.648   5.071  16.886  0.00  0.00    +0.000 A 
ATOM      9  C   UNL     1       5.053   6.252  17.513  0.00  0.00    +0.000 A 
ATOM     10  C   UNL     1       4.202   6.887  18.437  0.00  0.00    +0.000 A 
ATOM     11  C   UNL     1       6.330   6.930  17.121  0.00  0.00    +0.000 C 
ATOM     12  N   UNL     1       7.236   6.105  16.369  0.00  0.00    +0.000 N 
ATOM     13  C   UNL     1       6.843   5.078  15.563  0.00  0.00    +0.000 C 
ATOM     14  O   UNL     1       7.604   4.679  14.682  0.00  0.00    +0.000 OA
ATOM     15  C   UNL     1       5.500   4.424  15.820  0.00  0.00    +0.000 C 
ATOM     16  H   UNL     1       8.123   6.506  16.095  0.00  0.00    +0.000 HD
ENDBRANCH   3   5
BRANCH   1  22
ATOM     17  C   UNL     1      -0.003  10.272  20.114  0.00  0.00    +0.000 A 
ATOM     18  C   UNL     1      -0.575  10.902  21.237  0.00  0.00    +0.000 A 
ATOM     19  C   UNL     1      -0.353  10.430  22.530  0.00  0.00    +0.000 A 
ATOM     20  C   UNL     1       0.449   9.316  22.726  0.00  0.00    +0.000 A 
ATOM     21  C   UNL     1       1.063   8.714  21.634  0.00  0.00    +0.000 A 
ATOM     22  C   UNL     1       0.880   9.193  20.314  0.00  0.00    +0.000 A 
BRANCH  17  24
ATOM     23  C   UNL     1      -1.557  10.289  18.319  0.00  0.00    +0.000 C 
ATOM     24  O   UNL     1      -0.278  10.686  18.826  0.00  0.00    +0.000 OA
ENDBRANCH  17  24
ENDBRANCH   1  22
TORSDOF 3
ENDMDL
MODEL 3
REMARK VINA RESULT:      -7.4      2.211      7.981
REMARK  Name = 
REMARK  4 active torsions:
REMARK  status: ('A' for Active; 'I' for Inactive)
REMARK    1  A    between atoms: C_1  and  O_2
REMARK    2  A    between atoms: O_2  and  C_3
REMARK    3  A    between atoms: C_8  and  C_9
REMARK    4  A    between atoms: N_11  and  C_12
REMARK                            x       y       z     vdW  Elec       q    Type
REMARK                         _______ _______ _______ _____ _____    ______ ____
ROOT
ATOM      1  C   UNL     1       3.665   5.851  17.628  0.00  0.00    +0.000 C 
ATOM      2  O   UNL     1       2.896   4.971  18.005  0.00  0.00    +0.000 OA
ATOM      3  N   UNL     1       3.515   7.192  17.925  0.00  0.00    +0.000 N 
ATOM      4  H   UNL     1       4.271   7.803  17.630  0.00  0.00    +0.000 HD
ENDROOT
BRANCH   3   5
ATOM      5  C   UNL     1       2.514   7.746  18.761  0.00  0.00    +0.000 A 
ATOM      6  C   UNL     1       2.183   7.264  20.030  0.00  0.00    +0.000 A 
ATOM      7  C   UNL     1       1.271   7.947  20.846  0.00  0.00    +0.000 A 
ATOM      8  C   UNL     1       0.677   9.137  20.408  0.00  0.00    +0.000 A 
ATOM      9  C   UNL     1       0.955   9.594  19.117  0.00  0.00    +0.000 A 
ATOM     10  C   UNL     1       1.853   8.886  18.297  0.00  0.00    +0.000 A 
ATOM     11  C   UNL     1       0.410  10.903  18.633  0.00  0.00    +0.000 C 
ATOM     12  N   UNL     1      -0.672  11.426  19.422  0.00  0.00    +0.000 N 
ATOM     13  C   UNL     1      -0.840  11.174  20.751  0.00  0.00    +0.000 C 
ATOM     14  O   UNL     1      -1.534  11.934  21.425  0.00  0.00    +0.000 OA
ATOM     15  C   UNL     1      -0.207   9.929  21.341  0.00  0.00    +0.000 C 
ATOM     16  H   UNL     1      -1.092  12.298  19.128  0.00  0.00    +0.000 HD
ENDBRANCH   3   5
BRANCH   1  22
ATOM     17  C   UNL     1       6.086   6.118  16.688  0.00  0.00    +0.000 A 
ATOM     18  C   UNL     1       7.055   5.623  15.793  0.00  0.00    +0.000 A 
ATOM     19  C   UNL     1       6.864   4.426  15.102  0.00  0.00    +0.000 A 
ATOM     20  C   UNL     1       5.699   3.702  15.292  0.00  0.00    +0.000 A 
ATOM     21  C   UNL     1       4.710   4.203  16.131  0.00  0.00    +0.000 A 
ATOM     22  C   UNL     1       4.864   5.430  16.820  0.00  0.00    +0.000 A 
BRANCH  17  24
ATOM     23  C   UNL     1       7.666   7.675  17.537  0.00  0.00    +0.000 C 
ATOM     24  O   UNL     1       6.298   7.261  17.432  0.00  0.00    +0.000 OA
ENDBRANCH  17  24
ENDBRANCH   1  22
TORSDOF 3
ENDMDL
MODEL 4
REMARK VINA RESULT:      -7.3      2.190      7.995
REMARK  Name = 
REMARK  4 active torsions:
REMARK  status: ('A' for Active; 'I' for Inactive)
REMARK    1  A    between atoms: C_1  and  O_2
REMARK    2  A    between atoms: O_2  and  C_3
REMARK    3  A    between atoms: C_8  and  C_9
REMARK    4  A    between atoms: N_11  and  C_12
REMARK                            x       y       z     vdW  Elec       q    Type
REMARK                         _______ _______ _______ _____ _____    ______ ____
ROOT
ATOM      1  C   UNL     1       4.606   5.733  18.129  0.00  0.00    +0.000 C 
ATOM      2  O   UNL     1       5.006   5.499  19.267  0.00  0.00    +0.000 OA
ATOM      3  N   UNL     1       3.441   6.419  17.841  0.00  0.00    +0.000 N 
ATOM      4  H   UNL     1       3.274   6.624  16.861  0.00  0.00    +0.000 HD
ENDROOT
BRANCH   3   5
ATOM      5  C   UNL     1       2.580   7.019  18.793  0.00  0.00    +0.000 A 
ATOM      6  C   UNL     1       2.207   6.436  20.006  0.00  0.00    +0.000 A 
ATOM      7  C   UNL     1       1.455   7.150  20.950  0.00  0.00    +0.000 A 
ATOM      8  C   UNL     1       1.070   8.472  20.699  0.00  0.00    +0.000 A 
ATOM      9  C   UNL     1       1.387   9.044  19.464  0.00  0.00    +0.000 A 
ATOM     10  C   UNL     1       2.119   8.309  18.514  0.00  0.00    +0.000 A 
ATOM     11  C   UNL     1       1.071  10.480  19.179  0.00  0.00    +0.000 C 
ATOM     12  N   UNL     1       0.123  11.072  20.085  0.00  0.00    +0.000 N 
ATOM     13  C   UNL     1      -0.048  10.675  21.378  0.00  0.00    +0.000 C 
ATOM     14  O   UNL     1      -0.575  11.447  22.179  0.00  0.00    +0.000 OA
ATOM     15  C   UNL     1       0.370   9.272  21.770  0.00  0.00    +0.000 C 
ATOM     16  H   UNL     1      -0.143  12.035  19.927  0.00  0.00    +0.000 HD
ENDBRANCH   3   5
BRANCH   1  22
ATOM     17  C   UNL     1       6.826   5.544  16.769  0.00  0.00    +0.000 A 
ATOM     18  C   UNL     1       7.433   5.115  15.571  0.00  0.00    +0.000 A 
ATOM     19  C   UNL     1       6.734   4.355  14.634  0.00  0.00    +0.000 A 
ATOM     20  C   UNL     1       5.414   4.009  14.875  0.00  0.00    +0.000 A 
ATOM     21  C   UNL     1       4.786   4.469  16.027  0.00  0.00    +0.000 A 
ATOM     22  C   UNL     1       5.462   5.268  16.980  0.00  0.00    +0.000 A 
BRANCH  17  24
ATOM     23  C   UNL     1       7.623   7.647  17.533  0.00  0.00    +0.000 C 
ATOM     24  O   UNL     1       7.531   6.232  17.737  0.00  0.00    +0.000 OA
ENDBRANCH  17  24
ENDBRANCH   1  22
TORSDOF 3
ENDMDL
MODEL 5
REMARK VINA RESULT:      -7.2      2.764      3.608
REMARK  Name = 
REMARK  4 active torsions:
REMARK  status: ('A' for Active; 'I' for Inactive)
REMARK    1  A    between atoms: C_1  and  O_2
REMARK    2  A    between atoms: O_2  and  C_3
REMARK    3  A    between atoms: C_8  and  C_9
REMARK    4  A    between atoms: N_11  and  C_12
REMARK                            x       y       z     vdW  Elec       q    Type
REMARK                         _______ _______ _______ _____ _____    ______ ____
ROOT
ATOM      1  C   UNL     1       1.249   9.189  18.893  0.00  0.00    +0.000 C 
ATOM      2  O   UNL     1       1.439   8.948  20.083  0.00  0.00    +0.000 OA
ATOM      3  N   UNL     1       1.819   8.476  17.856  0.00  0.00    +0.000 N 
ATOM      4  H   UNL     1       1.506   8.719  16.921  0.00  0.00    +0.000 HD
ENDROOT
BRANCH   3   5
ATOM      5  C   UNL     1       2.634   7.325  17.995  0.00  0.00    +0.000 A 
ATOM      6  C   UNL     1       3.957   7.230  17.557  0.00  0.00    +0.000 A 
ATOM      7  C   UNL     1       4.735   6.101  17.848  0.00  0.00    +0.000 A 
ATOM      8  C   UNL     1       4.203   5.045  18.596  0.00  0.00    +0.000 A 
ATOM      9  C   UNL     1       2.862   5.103  18.988  0.00  0.00    +0.000 A 
ATOM     10  C   UNL     1       2.083   6.230  18.667  0.00  0.00    +0.000 A 
ATOM     11  C   UNL     1       2.270   4.038  19.859  0.00  0.00    +0.000 C 
ATOM     12  N   UNL     1       3.044   2.828  19.930  0.00  0.00    +0.000 N 
ATOM     13  C   UNL     1       4.398   2.777  19.774  0.00  0.00    +0.000 C 
ATOM     14  O   UNL     1       5.018   1.811  20.216  0.00  0.00    +0.000 OA
ATOM     15  C   UNL     1       5.085   3.892  19.010  0.00  0.00    +0.000 C 
ATOM     16  H   UNL     1       2.681   2.067  20.489  0.00  0.00    +0.000 HD
ENDBRANCH   3   5
BRANCH   1  22
ATOM     17  C   UNL     1       0.517  11.692  18.758  0.00  0.00    +0.000 A 
ATOM     18  C   UNL     1      -0.530  12.591  18.477  0.00  0.00    +0.000 A 
ATOM     19  C   UNL     1      -1.733  12.157  17.922  0.00  0.00    +0.000 A 
ATOM     20  C   UNL     1      -1.913  10.812  17.638  0.00  0.00    +0.000 A 
ATOM     21  C   UNL     1      -0.910   9.905  17.958  0.00  0.00    +0.000 A 
ATOM     22  C   UNL     1       0.308  10.315  18.551  0.00  0.00    +0.000 A 
BRANCH  17  24
ATOM     23  C   UNL     1       2.582  12.760  18.270  0.00  0.00    +0.000 C 
ATOM     24  O   UNL     1       1.739  12.122  19.237  0.00  0.00    +0.000 OA
ENDBRANCH  17  24
ENDBRANCH   1  22
TORSDOF 3
ENDMDL
MODEL 6
REMARK VINA RESULT:      -7.2      1.327      2.375
REMARK  Name = 
REMARK  4 active torsions:
REMARK  status: ('A' for Active; 'I' for Inactive)
REMARK    1  A    between atoms: C_1  and  O_2
REMARK    2  A    between atoms: O_2  and  C_3
REMARK    3  A    between atoms: C_8  and  C_9
REMARK    4  A    between atoms: N_11  and  C_12
REMARK                            x       y       z     vdW  Elec       q    Type
REMARK                         _______ _______ _______ _____ _____    ______ ____
ROOT
ATOM      1  C   UNL     1       1.504   9.073  18.378  0.00  0.00    +0.000 C 
ATOM      2  O   UNL     1       2.016   9.517  17.353  0.00  0.00    +0.000 OA
ATOM      3  N   UNL     1       1.761   7.817  18.893  0.00  0.00    +0.000 N 
ATOM      4  H   UNL     1       1.344   7.609  19.795  0.00  0.00    +0.000 HD
ENDROOT
BRANCH   3   5
ATOM      5  C   UNL     1       2.698   6.889  18.375  0.00  0.00    +0.000 A 
ATOM      6  C   UNL     1       2.411   5.555  18.073  0.00  0.00    +0.000 A 
ATOM      7  C   UNL     1       3.360   4.738  17.443  0.00  0.00    +0.000 A 
ATOM      8  C   UNL     1       4.617   5.245  17.094  0.00  0.00    +0.000 A 
ATOM      9  C   UNL     1       4.935   6.560  17.445  0.00  0.00    +0.000 A 
ATOM     10  C   UNL     1       3.984   7.364  18.101  0.00  0.00    +0.000 A 
ATOM     11  C   UNL     1       6.233   7.175  17.021  0.00  0.00    +0.000 C 
ATOM     12  N   UNL     1       7.225   6.231  16.584  0.00  0.00    +0.000 N 
ATOM     13  C   UNL     1       6.934   5.023  16.023  0.00  0.00    +0.000 C 
ATOM     14  O   UNL     1       7.788   4.454  15.343  0.00  0.00    +0.000 OA
ATOM     15  C   UNL     1       5.584   4.395  16.305  0.00  0.00    +0.000 C 
ATOM     16  H   UNL     1       8.128   6.590  16.305  0.00  0.00    +0.000 HD
ENDBRANCH   3   5
BRANCH   1  22
ATOM     17  C   UNL     1       0.437  10.093  20.532  0.00  0.00    +0.000 A 
ATOM     18  C   UNL     1      -0.583  10.910  21.059  0.00  0.00    +0.000 A 
ATOM     19  C   UNL     1      -1.412  11.664  20.229  0.00  0.00    +0.000 A 
ATOM     20  C   UNL     1      -1.239  11.615  18.855  0.00  0.00    +0.000 A 
ATOM     21  C   UNL     1      -0.272  10.774  18.317  0.00  0.00    +0.000 A 
ATOM     22  C   UNL     1       0.563   9.974  19.134  0.00  0.00    +0.000 A 
BRANCH  17  24
ATOM     23  C   UNL     1       0.881   9.242  22.704  0.00  0.00    +0.000 C 
ATOM     24  O   UNL     1       1.312   9.402  21.347  0.00  0.00    +0.000 OA
ENDBRANCH  17  24
ENDBRANCH   1  22
TORSDOF 3
ENDMDL
MODEL 7
REMARK VINA RESULT:      -7.2      2.222      8.159
REMARK  Name = 
REMARK  4 active torsions:
REMARK  status: ('A' for Active; 'I' for Inactive)
REMARK    1  A    between atoms: C_1  and  O_2
REMARK    2  A    between atoms: O_2  and  C_3
REMARK    3  A    between atoms: C_8  and  C_9
REMARK    4  A    between atoms: N_11  and  C_12
REMARK                            x       y       z     vdW  Elec       q    Type
REMARK                         _______ _______ _______ _____ _____    ______ ____
ROOT
ATOM      1  C   UNL     1       4.199   6.870  17.453  0.00  0.00    +0.000 C 
ATOM      2  O   UNL     1       4.966   7.805  17.666  0.00  0.00    +0.000 OA
ATOM      3  N   UNL     1       2.875   6.846  17.849  0.00  0.00    +0.000 N 
ATOM      4  H   UNL     1       2.327   6.054  17.529  0.00  0.00    +0.000 HD
ENDROOT
BRANCH   3   5
ATOM      5  C   UNL     1       2.184   7.908  18.483  0.00  0.00    +0.000 A 
ATOM      6  C   UNL     1       1.616   8.997  17.816  0.00  0.00    +0.000 A 
ATOM      7  C   UNL     1       0.838   9.938  18.503  0.00  0.00    +0.000 A 
ATOM      8  C   UNL     1       0.604   9.801  19.876  0.00  0.00    +0.000 A 
ATOM      9  C   UNL     1       1.216   8.750  20.563  0.00  0.00    +0.000 A 
ATOM     10  C   UNL     1       2.017   7.825  19.868  0.00  0.00    +0.000 A 
ATOM     11  C   UNL     1       0.931   8.513  22.014  0.00  0.00    +0.000 C 
ATOM     12  N   UNL     1       0.316   9.623  22.690  0.00  0.00    +0.000 N 
ATOM     13  C   UNL     1      -0.480  10.544  22.076  0.00  0.00    +0.000 C 
ATOM     14  O   UNL     1      -1.258  11.215  22.754  0.00  0.00    +0.000 OA
ATOM     15  C   UNL     1      -0.336  10.749  20.581  0.00  0.00    +0.000 C 
ATOM     16  H   UNL     1       0.119   9.525  23.677  0.00  0.00    +0.000 HD
ENDBRANCH   3   5
BRANCH   1  22
ATOM     17  C   UNL     1       4.632   4.331  17.025  0.00  0.00    +0.000 A 
ATOM     18  C   UNL     1       5.295   3.374  16.231  0.00  0.00    +0.000 A 
ATOM     19  C   UNL     1       5.976   3.738  15.070  0.00  0.00    +0.000 A 
ATOM     20  C   UNL     1       6.007   5.067  14.679  0.00  0.00    +0.000 A 
ATOM     21  C   UNL     1       5.402   6.030  15.479  0.00  0.00    +0.000 A 
ATOM     22  C   UNL     1       4.732   5.693  16.680  0.00  0.00    +0.000 A 
BRANCH  17  24
ATOM     23  C   UNL     1       4.662   3.552  19.269  0.00  0.00    +0.000 C 
ATOM     24  O   UNL     1       3.893   3.971  18.135  0.00  0.00    +0.000 OA
ENDBRANCH  17  24
ENDBRANCH   1  22
TORSDOF 3
ENDMDL
MODEL 8
REMARK VINA RESULT:      -7.2      1.754      1.922
REMARK  Name = 
REMARK  4 active torsions:
REMARK  status: ('A' for Active; 'I' for Inactive)
REMARK    1  A    between atoms: C_1  and  O_2
REMARK    2  A    between atoms: O_2  and  C_3
REMARK    3  A    between atoms: C_8  and  C_9
REMARK    4  A    between atoms: N_11  and  C_12
REMARK                            x       y       z     vdW  Elec       q    Type
REMARK                         _______ _______ _______ _____ _____    ______ ____
ROOT
ATOM      1  C   UNL     1       1.470   9.114  18.246  0.00  0.00    +0.000 C 
ATOM      2  O   UNL     1       2.098   9.585  17.301  0.00  0.00    +0.000 OA
ATOM      3  N   UNL     1       1.647   7.834  18.735  0.00  0.00    +0.000 N 
ATOM      4  H   UNL     1       1.131   7.602  19.577  0.00  0.00    +0.000 HD
ENDROOT
BRANCH   3   5
ATOM      5  C   UNL     1       2.618   6.905  18.284  0.00  0.00    +0.000 A 
ATOM      6  C   UNL     1       2.368   5.553  18.033  0.00  0.00    +0.000 A 
ATOM      7  C   UNL     1       3.351   4.731  17.466  0.00  0.00    +0.000 A 
ATOM      8  C   UNL     1       4.606   5.251  17.129  0.00  0.00    +0.000 A 
ATOM      9  C   UNL     1       4.886   6.586  17.431  0.00  0.00    +0.000 A 
ATOM     10  C   UNL     1       3.900   7.396  18.024  0.00  0.00    +0.000 A 
ATOM     11  C   UNL     1       6.182   7.211  17.015  0.00  0.00    +0.000 C 
ATOM     12  N   UNL     1       7.206   6.271  16.647  0.00  0.00    +0.000 N 
ATOM     13  C   UNL     1       6.957   5.034  16.133  0.00  0.00    +0.000 C 
ATOM     14  O   UNL     1       7.841   4.456  15.502  0.00  0.00    +0.000 OA
ATOM     15  C   UNL     1       5.613   4.389  16.406  0.00  0.00    +0.000 C 
ATOM     16  H   UNL     1       8.109   6.638  16.378  0.00  0.00    +0.000 HD
ENDBRANCH   3   5
BRANCH   1  22
ATOM     17  C   UNL     1      -0.811  10.364  18.467  0.00  0.00    +0.000 A 
ATOM     18  C   UNL     1      -1.564  11.305  19.197  0.00  0.00    +0.000 A 
ATOM     19  C   UNL     1      -1.105  11.823  20.408  0.00  0.00    +0.000 A 
ATOM     20  C   UNL     1       0.118  11.411  20.912  0.00  0.00    +0.000 A 
ATOM     21  C   UNL     1       0.897  10.524  20.179  0.00  0.00    +0.000 A 
ATOM     22  C   UNL     1       0.469  10.006  18.932  0.00  0.00    +0.000 A 
BRANCH  17  24
ATOM     23  C   UNL     1      -2.698   9.945  17.087  0.00  0.00    +0.000 C 
ATOM     24  O   UNL     1      -1.291   9.788  17.308  0.00  0.00    +0.000 OA
ENDBRANCH  17  24
ENDBRANCH   1  22
TORSDOF 3
ENDMDL
MODEL 9
REMARK VINA RESULT:      -7.2      2.071      2.699
REMARK  Name = 
REMARK  4 active torsions:
REMARK  status: ('A' for Active; 'I' for Inactive)
REMARK    1  A    between atoms: C_1  and  O_2
REMARK    2  A    between atoms: O_2  and  C_3
REMARK    3  A    between atoms: C_8  and  C_9
REMARK    4  A    between atoms: N_11  and  C_12
REMARK                            x       y       z     vdW  Elec       q    Type
REMARK                         _______ _______ _______ _____ _____    ______ ____
ROOT
ATOM      1  C   UNL     1       1.163   9.166  18.777  0.00  0.00    +0.000 C 
ATOM      2  O   UNL     1       1.360   8.902  19.960  0.00  0.00    +0.000 OA
ATOM      3  N   UNL     1       1.835   8.572  17.726  0.00  0.00    +0.000 N 
ATOM      4  H   UNL     1       1.512   8.813  16.795  0.00  0.00    +0.000 HD
ENDROOT
BRANCH   3   5
ATOM      5  C   UNL     1       2.785   7.526  17.839  0.00  0.00    +0.000 A 
ATOM      6  C   UNL     1       2.471   6.196  18.132  0.00  0.00    +0.000 A 
ATOM      7  C   UNL     1       3.454   5.198  18.098  0.00  0.00    +0.000 A 
ATOM      8  C   UNL     1       4.776   5.513  17.761  0.00  0.00    +0.000 A 
ATOM      9  C   UNL     1       5.112   6.849  17.525  0.00  0.00    +0.000 A 
ATOM     10  C   UNL     1       4.121   7.846  17.587  0.00  0.00    +0.000 A 
ATOM     11  C   UNL     1       6.491   7.226  17.080  0.00  0.00    +0.000 C 
ATOM     12  N   UNL     1       7.483   6.203  17.280  0.00  0.00    +0.000 N 
ATOM     13  C   UNL     1       7.210   4.867  17.288  0.00  0.00    +0.000 C 
ATOM     14  O   UNL     1       8.122   4.066  17.082  0.00  0.00    +0.000 OA
ATOM     15  C   UNL     1       5.799   4.414  17.606  0.00  0.00    +0.000 C 
ATOM     16  H   UNL     1       8.436   6.412  17.016  0.00  0.00    +0.000 HD
ENDBRANCH   3   5
BRANCH   1  22
ATOM     17  C   UNL     1       0.076  11.539  18.823  0.00  0.00    +0.000 A 
ATOM     18  C   UNL     1      -1.068  12.309  18.530  0.00  0.00    +0.000 A 
ATOM     19  C   UNL     1      -2.140  11.776  17.815  0.00  0.00    +0.000 A 
ATOM     20  C   UNL     1      -2.090  10.461  17.380  0.00  0.00    +0.000 A 
ATOM     21  C   UNL     1      -0.993   9.673  17.706  0.00  0.00    +0.000 A 
ATOM     22  C   UNL     1       0.095  10.179  18.458  0.00  0.00    +0.000 A 
BRANCH  17  24
ATOM     23  C   UNL     1       0.896  12.707  20.722  0.00  0.00    +0.000 C 
ATOM     24  O   UNL     1       1.173  12.080  19.464  0.00  0.00    +0.000 OA
ENDBRANCH  17  24
ENDBRANCH   1  22
TORSDOF 3
ENDMDL
