MODEL 1
REMARK VINA RESULT:      -6.9      0.000      0.000
REMARK  Name = 
REMARK  7 active torsions:
REMARK  status: ('A' for Active; 'I' for Inactive)
REMARK    1  A    between atoms: C_1  and  C_2
REMARK    2  A    between atoms: C_2  and  C_3
REMARK    3  A    between atoms: C_2  and  N_11
REMARK    4  A    between atoms: C_3  and  C_4
REMARK    5  A    between atoms: N_14  and  C_15
REMARK    6  A    between atoms: C_15  and  C_16
REMARK    7  A    between atoms: C_16  and  C_17
REMARK                            x       y       z     vdW  Elec       q    Type
REMARK                         _______ _______ _______ _____ _____    ______ ____
ROOT
ATOM      1  N   UNL     1       4.517   3.629  18.745  0.00  0.00    +0.000 N 
ATOM      2  C   UNL     1       5.633   4.126  18.129  0.00  0.00    +0.000 C 
ATOM      3  O   UNL     1       5.816   4.122  16.919  0.00  0.00    +0.000 OA
ATOM      4  N   UNL     1       6.538   4.618  19.031  0.00  0.00    +0.000 N 
ATOM      5  H   UNL     1       4.585   3.427  19.732  0.00  0.00    +0.000 HD
ATOM      6  H   UNL     1       6.175   4.918  19.924  0.00  0.00    +0.000 HD
ENDROOT
BRANCH   1   8
ATOM      7  C   UNL     1       3.418   1.479  18.240  0.00  0.00    +0.000 C 
ATOM      8  C   UNL     1       3.442   2.991  17.988  0.00  0.00    +0.000 C 
BRANCH   8   9
ATOM      9  C   UNL     1       2.060   3.579  18.340  0.00  0.00    +0.000 C 
BRANCH   9  10
ATOM     10  C   UNL     1       2.100   5.003  18.832  0.00  0.00    +0.000 A 
ATOM     11  C   UNL     1       2.412   6.059  17.966  0.00  0.00    +0.000 A 
ATOM     12  C   UNL     1       2.432   7.375  18.436  0.00  0.00    +0.000 A 
ATOM     13  C   UNL     1       2.142   7.650  19.773  0.00  0.00    +0.000 A 
ATOM     14  C   UNL     1       1.841   6.606  20.646  0.00  0.00    +0.000 A 
ATOM     15  C   UNL     1       1.825   5.298  20.172  0.00  0.00    +0.000 A 
ATOM     16  F   UNL     1       1.549   4.303  21.029  0.00  0.00    +0.000 F 
ENDBRANCH   9  10
ENDBRANCH   8   9
ENDBRANCH   1   8
BRANCH   4  17
ATOM     17  C   UNL     1       7.820   5.136  18.584  0.00  0.00    +0.000 C 
BRANCH  17  18
ATOM     18  C   UNL     1       7.918   6.647  18.715  0.00  0.00    +0.000 C 
BRANCH  18  19
ATOM     19  C   UNL     1       7.391   7.343  17.482  0.00  0.00    +0.000 C 
ATOM     20  F   UNL     1       7.869   8.598  17.341  0.00  0.00    +0.000 F 
ATOM     21  F   UNL     1       7.706   6.657  16.361  0.00  0.00    +0.000 F 
ATOM     22  F   UNL     1       6.041   7.434  17.528  0.00  0.00    +0.000 F 
ENDBRANCH  18  19
ENDBRANCH  17  18
ENDBRANCH   4  17
TORSDOF 6
ENDMDL
MODEL 2
REMARK VINA RESULT:      -6.8      2.903      4.064
REMARK  Name = 
REMARK  7 active torsions:
REMARK  status: ('A' for Active; 'I' for Inactive)
REMARK    1  A    between atoms: C_1  and  C_2
REMARK    2  A    between atoms: C_2  and  C_3
REMARK    3  A    between atoms: C_2  and  N_11
REMARK    4  A    between atoms: C_3  and  C_4
REMARK    5  A    between atoms: N_14  and  C_15
REMARK    6  A    between atoms: C_15  and  C_16
REMARK    7  A    between atoms: C_16  and  C_17
REMARK                            x       y       z     vdW  Elec       q    Type
REMARK                         _______ _______ _______ _____ _____    ______ ____
ROOT
ATOM      1  N   UNL     1       4.173   7.034  17.297  0.00  0.00    +0.000 N 
ATOM      2  C   UNL     1       5.095   6.043  17.100  0.00  0.00    +0.000 C 
ATOM      3  O   UNL     1       5.092   4.967  17.683  0.00  0.00    +0.000 OA
ATOM      4  N   UNL     1       6.042   6.402  16.177  0.00  0.00    +0.000 N 
ATOM      5  H   UNL     1       4.419   7.962  16.986  0.00  0.00    +0.000 HD
ATOM      6  H   UNL     1       5.776   7.103  15.501  0.00  0.00    +0.000 HD
ENDROOT
BRANCH   1   8
ATOM      7  C   UNL     1       2.258   8.179  18.349  0.00  0.00    +0.000 C 
ATOM      8  C   UNL     1       3.105   6.903  18.286  0.00  0.00    +0.000 C 
BRANCH   8   9
ATOM      9  C   UNL     1       2.182   5.704  17.983  0.00  0.00    +0.000 C 
BRANCH   9  10
ATOM     10  C   UNL     1       1.984   4.765  19.144  0.00  0.00    +0.000 A 
ATOM     11  C   UNL     1       2.477   5.075  20.418  0.00  0.00    +0.000 A 
ATOM     12  C   UNL     1       2.274   4.198  21.486  0.00  0.00    +0.000 A 
ATOM     13  C   UNL     1       1.579   3.003  21.295  0.00  0.00    +0.000 A 
ATOM     14  C   UNL     1       1.094   2.679  20.030  0.00  0.00    +0.000 A 
ATOM     15  C   UNL     1       1.301   3.555  18.969  0.00  0.00    +0.000 A 
ATOM     16  F   UNL     1       0.842   3.220  17.753  0.00  0.00    +0.000 F 
ENDBRANCH   9  10
ENDBRANCH   8   9
ENDBRANCH   1   8
BRANCH   4  17
ATOM     17  C   UNL     1       7.148   5.513  15.870  0.00  0.00    +0.000 C 
BRANCH  17  18
ATOM     18  C   UNL     1       7.122   5.022  14.431  0.00  0.00    +0.000 C 
BRANCH  18  19
ATOM     19  C   UNL     1       6.118   3.909  14.246  0.00  0.00    +0.000 C 
ATOM     20  F   UNL     1       6.036   3.090  15.318  0.00  0.00    +0.000 F 
ATOM     21  F   UNL     1       4.881   4.399  14.011  0.00  0.00    +0.000 F 
ATOM     22  F   UNL     1       6.452   3.140  13.183  0.00  0.00    +0.000 F 
ENDBRANCH  18  19
ENDBRANCH  17  18
ENDBRANCH   4  17
TORSDOF 6
ENDMDL
MODEL 3
REMARK VINA RESULT:      -6.8      2.767      5.929
REMARK  Name = 
REMARK  7 active torsions:
REMARK  status: ('A' for Active; 'I' for Inactive)
REMARK    1  A    between atoms: C_1  and  C_2
REMARK    2  A    between atoms: C_2  and  C_3
REMARK    3  A    between atoms: C_2  and  N_11
REMARK    4  A    between atoms: C_3  and  C_4
REMARK    5  A    between atoms: N_14  and  C_15
REMARK    6  A    between atoms: C_15  and  C_16
REMARK    7  A    between atoms: C_16  and  C_17
REMARK                            x       y       z     vdW  Elec       q    Type
REMARK                         _______ _______ _______ _____ _____    ______ ____
ROOT
ATOM      1  N   UNL     1       6.262   4.296  18.862  0.00  0.00    +0.000 N 
ATOM      2  C   UNL     1       5.006   3.931  19.264  0.00  0.00    +0.000 C 
ATOM      3  O   UNL     1       4.179   4.700  19.736  0.00  0.00    +0.000 OA
ATOM      4  N   UNL     1       4.784   2.590  19.093  0.00  0.00    +0.000 N 
ATOM      5  H   UNL     1       6.945   3.560  18.755  0.00  0.00    +0.000 HD
ATOM      6  H   UNL     1       5.336   2.123  18.389  0.00  0.00    +0.000 HD
ENDROOT
BRANCH   1   8
ATOM      7  C   UNL     1       8.247   5.683  19.331  0.00  0.00    +0.000 C 
ATOM      8  C   UNL     1       6.748   5.666  19.011  0.00  0.00    +0.000 C 
BRANCH   8   9
ATOM      9  C   UNL     1       6.497   6.509  17.743  0.00  0.00    +0.000 C 
BRANCH   9  10
ATOM     10  C   UNL     1       6.303   5.698  16.488  0.00  0.00    +0.000 A 
ATOM     11  C   UNL     1       7.396   5.308  15.703  0.00  0.00    +0.000 A 
ATOM     12  C   UNL     1       7.199   4.545  14.549  0.00  0.00    +0.000 A 
ATOM     13  C   UNL     1       5.911   4.165  14.166  0.00  0.00    +0.000 A 
ATOM     14  C   UNL     1       4.816   4.556  14.934  0.00  0.00    +0.000 A 
ATOM     15  C   UNL     1       5.019   5.318  16.081  0.00  0.00    +0.000 A 
ATOM     16  F   UNL     1       3.953   5.700  16.800  0.00  0.00    +0.000 F 
ENDBRANCH   9  10
ENDBRANCH   8   9
ENDBRANCH   1   8
BRANCH   4  17
ATOM     17  C   UNL     1       3.532   1.989  19.518  0.00  0.00    +0.000 C 
BRANCH  17  18
ATOM     18  C   UNL     1       2.486   1.976  18.415  0.00  0.00    +0.000 C 
BRANCH  18  19
ATOM     19  C   UNL     1       1.302   2.845  18.769  0.00  0.00    +0.000 C 
ATOM     20  F   UNL     1       1.230   3.968  18.021  0.00  0.00    +0.000 F 
ATOM     21  F   UNL     1       0.139   2.175  18.611  0.00  0.00    +0.000 F 
ATOM     22  F   UNL     1       1.367   3.233  20.064  0.00  0.00    +0.000 F 
ENDBRANCH  18  19
ENDBRANCH  17  18
ENDBRANCH   4  17
TORSDOF 6
ENDMDL
MODEL 4
REMARK VINA RESULT:      -6.7      3.385      7.062
REMARK  Name = 
REMARK  7 active torsions:
REMARK  status: ('A' for Active; 'I' for Inactive)
REMARK    1  A    between atoms: C_1  and  C_2
REMARK    2  A    between atoms: C_2  and  C_3
REMARK    3  A    between atoms: C_2  and  N_11
REMARK    4  A    between atoms: C_3  and  C_4
REMARK    5  A    between atoms: N_14  and  C_15
REMARK    6  A    between atoms: C_15  and  C_16
REMARK    7  A    between atoms: C_16  and  C_17
REMARK                            x       y       z     vdW  Elec       q    Type
REMARK                         _______ _______ _______ _____ _____    ______ ____
ROOT
ATOM      1  N   UNL     1       5.571   4.123  17.282  0.00  0.00    +0.000 N 
ATOM      2  C   UNL     1       4.313   3.782  17.696  0.00  0.00    +0.000 C 
ATOM      3  O   UNL     1       3.302   4.420  17.438  0.00  0.00    +0.000 OA
ATOM      4  N   UNL     1       4.317   2.641  18.455  0.00  0.00    +0.000 N 
ATOM      5  H   UNL     1       6.349   3.702  17.769  0.00  0.00    +0.000 HD
ATOM      6  H   UNL     1       5.084   2.001  18.312  0.00  0.00    +0.000 HD
ENDROOT
BRANCH   1   8
ATOM      7  C   UNL     1       5.996   6.547  17.442  0.00  0.00    +0.000 C 
ATOM      8  C   UNL     1       5.822   5.341  16.513  0.00  0.00    +0.000 C 
BRANCH   8   9
ATOM      9  C   UNL     1       7.074   5.212  15.621  0.00  0.00    +0.000 C 
BRANCH   9  10
ATOM     10  C   UNL     1       6.803   4.644  14.252  0.00  0.00    +0.000 A 
ATOM     11  C   UNL     1       5.734   3.767  14.030  0.00  0.00    +0.000 A 
ATOM     12  C   UNL     1       5.489   3.260  12.752  0.00  0.00    +0.000 A 
ATOM     13  C   UNL     1       6.310   3.621  11.682  0.00  0.00    +0.000 A 
ATOM     14  C   UNL     1       7.383   4.485  11.892  0.00  0.00    +0.000 A 
ATOM     15  C   UNL     1       7.622   4.984  13.168  0.00  0.00    +0.000 A 
ATOM     16  F   UNL     1       8.670   5.801  13.357  0.00  0.00    +0.000 F 
ENDBRANCH   9  10
ENDBRANCH   8   9
ENDBRANCH   1   8
BRANCH   4  17
ATOM     17  C   UNL     1       3.088   2.143  19.047  0.00  0.00    +0.000 C 
BRANCH  17  18
ATOM     18  C   UNL     1       2.773   2.799  20.381  0.00  0.00    +0.000 C 
BRANCH  18  19
ATOM     19  C   UNL     1       1.310   3.161  20.487  0.00  0.00    +0.000 C 
ATOM     20  F   UNL     1       1.083   4.485  20.344  0.00  0.00    +0.000 F 
ATOM     21  F   UNL     1       0.578   2.518  19.551  0.00  0.00    +0.000 F 
ATOM     22  F   UNL     1       0.818   2.801  21.696  0.00  0.00    +0.000 F 
ENDBRANCH  18  19
ENDBRANCH  17  18
ENDBRANCH   4  17
TORSDOF 6
ENDMDL
MODEL 5
REMARK VINA RESULT:      -6.7      2.555      4.199
REMARK  Name = 
REMARK  7 active torsions:
REMARK  status: ('A' for Active; 'I' for Inactive)
REMARK    1  A    between atoms: C_1  and  C_2
REMARK    2  A    between atoms: C_2  and  C_3
REMARK    3  A    between atoms: C_2  and  N_11
REMARK    4  A    between atoms: C_3  and  C_4
REMARK    5  A    between atoms: N_14  and  C_15
REMARK    6  A    between atoms: C_15  and  C_16
REMARK    7  A    between atoms: C_16  and  C_17
REMARK                            x       y       z     vdW  Elec       q    Type
REMARK                         _______ _______ _______ _____ _____    ______ ____
ROOT
ATOM      1  N   UNL     1       2.827   6.566  18.709  0.00  0.00    +0.000 N 
ATOM      2  C   UNL     1       4.087   6.293  18.254  0.00  0.00    +0.000 C 
ATOM      3  O   UNL     1       4.964   5.759  18.920  0.00  0.00    +0.000 OA
ATOM      4  N   UNL     1       4.264   6.704  16.959  0.00  0.00    +0.000 N 
ATOM      5  H   UNL     1       2.285   7.243  18.191  0.00  0.00    +0.000 HD
ATOM      6  H   UNL     1       3.435   6.780  16.388  0.00  0.00    +0.000 HD
ENDROOT
BRANCH   1   8
ATOM      7  C   UNL     1       1.608   7.432  20.671  0.00  0.00    +0.000 C 
ATOM      8  C   UNL     1       2.428   6.277  20.085  0.00  0.00    +0.000 C 
BRANCH   8   9
ATOM      9  C   UNL     1       1.604   4.977  20.186  0.00  0.00    +0.000 C 
BRANCH   9  10
ATOM     10  C   UNL     1       2.262   3.776  19.558  0.00  0.00    +0.000 A 
ATOM     11  C   UNL     1       3.265   3.066  20.231  0.00  0.00    +0.000 A 
ATOM     12  C   UNL     1       3.856   1.947  19.639  0.00  0.00    +0.000 A 
ATOM     13  C   UNL     1       3.453   1.525  18.371  0.00  0.00    +0.000 A 
ATOM     14  C   UNL     1       2.465   2.230  17.688  0.00  0.00    +0.000 A 
ATOM     15  C   UNL     1       1.882   3.345  18.282  0.00  0.00    +0.000 A 
ATOM     16  F   UNL     1       0.942   4.023  17.604  0.00  0.00    +0.000 F 
ENDBRANCH   9  10
ENDBRANCH   8   9
ENDBRANCH   1   8
BRANCH   4  17
ATOM     17  C   UNL     1       5.555   6.562  16.308  0.00  0.00    +0.000 C 
BRANCH  17  18
ATOM     18  C   UNL     1       5.534   5.537  15.186  0.00  0.00    +0.000 C 
BRANCH  18  19
ATOM     19  C   UNL     1       6.096   4.210  15.640  0.00  0.00    +0.000 C 
ATOM     20  F   UNL     1       5.318   3.594  16.556  0.00  0.00    +0.000 F 
ATOM     21  F   UNL     1       6.251   3.363  14.599  0.00  0.00    +0.000 F 
ATOM     22  F   UNL     1       7.316   4.378  16.202  0.00  0.00    +0.000 F 
ENDBRANCH  18  19
ENDBRANCH  17  18
ENDBRANCH   4  17
TORSDOF 6
ENDMDL
MODEL 6
REMARK VINA RESULT:      -6.7      3.357      6.974
REMARK  Name = 
REMARK  7 active torsions:
REMARK  status: ('A' for Active; 'I' for Inactive)
REMARK    1  A    between atoms: C_1  and  C_2
REMARK    2  A    between atoms: C_2  and  C_3
REMARK    3  A    between atoms: C_2  and  N_11
REMARK    4  A    between atoms: C_3  and  C_4
REMARK    5  A    between atoms: N_14  and  C_15
REMARK    6  A    between atoms: C_15  and  C_16
REMARK    7  A    between atoms: C_16  and  C_17
REMARK                            x       y       z     vdW  Elec       q    Type
REMARK                         _______ _______ _______ _____ _____    ______ ____
ROOT
ATOM      1  N   UNL     1       6.026   4.278  17.528  0.00  0.00    +0.000 N 
ATOM      2  C   UNL     1       4.826   4.194  18.179  0.00  0.00    +0.000 C 
ATOM      3  O   UNL     1       3.952   5.049  18.133  0.00  0.00    +0.000 OA
ATOM      4  N   UNL     1       4.719   3.040  18.908  0.00  0.00    +0.000 N 
ATOM      5  H   UNL     1       6.768   3.673  17.848  0.00  0.00    +0.000 HD
ATOM      6  H   UNL     1       5.283   2.258  18.609  0.00  0.00    +0.000 HD
ENDROOT
BRANCH   1   8
ATOM      7  C   UNL     1       6.867   6.594  17.647  0.00  0.00    +0.000 C 
ATOM      8  C   UNL     1       6.392   5.453  16.740  0.00  0.00    +0.000 C 
BRANCH   8   9
ATOM      9  C   UNL     1       7.498   5.137  15.713  0.00  0.00    +0.000 C 
BRANCH   9  10
ATOM     10  C   UNL     1       6.988   4.635  14.387  0.00  0.00    +0.000 A 
ATOM     11  C   UNL     1       5.831   3.849  14.308  0.00  0.00    +0.000 A 
ATOM     12  C   UNL     1       5.364   3.402  13.069  0.00  0.00    +0.000 A 
ATOM     13  C   UNL     1       6.048   3.734  11.897  0.00  0.00    +0.000 A 
ATOM     14  C   UNL     1       7.205   4.506  11.965  0.00  0.00    +0.000 A 
ATOM     15  C   UNL     1       7.666   4.945  13.202  0.00  0.00    +0.000 A 
ATOM     16  F   UNL     1       8.792   5.674  13.252  0.00  0.00    +0.000 F 
ENDBRANCH   9  10
ENDBRANCH   8   9
ENDBRANCH   1   8
BRANCH   4  17
ATOM     17  C   UNL     1       3.544   2.787  19.724  0.00  0.00    +0.000 C 
BRANCH  17  18
ATOM     18  C   UNL     1       2.473   2.006  18.981  0.00  0.00    +0.000 C 
BRANCH  18  19
ATOM     19  C   UNL     1       1.198   2.805  18.850  0.00  0.00    +0.000 C 
ATOM     20  F   UNL     1       1.235   3.692  17.832  0.00  0.00    +0.000 F 
ATOM     21  F   UNL     1       0.133   1.998  18.651  0.00  0.00    +0.000 F 
ATOM     22  F   UNL     1       0.960   3.508  19.982  0.00  0.00    +0.000 F 
ENDBRANCH  18  19
ENDBRANCH  17  18
ENDBRANCH   4  17
TORSDOF 6
ENDMDL
MODEL 7
REMARK VINA RESULT:      -6.6      4.120      5.284
REMARK  Name = 
REMARK  7 active torsions:
REMARK  status: ('A' for Active; 'I' for Inactive)
REMARK    1  A    between atoms: C_1  and  C_2
REMARK    2  A    between atoms: C_2  and  C_3
REMARK    3  A    between atoms: C_2  and  N_11
REMARK    4  A    between atoms: C_3  and  C_4
REMARK    5  A    between atoms: N_14  and  C_15
REMARK    6  A    between atoms: C_15  and  C_16
REMARK    7  A    between atoms: C_16  and  C_17
REMARK                            x       y       z     vdW  Elec       q    Type
REMARK                         _______ _______ _______ _____ _____    ______ ____
ROOT
ATOM      1  N   UNL     1       6.726   5.853  15.772  0.00  0.00    +0.000 N 
ATOM      2  C   UNL     1       6.736   4.768  14.940  0.00  0.00    +0.000 C 
ATOM      3  O   UNL     1       6.422   3.634  15.276  0.00  0.00    +0.000 OA
ATOM      4  N   UNL     1       7.159   5.095  13.679  0.00  0.00    +0.000 N 
ATOM      5  H   UNL     1       7.257   6.662  15.484  0.00  0.00    +0.000 HD
ATOM      6  H   UNL     1       7.039   6.056  13.393  0.00  0.00    +0.000 HD
ENDROOT
BRANCH   1   8
ATOM      7  C   UNL     1       7.347   6.529  18.062  0.00  0.00    +0.000 C 
ATOM      8  C   UNL     1       6.374   5.733  17.186  0.00  0.00    +0.000 C 
BRANCH   8   9
ATOM      9  C   UNL     1       4.936   6.220  17.465  0.00  0.00    +0.000 C 
BRANCH   9  10
ATOM     10  C   UNL     1       3.936   5.113  17.672  0.00  0.00    +0.000 A 
ATOM     11  C   UNL     1       4.331   3.768  17.660  0.00  0.00    +0.000 A 
ATOM     12  C   UNL     1       3.392   2.755  17.866  0.00  0.00    +0.000 A 
ATOM     13  C   UNL     1       2.051   3.071  18.086  0.00  0.00    +0.000 A 
ATOM     14  C   UNL     1       1.644   4.404  18.090  0.00  0.00    +0.000 A 
ATOM     15  C   UNL     1       2.584   5.408  17.882  0.00  0.00    +0.000 A 
ATOM     16  F   UNL     1       2.174   6.686  17.872  0.00  0.00    +0.000 F 
ENDBRANCH   9  10
ENDBRANCH   8   9
ENDBRANCH   1   8
BRANCH   4  17
ATOM     17  C   UNL     1       7.301   4.071  12.659  0.00  0.00    +0.000 C 
BRANCH  17  18
ATOM     18  C   UNL     1       6.253   4.186  11.564  0.00  0.00    +0.000 C 
BRANCH  18  19
ATOM     19  C   UNL     1       5.102   3.235  11.800  0.00  0.00    +0.000 C 
ATOM     20  F   UNL     1       5.489   1.942  11.848  0.00  0.00    +0.000 F 
ATOM     21  F   UNL     1       4.467   3.514  12.960  0.00  0.00    +0.000 F 
ATOM     22  F   UNL     1       4.187   3.341  10.808  0.00  0.00    +0.000 F 
ENDBRANCH  18  19
ENDBRANCH  17  18
ENDBRANCH   4  17
TORSDOF 6
ENDMDL
MODEL 8
REMARK VINA RESULT:      -6.6      3.584      4.686
REMARK  Name = 
REMARK  7 active torsions:
REMARK  status: ('A' for Active; 'I' for Inactive)
REMARK    1  A    between atoms: C_1  and  C_2
REMARK    2  A    between atoms: C_2  and  C_3
REMARK    3  A    between atoms: C_2  and  N_11
REMARK    4  A    between atoms: C_3  and  C_4
REMARK    5  A    between atoms: N_14  and  C_15
REMARK    6  A    between atoms: C_15  and  C_16
REMARK    7  A    between atoms: C_16  and  C_17
REMARK                            x       y       z     vdW  Elec       q    Type
REMARK                         _______ _______ _______ _____ _____    ______ ____
ROOT
ATOM      1  N   UNL     1       5.677   5.524  17.162  0.00  0.00    +0.000 N 
ATOM      2  C   UNL     1       5.895   4.644  16.137  0.00  0.00    +0.000 C 
ATOM      3  O   UNL     1       5.783   3.430  16.231  0.00  0.00    +0.000 OA
ATOM      4  N   UNL     1       6.274   5.284  14.987  0.00  0.00    +0.000 N 
ATOM      5  H   UNL     1       6.060   6.453  17.063  0.00  0.00    +0.000 HD
ATOM      6  H   UNL     1       5.990   6.247  14.886  0.00  0.00    +0.000 HD
ENDROOT
BRANCH   1   8
ATOM      7  C   UNL     1       6.419   5.445  19.513  0.00  0.00    +0.000 C 
ATOM      8  C   UNL     1       5.328   5.067  18.506  0.00  0.00    +0.000 C 
BRANCH   8   9
ATOM      9  C   UNL     1       3.982   5.651  18.982  0.00  0.00    +0.000 C 
BRANCH   9  10
ATOM     10  C   UNL     1       2.868   4.641  19.079  0.00  0.00    +0.000 A 
ATOM     11  C   UNL     1       2.751   3.600  18.148  0.00  0.00    +0.000 A 
ATOM     12  C   UNL     1       1.719   2.665  18.260  0.00  0.00    +0.000 A 
ATOM     13  C   UNL     1       0.793   2.760  19.300  0.00  0.00    +0.000 A 
ATOM     14  C   UNL     1       0.892   3.797  20.225  0.00  0.00    +0.000 A 
ATOM     15  C   UNL     1       1.921   4.726  20.107  0.00  0.00    +0.000 A 
ATOM     16  F   UNL     1       1.993   5.728  20.996  0.00  0.00    +0.000 F 
ENDBRANCH   9  10
ENDBRANCH   8   9
ENDBRANCH   1   8
BRANCH   4  17
ATOM     17  C   UNL     1       6.614   4.523  13.797  0.00  0.00    +0.000 C 
BRANCH  17  18
ATOM     18  C   UNL     1       5.490   3.603  13.350  0.00  0.00    +0.000 C 
BRANCH  18  19
ATOM     19  C   UNL     1       5.668   3.174  11.912  0.00  0.00    +0.000 C 
ATOM     20  F   UNL     1       5.674   1.832  11.760  0.00  0.00    +0.000 F 
ATOM     21  F   UNL     1       4.684   3.669  11.129  0.00  0.00    +0.000 F 
ATOM     22  F   UNL     1       6.841   3.636  11.420  0.00  0.00    +0.000 F 
ENDBRANCH  18  19
ENDBRANCH  17  18
ENDBRANCH   4  17
TORSDOF 6
ENDMDL
MODEL 9
REMARK VINA RESULT:      -6.6      3.674      4.582
REMARK  Name = 
REMARK  7 active torsions:
REMARK  status: ('A' for Active; 'I' for Inactive)
REMARK    1  A    between atoms: C_1  and  C_2
REMARK    2  A    between atoms: C_2  and  C_3
REMARK    3  A    between atoms: C_2  and  N_11
REMARK    4  A    between atoms: C_3  and  C_4
REMARK    5  A    between atoms: N_14  and  C_15
REMARK    6  A    between atoms: C_15  and  C_16
REMARK    7  A    between atoms: C_16  and  C_17
REMARK                            x       y       z     vdW  Elec       q    Type
REMARK                         _______ _______ _______ _____ _____    ______ ____
ROOT
ATOM      1  N   UNL     1       4.920   5.557  16.341  0.00  0.00    +0.000 N 
ATOM      2  C   UNL     1       6.007   4.949  15.775  0.00  0.00    +0.000 C 
ATOM      3  O   UNL     1       6.622   4.019  16.279  0.00  0.00    +0.000 OA
ATOM      4  N   UNL     1       6.343   5.518  14.575  0.00  0.00    +0.000 N 
ATOM      5  H   UNL     1       4.668   6.470  15.992  0.00  0.00    +0.000 HD
ATOM      6  H   UNL     1       5.607   5.995  14.074  0.00  0.00    +0.000 HD
ENDROOT
BRANCH   1   8
ATOM      7  C   UNL     1       3.527   6.258  18.252  0.00  0.00    +0.000 C 
ATOM      8  C   UNL     1       4.419   5.164  17.656  0.00  0.00    +0.000 C 
BRANCH   8   9
ATOM      9  C   UNL     1       3.622   3.844  17.599  0.00  0.00    +0.000 C 
BRANCH   9  10
ATOM     10  C   UNL     1       2.852   3.530  18.855  0.00  0.00    +0.000 A 
ATOM     11  C   UNL     1       3.505   3.080  20.010  0.00  0.00    +0.000 A 
ATOM     12  C   UNL     1       2.776   2.805  21.170  0.00  0.00    +0.000 A 
ATOM     13  C   UNL     1       1.391   2.975  21.189  0.00  0.00    +0.000 A 
ATOM     14  C   UNL     1       0.730   3.411  20.043  0.00  0.00    +0.000 A 
ATOM     15  C   UNL     1       1.461   3.681  18.891  0.00  0.00    +0.000 A 
ATOM     16  F   UNL     1       0.807   4.084  17.790  0.00  0.00    +0.000 F 
ENDBRANCH   9  10
ENDBRANCH   8   9
ENDBRANCH   1   8
BRANCH   4  17
ATOM     17  C   UNL     1       7.509   5.058  13.840  0.00  0.00    +0.000 C 
BRANCH  17  18
ATOM     18  C   UNL     1       7.206   4.783  12.376  0.00  0.00    +0.000 C 
BRANCH  18  19
ATOM     19  C   UNL     1       6.464   3.479  12.202  0.00  0.00    +0.000 C 
ATOM     20  F   UNL     1       5.255   3.634  11.620  0.00  0.00    +0.000 F 
ATOM     21  F   UNL     1       7.171   2.610  11.446  0.00  0.00    +0.000 F 
ATOM     22  F   UNL     1       6.256   2.887  13.401  0.00  0.00    +0.000 F 
ENDBRANCH  18  19
ENDBRANCH  17  18
ENDBRANCH   4  17
TORSDOF 6
ENDMDL
