MODEL 1
REMARK VINA RESULT:      -7.2      0.000      0.000
REMARK  Name = 
REMARK  11 active torsions:
REMARK  status: ('A' for Active; 'I' for Inactive)
REMARK    1  A    between atoms: C_1  and  C_2
REMARK    2  A    between atoms: C_2  and  C_3
REMARK    3  A    between atoms: C_3  and  O_4
REMARK    4  A    between atoms: O_4  and  C_5
REMARK    5  A    between atoms: C_8  and  C_9
REMARK    6  A    between atoms: N_11  and  C_12
REMARK    7  A    between atoms: C_12  and  C_13
REMARK    8  A    between atoms: C_13  and  C_14
REMARK    9  A    between atoms: C_14  and  N_15
REMARK   10  A    between atoms: N_15  and  C_16
REMARK   11  A    between atoms: N_15  and  C_17
REMARK                            x       y       z     vdW  Elec       q    Type
REMARK                         _______ _______ _______ _____ _____    ______ ____
ROOT
ATOM      1  C   UNL     1       3.505   6.520  17.957  0.00  0.00    +0.000 A 
ATOM      2  C   UNL     1       3.072   5.244  17.875  0.00  0.00    +0.000 A 
ATOM      3  N   UNL     1       3.837   4.113  17.569  0.00  0.00    +0.000 N 
ATOM      4  C   UNL     1       4.810   4.381  16.556  0.00  0.00    +0.000 A 
ATOM      5  C   UNL     1       5.161   3.393  15.637  0.00  0.00    +0.000 A 
ATOM      6  C   UNL     1       6.054   3.703  14.611  0.00  0.00    +0.000 A 
ATOM      7  C   UNL     1       6.595   4.988  14.514  0.00  0.00    +0.000 A 
ATOM      8  C   UNL     1       6.271   5.970  15.458  0.00  0.00    +0.000 A 
ATOM      9  C   UNL     1       5.365   5.666  16.470  0.00  0.00    +0.000 A 
ATOM     10  C   UNL     1       4.926   6.676  17.472  0.00  0.00    +0.000 A 
ATOM     11  O   UNL     1       5.682   7.569  17.824  0.00  0.00    +0.000 OA
ENDROOT
BRANCH   1  15
ATOM     12  C   UNL     1       0.859   9.667  19.357  0.00  0.00    +0.000 A 
ATOM     13  C   UNL     1       1.243   8.611  20.181  0.00  0.00    +0.000 A 
ATOM     14  C   UNL     1       2.103   7.631  19.723  0.00  0.00    +0.000 A 
ATOM     15  C   UNL     1       2.637   7.637  18.422  0.00  0.00    +0.000 A 
ATOM     16  C   UNL     1       2.290   8.733  17.620  0.00  0.00    +0.000 A 
ATOM     17  C   UNL     1       1.403   9.741  18.070  0.00  0.00    +0.000 A 
BRANCH  12  18
ATOM     18  O   UNL     1      -0.025  10.655  19.719  0.00  0.00    +0.000 OA
BRANCH  18  19
ATOM     19  C   UNL     1      -0.731  11.249  18.625  0.00  0.00    +0.000 C 
BRANCH  19  21
ATOM     20  C   UNL     1      -2.843  11.241  17.294  0.00  0.00    +0.000 C 
ATOM     21  C   UNL     1      -1.971  10.446  18.256  0.00  0.00    +0.000 C 
ENDBRANCH  19  21
ENDBRANCH  18  19
ENDBRANCH  12  18
ENDBRANCH   1  15
BRANCH   3  22
ATOM     22  C   UNL     1       4.617   3.524  18.711  0.00  0.00    +0.000 C 
BRANCH  22  23
ATOM     23  C   UNL     1       3.922   2.301  19.316  0.00  0.00    +0.000 C 
BRANCH  23  24
ATOM     24  C   UNL     1       3.129   2.672  20.578  0.00  0.00    +0.000 C 
BRANCH  24  25
ATOM     25  N   UNL     1       1.668   2.668  20.400  0.00  0.00    +0.000 NA
ATOM     26  C   UNL     1       1.083   4.006  20.536  0.00  0.00    +0.000 C 
ATOM     27  C   UNL     1       1.313   2.101  19.098  0.00  0.00    +0.000 C 
ENDBRANCH  24  25
ENDBRANCH  23  24
ENDBRANCH  22  23
ENDBRANCH   3  22
TORSDOF 8
ENDMDL
MODEL 2
REMARK VINA RESULT:      -7.2      0.513      1.067
REMARK  Name = 
REMARK  11 active torsions:
REMARK  status: ('A' for Active; 'I' for Inactive)
REMARK    1  A    between atoms: C_1  and  C_2
REMARK    2  A    between atoms: C_2  and  C_3
REMARK    3  A    between atoms: C_3  and  O_4
REMARK    4  A    between atoms: O_4  and  C_5
REMARK    5  A    between atoms: C_8  and  C_9
REMARK    6  A    between atoms: N_11  and  C_12
REMARK    7  A    between atoms: C_12  and  C_13
REMARK    8  A    between atoms: C_13  and  C_14
REMARK    9  A    between atoms: C_14  and  N_15
REMARK   10  A    between atoms: N_15  and  C_16
REMARK   11  A    between atoms: N_15  and  C_17
REMARK                            x       y       z     vdW  Elec       q    Type
REMARK                         _______ _______ _______ _____ _____    ______ ____
ROOT
ATOM      1  C   UNL     1       3.539   6.395  17.874  0.00  0.00    +0.000 A 
ATOM      2  C   UNL     1       3.076   5.142  17.681  0.00  0.00    +0.000 A 
ATOM      3  N   UNL     1       3.825   4.010  17.344  0.00  0.00    +0.000 N 
ATOM      4  C   UNL     1       4.865   4.313  16.410  0.00  0.00    +0.000 A 
ATOM      5  C   UNL     1       5.243   3.378  15.447  0.00  0.00    +0.000 A 
ATOM      6  C   UNL     1       6.204   3.726  14.499  0.00  0.00    +0.000 A 
ATOM      7  C   UNL     1       6.786   4.996  14.521  0.00  0.00    +0.000 A 
ATOM      8  C   UNL     1       6.433   5.924  15.509  0.00  0.00    +0.000 A 
ATOM      9  C   UNL     1       5.460   5.583  16.443  0.00  0.00    +0.000 A 
ATOM     10  C   UNL     1       4.990   6.537  17.485  0.00  0.00    +0.000 A 
ATOM     11  O   UNL     1       5.748   7.381  17.940  0.00  0.00    +0.000 OA
ENDROOT
BRANCH   1  15
ATOM     12  C   UNL     1       1.143   9.741  19.265  0.00  0.00    +0.000 A 
ATOM     13  C   UNL     1       1.669   9.701  17.976  0.00  0.00    +0.000 A 
ATOM     14  C   UNL     1       2.410   8.618  17.545  0.00  0.00    +0.000 A 
ATOM     15  C   UNL     1       2.676   7.506  18.364  0.00  0.00    +0.000 A 
ATOM     16  C   UNL     1       2.096   7.529  19.640  0.00  0.00    +0.000 A 
ATOM     17  C   UNL     1       1.341   8.636  20.100  0.00  0.00    +0.000 A 
BRANCH  12  18
ATOM     18  O   UNL     1       0.435  10.797  19.785  0.00  0.00    +0.000 OA
BRANCH  18  19
ATOM     19  C   UNL     1      -0.987  10.661  19.695  0.00  0.00    +0.000 C 
BRANCH  19  21
ATOM     20  C   UNL     1      -2.435   9.914  17.804  0.00  0.00    +0.000 C 
ATOM     21  C   UNL     1      -1.495  11.003  18.302  0.00  0.00    +0.000 C 
ENDBRANCH  19  21
ENDBRANCH  18  19
ENDBRANCH  12  18
ENDBRANCH   1  15
BRANCH   3  22
ATOM     22  C   UNL     1       4.519   3.321  18.487  0.00  0.00    +0.000 C 
BRANCH  22  23
ATOM     23  C   UNL     1       3.785   3.524  19.815  0.00  0.00    +0.000 C 
BRANCH  23  24
ATOM     24  C   UNL     1       2.873   2.333  20.141  0.00  0.00    +0.000 C 
BRANCH  24  25
ATOM     25  N   UNL     1       1.436   2.652  20.154  0.00  0.00    +0.000 NA
ATOM     26  C   UNL     1       1.172   4.034  20.568  0.00  0.00    +0.000 C 
ATOM     27  C   UNL     1       0.846   2.406  18.836  0.00  0.00    +0.000 C 
ENDBRANCH  24  25
ENDBRANCH  23  24
ENDBRANCH  22  23
ENDBRANCH   3  22
TORSDOF 8
ENDMDL
MODEL 3
REMARK VINA RESULT:      -7.2      1.259      1.838
REMARK  Name = 
REMARK  11 active torsions:
REMARK  status: ('A' for Active; 'I' for Inactive)
REMARK    1  A    between atoms: C_1  and  C_2
REMARK    2  A    between atoms: C_2  and  C_3
REMARK    3  A    between atoms: C_3  and  O_4
REMARK    4  A    between atoms: O_4  and  C_5
REMARK    5  A    between atoms: C_8  and  C_9
REMARK    6  A    between atoms: N_11  and  C_12
REMARK    7  A    between atoms: C_12  and  C_13
REMARK    8  A    between atoms: C_13  and  C_14
REMARK    9  A    between atoms: C_14  and  N_15
REMARK   10  A    between atoms: N_15  and  C_16
REMARK   11  A    between atoms: N_15  and  C_17
REMARK                            x       y       z     vdW  Elec       q    Type
REMARK                         _______ _______ _______ _____ _____    ______ ____
ROOT
ATOM      1  C   UNL     1       3.407   6.495  18.111  0.00  0.00    +0.000 A 
ATOM      2  C   UNL     1       3.080   5.186  18.136  0.00  0.00    +0.000 A 
ATOM      3  N   UNL     1       3.908   4.104  17.818  0.00  0.00    +0.000 N 
ATOM      4  C   UNL     1       4.761   4.390  16.706  0.00  0.00    +0.000 A 
ATOM      5  C   UNL     1       5.113   3.381  15.810  0.00  0.00    +0.000 A 
ATOM      6  C   UNL     1       5.880   3.700  14.691  0.00  0.00    +0.000 A 
ATOM      7  C   UNL     1       6.299   5.017  14.477  0.00  0.00    +0.000 A 
ATOM      8  C   UNL     1       5.977   6.023  15.395  0.00  0.00    +0.000 A 
ATOM      9  C   UNL     1       5.194   5.708  16.502  0.00  0.00    +0.000 A 
ATOM     10  C   UNL     1       4.761   6.736  17.487  0.00  0.00    +0.000 A 
ATOM     11  O   UNL     1       5.466   7.708  17.721  0.00  0.00    +0.000 OA
ENDROOT
BRANCH   1  15
ATOM     12  C   UNL     1       0.843   9.725  19.475  0.00  0.00    +0.000 A 
ATOM     13  C   UNL     1       1.253   9.625  18.147  0.00  0.00    +0.000 A 
ATOM     14  C   UNL     1       2.051   8.578  17.728  0.00  0.00    +0.000 A 
ATOM     15  C   UNL     1       2.492   7.564  18.597  0.00  0.00    +0.000 A 
ATOM     16  C   UNL     1       2.029   7.643  19.918  0.00  0.00    +0.000 A 
ATOM     17  C   UNL     1       1.218   8.715  20.366  0.00  0.00    +0.000 A 
BRANCH  12  18
ATOM     18  O   UNL     1       0.089  10.756  19.981  0.00  0.00    +0.000 OA
BRANCH  18  19
ATOM     19  C   UNL     1       0.418  11.128  21.323  0.00  0.00    +0.000 C 
BRANCH  19  21
ATOM     20  C   UNL     1      -1.061  12.663  22.623  0.00  0.00    +0.000 C 
ATOM     21  C   UNL     1      -0.824  11.220  22.199  0.00  0.00    +0.000 C 
ENDBRANCH  19  21
ENDBRANCH  18  19
ENDBRANCH  12  18
ENDBRANCH   1  15
BRANCH   3  22
ATOM     22  C   UNL     1       4.835   3.649  18.911  0.00  0.00    +0.000 C 
BRANCH  22  23
ATOM     23  C   UNL     1       4.284   2.438  19.669  0.00  0.00    +0.000 C 
BRANCH  23  24
ATOM     24  C   UNL     1       3.101   1.801  18.927  0.00  0.00    +0.000 C 
BRANCH  24  25
ATOM     25  N   UNL     1       1.814   1.897  19.637  0.00  0.00    +0.000 NA
ATOM     26  C   UNL     1       1.894   2.748  20.828  0.00  0.00    +0.000 C 
ATOM     27  C   UNL     1       0.771   2.395  18.738  0.00  0.00    +0.000 C 
ENDBRANCH  24  25
ENDBRANCH  23  24
ENDBRANCH  22  23
ENDBRANCH   3  22
TORSDOF 8
ENDMDL
MODEL 4
REMARK VINA RESULT:      -7.2      1.624      2.228
REMARK  Name = 
REMARK  11 active torsions:
REMARK  status: ('A' for Active; 'I' for Inactive)
REMARK    1  A    between atoms: C_1  and  C_2
REMARK    2  A    between atoms: C_2  and  C_3
REMARK    3  A    between atoms: C_3  and  O_4
REMARK    4  A    between atoms: O_4  and  C_5
REMARK    5  A    between atoms: C_8  and  C_9
REMARK    6  A    between atoms: N_11  and  C_12
REMARK    7  A    between atoms: C_12  and  C_13
REMARK    8  A    between atoms: C_13  and  C_14
REMARK    9  A    between atoms: C_14  and  N_15
REMARK   10  A    between atoms: N_15  and  C_16
REMARK   11  A    between atoms: N_15  and  C_17
REMARK                            x       y       z     vdW  Elec       q    Type
REMARK                         _______ _______ _______ _____ _____    ______ ____
ROOT
ATOM      1  C   UNL     1       3.368   5.963  18.242  0.00  0.00    +0.000 A 
ATOM      2  C   UNL     1       2.823   5.011  17.455  0.00  0.00    +0.000 A 
ATOM      3  N   UNL     1       3.480   3.921  16.873  0.00  0.00    +0.000 N 
ATOM      4  C   UNL     1       4.789   4.267  16.414  0.00  0.00    +0.000 A 
ATOM      5  C   UNL     1       5.317   3.665  15.272  0.00  0.00    +0.000 A 
ATOM      6  C   UNL     1       6.563   4.075  14.799  0.00  0.00    +0.000 A 
ATOM      7  C   UNL     1       7.276   5.073  15.469  0.00  0.00    +0.000 A 
ATOM      8  C   UNL     1       6.762   5.653  16.636  0.00  0.00    +0.000 A 
ATOM      9  C   UNL     1       5.511   5.257  17.097  0.00  0.00    +0.000 A 
ATOM     10  C   UNL     1       4.874   5.871  18.294  0.00  0.00    +0.000 A 
ATOM     11  O   UNL     1       5.560   6.289  19.216  0.00  0.00    +0.000 OA
ENDROOT
BRANCH   1  15
ATOM     12  C   UNL     1       1.108   9.122  20.186  0.00  0.00    +0.000 A 
ATOM     13  C   UNL     1       1.462   9.195  18.840  0.00  0.00    +0.000 A 
ATOM     14  C   UNL     1       2.163   8.170  18.235  0.00  0.00    +0.000 A 
ATOM     15  C   UNL     1       2.555   7.007  18.923  0.00  0.00    +0.000 A 
ATOM     16  C   UNL     1       2.145   6.918  20.261  0.00  0.00    +0.000 A 
ATOM     17  C   UNL     1       1.435   7.964  20.900  0.00  0.00    +0.000 A 
BRANCH  12  18
ATOM     18  O   UNL     1       0.453  10.116  20.873  0.00  0.00    +0.000 OA
BRANCH  18  19
ATOM     19  C   UNL     1       0.587  10.040  22.296  0.00  0.00    +0.000 C 
BRANCH  19  21
ATOM     20  C   UNL     1      -1.330  11.509  22.930  0.00  0.00    +0.000 C 
ATOM     21  C   UNL     1      -0.767  10.095  22.989  0.00  0.00    +0.000 C 
ENDBRANCH  19  21
ENDBRANCH  18  19
ENDBRANCH  12  18
ENDBRANCH   1  15
BRANCH   3  22
ATOM     22  C   UNL     1       3.684   2.729  17.767  0.00  0.00    +0.000 C 
BRANCH  22  23
ATOM     23  C   UNL     1       2.424   1.867  17.879  0.00  0.00    +0.000 C 
BRANCH  23  24
ATOM     24  C   UNL     1       1.937   1.770  19.332  0.00  0.00    +0.000 C 
BRANCH  24  25
ATOM     25  N   UNL     1       2.076   3.015  20.105  0.00  0.00    +0.000 NA
ATOM     26  C   UNL     1       0.807   3.738  20.237  0.00  0.00    +0.000 C 
ATOM     27  C   UNL     1       2.628   2.733  21.432  0.00  0.00    +0.000 C 
ENDBRANCH  24  25
ENDBRANCH  23  24
ENDBRANCH  22  23
ENDBRANCH   3  22
TORSDOF 8
ENDMDL
MODEL 5
REMARK VINA RESULT:      -7.2      1.170      1.474
REMARK  Name = 
REMARK  11 active torsions:
REMARK  status: ('A' for Active; 'I' for Inactive)
REMARK    1  A    between atoms: C_1  and  C_2
REMARK    2  A    between atoms: C_2  and  C_3
REMARK    3  A    between atoms: C_3  and  O_4
REMARK    4  A    between atoms: O_4  and  C_5
REMARK    5  A    between atoms: C_8  and  C_9
REMARK    6  A    between atoms: N_11  and  C_12
REMARK    7  A    between atoms: C_12  and  C_13
REMARK    8  A    between atoms: C_13  and  C_14
REMARK    9  A    between atoms: C_14  and  N_15
REMARK   10  A    between atoms: N_15  and  C_16
REMARK   11  A    between atoms: N_15  and  C_17
REMARK                            x       y       z     vdW  Elec       q    Type
REMARK                         _______ _______ _______ _____ _____    ______ ____
ROOT
ATOM      1  C   UNL     1       3.489   6.536  17.926  0.00  0.00    +0.000 A 
ATOM      2  C   UNL     1       3.053   5.261  17.839  0.00  0.00    +0.000 A 
ATOM      3  N   UNL     1       3.814   4.131  17.522  0.00  0.00    +0.000 N 
ATOM      4  C   UNL     1       4.782   4.403  16.505  0.00  0.00    +0.000 A 
ATOM      5  C   UNL     1       5.126   3.420  15.578  0.00  0.00    +0.000 A 
ATOM      6  C   UNL     1       6.013   3.734  14.549  0.00  0.00    +0.000 A 
ATOM      7  C   UNL     1       6.556   5.018  14.456  0.00  0.00    +0.000 A 
ATOM      8  C   UNL     1       6.240   5.995  15.408  0.00  0.00    +0.000 A 
ATOM      9  C   UNL     1       5.339   5.687  16.423  0.00  0.00    +0.000 A 
ATOM     10  C   UNL     1       4.907   6.692  17.433  0.00  0.00    +0.000 A 
ATOM     11  O   UNL     1       5.667   7.582  17.786  0.00  0.00    +0.000 OA
ENDROOT
BRANCH   1  15
ATOM     12  C   UNL     1       0.859   9.679  19.364  0.00  0.00    +0.000 A 
ATOM     13  C   UNL     1       1.273   8.635  20.188  0.00  0.00    +0.000 A 
ATOM     14  C   UNL     1       2.127   7.656  19.718  0.00  0.00    +0.000 A 
ATOM     15  C   UNL     1       2.626   7.651  18.403  0.00  0.00    +0.000 A 
ATOM     16  C   UNL     1       2.249   8.736  17.599  0.00  0.00    +0.000 A 
ATOM     17  C   UNL     1       1.367   9.743  18.062  0.00  0.00    +0.000 A 
BRANCH  12  18
ATOM     18  O   UNL     1      -0.023  10.664  19.739  0.00  0.00    +0.000 OA
BRANCH  18  19
ATOM     19  C   UNL     1      -0.624  10.464  21.022  0.00  0.00    +0.000 C 
BRANCH  19  21
ATOM     20  C   UNL     1      -1.487  11.679  23.025  0.00  0.00    +0.000 C 
ATOM     21  C   UNL     1      -0.437  11.677  21.923  0.00  0.00    +0.000 C 
ENDBRANCH  19  21
ENDBRANCH  18  19
ENDBRANCH  12  18
ENDBRANCH   1  15
BRANCH   3  22
ATOM     22  C   UNL     1       4.600   3.533  18.656  0.00  0.00    +0.000 C 
BRANCH  22  23
ATOM     23  C   UNL     1       3.908   2.307  19.257  0.00  0.00    +0.000 C 
BRANCH  23  24
ATOM     24  C   UNL     1       3.181   2.656  20.564  0.00  0.00    +0.000 C 
BRANCH  24  25
ATOM     25  N   UNL     1       1.714   2.708  20.449  0.00  0.00    +0.000 NA
ATOM     26  C   UNL     1       1.187   4.067  20.604  0.00  0.00    +0.000 C 
ATOM     27  C   UNL     1       1.282   2.150  19.166  0.00  0.00    +0.000 C 
ENDBRANCH  24  25
ENDBRANCH  23  24
ENDBRANCH  22  23
ENDBRANCH   3  22
TORSDOF 8
ENDMDL
MODEL 6
REMARK VINA RESULT:      -7.1      1.214      1.714
REMARK  Name = 
REMARK  11 active torsions:
REMARK  status: ('A' for Active; 'I' for Inactive)
REMARK    1  A    between atoms: C_1  and  C_2
REMARK    2  A    between atoms: C_2  and  C_3
REMARK    3  A    between atoms: C_3  and  O_4
REMARK    4  A    between atoms: O_4  and  C_5
REMARK    5  A    between atoms: C_8  and  C_9
REMARK    6  A    between atoms: N_11  and  C_12
REMARK    7  A    between atoms: C_12  and  C_13
REMARK    8  A    between atoms: C_13  and  C_14
REMARK    9  A    between atoms: C_14  and  N_15
REMARK   10  A    between atoms: N_15  and  C_16
REMARK   11  A    between atoms: N_15  and  C_17
REMARK                            x       y       z     vdW  Elec       q    Type
REMARK                         _______ _______ _______ _____ _____    ______ ____
ROOT
ATOM      1  C   UNL     1       3.382   6.578  18.136  0.00  0.00    +0.000 A 
ATOM      2  C   UNL     1       3.059   5.269  18.208  0.00  0.00    +0.000 A 
ATOM      3  N   UNL     1       3.896   4.180  17.939  0.00  0.00    +0.000 N 
ATOM      4  C   UNL     1       4.757   4.427  16.824  0.00  0.00    +0.000 A 
ATOM      5  C   UNL     1       5.121   3.387  15.970  0.00  0.00    +0.000 A 
ATOM      6  C   UNL     1       5.897   3.667  14.846  0.00  0.00    +0.000 A 
ATOM      7  C   UNL     1       6.312   4.977  14.587  0.00  0.00    +0.000 A 
ATOM      8  C   UNL     1       5.978   6.016  15.464  0.00  0.00    +0.000 A 
ATOM      9  C   UNL     1       5.186   5.739  16.574  0.00  0.00    +0.000 A 
ATOM     10  C   UNL     1       4.739   6.801  17.516  0.00  0.00    +0.000 A 
ATOM     11  O   UNL     1       5.438   7.784  17.719  0.00  0.00    +0.000 OA
ENDROOT
BRANCH   1  15
ATOM     12  C   UNL     1       0.793   9.845  19.358  0.00  0.00    +0.000 A 
ATOM     13  C   UNL     1       1.237   9.713  18.044  0.00  0.00    +0.000 A 
ATOM     14  C   UNL     1       2.043   8.655  17.670  0.00  0.00    +0.000 A 
ATOM     15  C   UNL     1       2.457   7.660  18.574  0.00  0.00    +0.000 A 
ATOM     16  C   UNL     1       1.960   7.770  19.880  0.00  0.00    +0.000 A 
ATOM     17  C   UNL     1       1.141   8.854  20.282  0.00  0.00    +0.000 A 
BRANCH  12  18
ATOM     18  O   UNL     1       0.030  10.890  19.820  0.00  0.00    +0.000 OA
BRANCH  18  19
ATOM     19  C   UNL     1       0.772  12.069  20.146  0.00  0.00    +0.000 C 
BRANCH  19  21
ATOM     20  C   UNL     1       1.984  13.277  18.328  0.00  0.00    +0.000 C 
ATOM     21  C   UNL     1       0.655  13.124  19.055  0.00  0.00    +0.000 C 
ENDBRANCH  19  21
ENDBRANCH  18  19
ENDBRANCH  12  18
ENDBRANCH   1  15
BRANCH   3  22
ATOM     22  C   UNL     1       4.814   3.770  19.056  0.00  0.00    +0.000 C 
BRANCH  22  23
ATOM     23  C   UNL     1       4.325   2.510  19.775  0.00  0.00    +0.000 C 
BRANCH  23  24
ATOM     24  C   UNL     1       3.110   1.895  19.066  0.00  0.00    +0.000 C 
BRANCH  24  25
ATOM     25  N   UNL     1       1.848   2.005  19.817  0.00  0.00    +0.000 NA
ATOM     26  C   UNL     1       1.943   2.944  20.939  0.00  0.00    +0.000 C 
ATOM     27  C   UNL     1       0.756   2.403  18.925  0.00  0.00    +0.000 C 
ENDBRANCH  24  25
ENDBRANCH  23  24
ENDBRANCH  22  23
ENDBRANCH   3  22
TORSDOF 8
ENDMDL
MODEL 7
REMARK VINA RESULT:      -7.0      2.585      7.369
REMARK  Name = 
REMARK  11 active torsions:
REMARK  status: ('A' for Active; 'I' for Inactive)
REMARK    1  A    between atoms: C_1  and  C_2
REMARK    2  A    between atoms: C_2  and  C_3
REMARK    3  A    between atoms: C_3  and  O_4
REMARK    4  A    between atoms: O_4  and  C_5
REMARK    5  A    between atoms: C_8  and  C_9
REMARK    6  A    between atoms: N_11  and  C_12
REMARK    7  A    between atoms: C_12  and  C_13
REMARK    8  A    between atoms: C_13  and  C_14
REMARK    9  A    between atoms: C_14  and  N_15
REMARK   10  A    between atoms: N_15  and  C_16
REMARK   11  A    between atoms: N_15  and  C_17
REMARK                            x       y       z     vdW  Elec       q    Type
REMARK                         _______ _______ _______ _____ _____    ______ ____
ROOT
ATOM      1  C   UNL     1       4.172   4.921  17.794  0.00  0.00    +0.000 A 
ATOM      2  C   UNL     1       2.979   5.546  17.896  0.00  0.00    +0.000 A 
ATOM      3  N   UNL     1       2.220   5.726  19.057  0.00  0.00    +0.000 N 
ATOM      4  C   UNL     1       2.263   4.579  19.910  0.00  0.00    +0.000 A 
ATOM      5  C   UNL     1       1.151   4.225  20.673  0.00  0.00    +0.000 A 
ATOM      6  C   UNL     1       1.190   3.059  21.436  0.00  0.00    +0.000 A 
ATOM      7  C   UNL     1       2.337   2.260  21.441  0.00  0.00    +0.000 A 
ATOM      8  C   UNL     1       3.467   2.634  20.704  0.00  0.00    +0.000 A 
ATOM      9  C   UNL     1       3.421   3.787  19.927  0.00  0.00    +0.000 A 
ATOM     10  C   UNL     1       4.560   4.214  19.070  0.00  0.00    +0.000 A 
ATOM     11  O   UNL     1       5.711   3.961  19.396  0.00  0.00    +0.000 OA
ENDROOT
BRANCH   1  15
ATOM     12  C   UNL     1       6.611   4.796  14.202  0.00  0.00    +0.000 A 
ATOM     13  C   UNL     1       6.359   3.653  14.958  0.00  0.00    +0.000 A 
ATOM     14  C   UNL     1       5.563   3.710  16.085  0.00  0.00    +0.000 A 
ATOM     15  C   UNL     1       4.965   4.901  16.534  0.00  0.00    +0.000 A 
ATOM     16  C   UNL     1       5.178   6.034  15.736  0.00  0.00    +0.000 A 
ATOM     17  C   UNL     1       5.999   5.996  14.583  0.00  0.00    +0.000 A 
BRANCH  12  18
ATOM     18  O   UNL     1       7.426   4.834  13.097  0.00  0.00    +0.000 OA
BRANCH  18  19
ATOM     19  C   UNL     1       7.131   3.843  12.108  0.00  0.00    +0.000 C 
BRANCH  19  21
ATOM     20  C   UNL     1       5.414   2.133  11.506  0.00  0.00    +0.000 C 
ATOM     21  C   UNL     1       5.641   3.538  12.048  0.00  0.00    +0.000 C 
ENDBRANCH  19  21
ENDBRANCH  18  19
ENDBRANCH  12  18
ENDBRANCH   1  15
BRANCH   3  22
ATOM     22  C   UNL     1       2.629   6.877  19.934  0.00  0.00    +0.000 C 
BRANCH  22  23
ATOM     23  C   UNL     1       1.577   7.989  19.958  0.00  0.00    +0.000 C 
BRANCH  23  24
ATOM     24  C   UNL     1       1.070   8.252  21.382  0.00  0.00    +0.000 C 
BRANCH  24  25
ATOM     25  N   UNL     1       0.579   9.622  21.610  0.00  0.00    +0.000 NA
ATOM     26  C   UNL     1      -0.241  10.116  20.500  0.00  0.00    +0.000 C 
ATOM     27  C   UNL     1      -0.182   9.690  22.860  0.00  0.00    +0.000 C 
ENDBRANCH  24  25
ENDBRANCH  23  24
ENDBRANCH  22  23
ENDBRANCH   3  22
TORSDOF 8
ENDMDL
MODEL 8
REMARK VINA RESULT:      -7.0      2.371      7.427
REMARK  Name = 
REMARK  11 active torsions:
REMARK  status: ('A' for Active; 'I' for Inactive)
REMARK    1  A    between atoms: C_1  and  C_2
REMARK    2  A    between atoms: C_2  and  C_3
REMARK    3  A    between atoms: C_3  and  O_4
REMARK    4  A    between atoms: O_4  and  C_5
REMARK    5  A    between atoms: C_8  and  C_9
REMARK    6  A    between atoms: N_11  and  C_12
REMARK    7  A    between atoms: C_12  and  C_13
REMARK    8  A    between atoms: C_13  and  C_14
REMARK    9  A    between atoms: C_14  and  N_15
REMARK   10  A    between atoms: N_15  and  C_16
REMARK   11  A    between atoms: N_15  and  C_17
REMARK                            x       y       z     vdW  Elec       q    Type
REMARK                         _______ _______ _______ _____ _____    ______ ____
ROOT
ATOM      1  C   UNL     1       4.211   4.863  17.829  0.00  0.00    +0.000 A 
ATOM      2  C   UNL     1       2.977   5.411  17.800  0.00  0.00    +0.000 A 
ATOM      3  N   UNL     1       2.116   5.603  18.885  0.00  0.00    +0.000 N 
ATOM      4  C   UNL     1       2.161   4.511  19.807  0.00  0.00    +0.000 A 
ATOM      5  C   UNL     1       1.015   4.126  20.501  0.00  0.00    +0.000 A 
ATOM      6  C   UNL     1       1.065   3.010  21.335  0.00  0.00    +0.000 A 
ATOM      7  C   UNL     1       2.256   2.291  21.477  0.00  0.00    +0.000 A 
ATOM      8  C   UNL     1       3.417   2.698  20.809  0.00  0.00    +0.000 A 
ATOM      9  C   UNL     1       3.361   3.801  19.962  0.00  0.00    +0.000 A 
ATOM     10  C   UNL     1       4.538   4.256  19.171  0.00  0.00    +0.000 A 
ATOM     11  O   UNL     1       5.672   4.099  19.601  0.00  0.00    +0.000 OA
ENDROOT
BRANCH   1  15
ATOM     12  C   UNL     1       6.686   4.794  14.260  0.00  0.00    +0.000 A 
ATOM     13  C   UNL     1       5.939   5.916  14.613  0.00  0.00    +0.000 A 
ATOM     14  C   UNL     1       5.175   5.925  15.764  0.00  0.00    +0.000 A 
ATOM     15  C   UNL     1       5.104   4.826  16.638  0.00  0.00    +0.000 A 
ATOM     16  C   UNL     1       5.903   3.723  16.304  0.00  0.00    +0.000 A 
ATOM     17  C   UNL     1       6.685   3.693  15.124  0.00  0.00    +0.000 A 
BRANCH  12  18
ATOM     18  O   UNL     1       7.434   4.686  13.113  0.00  0.00    +0.000 OA
BRANCH  18  19
ATOM     19  C   UNL     1       6.680   4.358  11.941  0.00  0.00    +0.000 C 
BRANCH  19  21
ATOM     20  C   UNL     1       4.459   3.264  11.619  0.00  0.00    +0.000 C 
ATOM     21  C   UNL     1       5.881   3.077  12.131  0.00  0.00    +0.000 C 
ENDBRANCH  19  21
ENDBRANCH  18  19
ENDBRANCH  12  18
ENDBRANCH   1  15
BRANCH   3  22
ATOM     22  C   UNL     1       2.380   6.826  19.719  0.00  0.00    +0.000 C 
BRANCH  22  23
ATOM     23  C   UNL     1       1.976   8.116  18.999  0.00  0.00    +0.000 C 
BRANCH  23  24
ATOM     24  C   UNL     1       1.158   9.038  19.914  0.00  0.00    +0.000 C 
BRANCH  24  25
ATOM     25  N   UNL     1       0.960  10.399  19.387  0.00  0.00    +0.000 NA
ATOM     26  C   UNL     1      -0.233  10.504  18.542  0.00  0.00    +0.000 C 
ATOM     27  C   UNL     1       0.879  11.364  20.486  0.00  0.00    +0.000 C 
ENDBRANCH  24  25
ENDBRANCH  23  24
ENDBRANCH  22  23
ENDBRANCH   3  22
TORSDOF 8
ENDMDL
MODEL 9
REMARK VINA RESULT:      -7.0      1.165      1.437
REMARK  Name = 
REMARK  11 active torsions:
REMARK  status: ('A' for Active; 'I' for Inactive)
REMARK    1  A    between atoms: C_1  and  C_2
REMARK    2  A    between atoms: C_2  and  C_3
REMARK    3  A    between atoms: C_3  and  O_4
REMARK    4  A    between atoms: O_4  and  C_5
REMARK    5  A    between atoms: C_8  and  C_9
REMARK    6  A    between atoms: N_11  and  C_12
REMARK    7  A    between atoms: C_12  and  C_13
REMARK    8  A    between atoms: C_13  and  C_14
REMARK    9  A    between atoms: C_14  and  N_15
REMARK   10  A    between atoms: N_15  and  C_16
REMARK   11  A    between atoms: N_15  and  C_17
REMARK                            x       y       z     vdW  Elec       q    Type
REMARK                         _______ _______ _______ _____ _____    ______ ____
ROOT
ATOM      1  C   UNL     1       3.279   6.003  18.367  0.00  0.00    +0.000 A 
ATOM      2  C   UNL     1       2.741   5.188  17.435  0.00  0.00    +0.000 A 
ATOM      3  N   UNL     1       3.326   4.047  16.874  0.00  0.00    +0.000 N 
ATOM      4  C   UNL     1       4.727   4.220  16.644  0.00  0.00    +0.000 A 
ATOM      5  C   UNL     1       5.342   3.612  15.551  0.00  0.00    +0.000 A 
ATOM      6  C   UNL     1       6.692   3.859  15.304  0.00  0.00    +0.000 A 
ATOM      7  C   UNL     1       7.419   4.701  16.149  0.00  0.00    +0.000 A 
ATOM      8  C   UNL     1       6.811   5.283  17.268  0.00  0.00    +0.000 A 
ATOM      9  C   UNL     1       5.459   5.052  17.503  0.00  0.00    +0.000 A 
ATOM     10  C   UNL     1       4.730   5.686  18.636  0.00  0.00    +0.000 A 
ATOM     11  O   UNL     1       5.312   5.945  19.680  0.00  0.00    +0.000 OA
ENDROOT
BRANCH   1  15
ATOM     12  C   UNL     1       0.946   9.144  20.252  0.00  0.00    +0.000 A 
ATOM     13  C   UNL     1       1.332   8.000  20.947  0.00  0.00    +0.000 A 
ATOM     14  C   UNL     1       2.093   7.022  20.336  0.00  0.00    +0.000 A 
ATOM     15  C   UNL     1       2.520   7.117  18.999  0.00  0.00    +0.000 A 
ATOM     16  C   UNL     1       2.174   8.297  18.325  0.00  0.00    +0.000 A 
ATOM     17  C   UNL     1       1.387   9.305  18.934  0.00  0.00    +0.000 A 
BRANCH  12  18
ATOM     18  O   UNL     1       0.154  10.140  20.771  0.00  0.00    +0.000 OA
BRANCH  18  19
ATOM     19  C   UNL     1      -0.060  11.248  19.890  0.00  0.00    +0.000 C 
BRANCH  19  21
ATOM     20  C   UNL     1      -1.914  10.855  18.264  0.00  0.00    +0.000 C 
ATOM     21  C   UNL     1      -1.540  11.463  19.609  0.00  0.00    +0.000 C 
ENDBRANCH  19  21
ENDBRANCH  18  19
ENDBRANCH  12  18
ENDBRANCH   1  15
BRANCH   3  22
ATOM     22  C   UNL     1       3.218   2.790  17.691  0.00  0.00    +0.000 C 
BRANCH  22  23
ATOM     23  C   UNL     1       1.799   2.560  18.216  0.00  0.00    +0.000 C 
BRANCH  23  24
ATOM     24  C   UNL     1       1.809   1.811  19.556  0.00  0.00    +0.000 C 
BRANCH  24  25
ATOM     25  N   UNL     1       1.355   2.613  20.705  0.00  0.00    +0.000 NA
ATOM     26  C   UNL     1       2.435   2.895  21.654  0.00  0.00    +0.000 C 
ATOM     27  C   UNL     1       0.756   3.868  20.246  0.00  0.00    +0.000 C 
ENDBRANCH  24  25
ENDBRANCH  23  24
ENDBRANCH  22  23
ENDBRANCH   3  22
TORSDOF 8
ENDMDL
