MODEL 1
REMARK VINA RESULT:      -6.3      0.000      0.000
REMARK  Name = 
REMARK  6 active torsions:
REMARK  status: ('A' for Active; 'I' for Inactive)
REMARK    1  A    between atoms: C_1  and  C_2
REMARK    2  A    between atoms: C_5  and  C_6
REMARK    3  A    between atoms: C_7  and  S_8
REMARK    4  A    between atoms: S_8  and  N_11
REMARK    5  A    between atoms: C_15  and  C_16
REMARK    6  A    between atoms: C_15  and  C_18
REMARK                            x       y       z     vdW  Elec       q    Type
REMARK                         _______ _______ _______ _____ _____    ______ ____
ROOT
ATOM      1  N   UNL     1       0.428  14.515  20.096  0.00  0.00    +0.000 NA
ATOM      2  C   UNL     1      -0.510  14.287  18.952  0.00  0.00    +0.000 C 
ATOM      3  C   UNL     1      -1.026  12.831  18.874  0.00  0.00    +0.000 C 
ATOM      4  C   UNL     1       0.013  11.723  19.068  0.00  0.00    +0.000 C 
ATOM      5  C   UNL     1      -0.147  10.481  18.534  0.00  0.00    +0.000 C 
ATOM      6  C   UNL     1       1.172  12.097  19.987  0.00  0.00    +0.000 C 
ATOM      7  C   UNL     1       1.593  13.579  19.935  0.00  0.00    +0.000 C 
ENDROOT
BRANCH   5   8
ATOM      8  C   UNL     1       0.817   9.383  18.772  0.00  0.00    +0.000 A 
ATOM      9  C   UNL     1       1.720   8.971  17.778  0.00  0.00    +0.000 A 
ATOM     10  C   UNL     1       2.618   7.927  18.031  0.00  0.00    +0.000 A 
ATOM     11  C   UNL     1       2.613   7.283  19.270  0.00  0.00    +0.000 A 
ATOM     12 CL   UNL     1       3.699   5.981  19.563  0.00  0.00    +0.000 Cl
ATOM     13  C   UNL     1       1.742   7.698  20.272  0.00  0.00    +0.000 A 
ATOM     14  C   UNL     1       0.859   8.744  20.018  0.00  0.00    +0.000 A 
ATOM     15  F   UNL     1       0.026   9.129  20.995  0.00  0.00    +0.000 F 
ENDBRANCH   5   8
BRANCH   1  16
ATOM     16  S   UNL     1      -0.262  14.546  21.665  0.00  0.00    +0.000 S 
ATOM     17  O   UNL     1      -0.716  15.904  21.900  0.00  0.00    +0.000 OA
ATOM     18  O   UNL     1       0.666  13.912  22.575  0.00  0.00    +0.000 OA
BRANCH  16  25
ATOM     19  C   UNL     1      -3.284  15.534  20.982  0.00  0.00    +0.000 C 
ATOM     20  C   UNL     1      -2.982  14.198  21.561  0.00  0.00    +0.000 A 
ATOM     21  N   UNL     1      -3.986  13.347  21.798  0.00  0.00    +0.000 NA
ATOM     22  N   UNL     1      -3.382  12.270  22.300  0.00  0.00    +0.000 N 
ATOM     23  C   UNL     1      -2.017  12.385  22.429  0.00  0.00    +0.000 A 
ATOM     24  C   UNL     1      -1.266  11.247  23.005  0.00  0.00    +0.000 C 
ATOM     25  C   UNL     1      -1.716  13.643  21.926  0.00  0.00    +0.000 A 
ATOM     26  H   UNL     1      -3.969  11.478  22.545  0.00  0.00    +0.000 HD
ENDBRANCH  16  25
ENDBRANCH   1  16
BRANCH   5  27
ATOM     27  C   UNL     1      -1.290  10.141  17.739  0.00  0.00    +0.000 C 
ATOM     28  N   UNL     1      -2.217   9.859  17.088  0.00  0.00    +0.000 NA
ENDBRANCH   5  27
TORSDOF 4
ENDMDL
MODEL 2
REMARK VINA RESULT:      -6.1      0.477      1.636
REMARK  Name = 
REMARK  6 active torsions:
REMARK  status: ('A' for Active; 'I' for Inactive)
REMARK    1  A    between atoms: C_1  and  C_2
REMARK    2  A    between atoms: C_5  and  C_6
REMARK    3  A    between atoms: C_7  and  S_8
REMARK    4  A    between atoms: S_8  and  N_11
REMARK    5  A    between atoms: C_15  and  C_16
REMARK    6  A    between atoms: C_15  and  C_18
REMARK                            x       y       z     vdW  Elec       q    Type
REMARK                         _______ _______ _______ _____ _____    ______ ____
ROOT
ATOM      1  N   UNL     1       0.241  14.453  20.643  0.00  0.00    +0.000 NA
ATOM      2  C   UNL     1      -0.649  14.314  19.448  0.00  0.00    +0.000 C 
ATOM      3  C   UNL     1      -1.145  12.865  19.228  0.00  0.00    +0.000 C 
ATOM      4  C   UNL     1      -0.101  11.754  19.370  0.00  0.00    +0.000 C 
ATOM      5  C   UNL     1      -0.225  10.559  18.728  0.00  0.00    +0.000 C 
ATOM      6  C   UNL     1       1.017  12.059  20.362  0.00  0.00    +0.000 C 
ATOM      7  C   UNL     1       1.422  13.543  20.452  0.00  0.00    +0.000 C 
ENDROOT
BRANCH   5   8
ATOM      8  C   UNL     1       0.742   9.454  18.912  0.00  0.00    +0.000 A 
ATOM      9  C   UNL     1       1.657   9.103  17.905  0.00  0.00    +0.000 A 
ATOM     10  C   UNL     1       2.557   8.050  18.107  0.00  0.00    +0.000 A 
ATOM     11  C   UNL     1       2.542   7.336  19.306  0.00  0.00    +0.000 A 
ATOM     12 CL   UNL     1       3.631   6.023  19.535  0.00  0.00    +0.000 Cl
ATOM     13  C   UNL     1       1.659   7.688  20.321  0.00  0.00    +0.000 A 
ATOM     14  C   UNL     1       0.774   8.743  20.119  0.00  0.00    +0.000 A 
ATOM     15  F   UNL     1      -0.070   9.068  21.108  0.00  0.00    +0.000 F 
ENDBRANCH   5   8
BRANCH   1  16
ATOM     16  S   UNL     1      -0.511  14.346  22.180  0.00  0.00    +0.000 S 
ATOM     17  O   UNL     1      -0.585  15.695  22.709  0.00  0.00    +0.000 OA
ATOM     18  O   UNL     1       0.147  13.297  22.929  0.00  0.00    +0.000 OA
BRANCH  16  25
ATOM     19  C   UNL     1      -1.622  11.406  23.013  0.00  0.00    +0.000 C 
ATOM     20  C   UNL     1      -2.518  12.532  22.638  0.00  0.00    +0.000 A 
ATOM     21  N   UNL     1      -3.842  12.347  22.658  0.00  0.00    +0.000 NA
ATOM     22  N   UNL     1      -4.336  13.526  22.282  0.00  0.00    +0.000 N 
ATOM     23  C   UNL     1      -3.388  14.479  21.988  0.00  0.00    +0.000 A 
ATOM     24  C   UNL     1      -3.846  15.811  21.533  0.00  0.00    +0.000 C 
ATOM     25  C   UNL     1      -2.171  13.859  22.236  0.00  0.00    +0.000 A 
ATOM     26  H   UNL     1      -5.347  13.616  22.240  0.00  0.00    +0.000 HD
ENDBRANCH  16  25
ENDBRANCH   1  16
BRANCH   5  27
ATOM     27  C   UNL     1      -1.332  10.278  17.863  0.00  0.00    +0.000 C 
ATOM     28  N   UNL     1      -2.229  10.049  17.151  0.00  0.00    +0.000 NA
ENDBRANCH   5  27
TORSDOF 4
ENDMDL
MODEL 3
REMARK VINA RESULT:      -6.1      3.723      5.185
REMARK  Name = 
REMARK  6 active torsions:
REMARK  status: ('A' for Active; 'I' for Inactive)
REMARK    1  A    between atoms: C_1  and  C_2
REMARK    2  A    between atoms: C_5  and  C_6
REMARK    3  A    between atoms: C_7  and  S_8
REMARK    4  A    between atoms: S_8  and  N_11
REMARK    5  A    between atoms: C_15  and  C_16
REMARK    6  A    between atoms: C_15  and  C_18
REMARK                            x       y       z     vdW  Elec       q    Type
REMARK                         _______ _______ _______ _____ _____    ______ ____
ROOT
ATOM      1  N   UNL     1      -5.355  14.126  22.044  0.00  0.00    +0.000 NA
ATOM      2  C   UNL     1      -4.482  15.324  21.836  0.00  0.00    +0.000 C 
ATOM      3  C   UNL     1      -3.413  15.109  20.737  0.00  0.00    +0.000 C 
ATOM      4  C   UNL     1      -2.661  13.776  20.763  0.00  0.00    +0.000 C 
ATOM      5  C   UNL     1      -1.407  13.644  20.248  0.00  0.00    +0.000 C 
ATOM      6  C   UNL     1      -3.469  12.604  21.312  0.00  0.00    +0.000 C 
ATOM      7  C   UNL     1      -4.475  12.968  22.421  0.00  0.00    +0.000 C 
ENDROOT
BRANCH   5   8
ATOM      8  C   UNL     1      -0.698  12.345  20.206  0.00  0.00    +0.000 A 
ATOM      9  C   UNL     1      -0.599  11.601  19.019  0.00  0.00    +0.000 A 
ATOM     10  C   UNL     1       0.074  10.373  19.011  0.00  0.00    +0.000 A 
ATOM     11  C   UNL     1       0.643   9.878  20.185  0.00  0.00    +0.000 A 
ATOM     12 CL   UNL     1       1.443   8.355  20.175  0.00  0.00    +0.000 Cl
ATOM     13  C   UNL     1       0.575  10.616  21.363  0.00  0.00    +0.000 A 
ATOM     14  C   UNL     1      -0.087  11.841  21.362  0.00  0.00    +0.000 A 
ATOM     15  F   UNL     1      -0.143  12.538  22.505  0.00  0.00    +0.000 F 
ENDBRANCH   5   8
BRANCH   1  16
ATOM     16  S   UNL     1      -6.506  13.789  20.818  0.00  0.00    +0.000 S 
ATOM     17  O   UNL     1      -5.876  14.107  19.550  0.00  0.00    +0.000 OA
ATOM     18  O   UNL     1      -7.757  14.409  21.196  0.00  0.00    +0.000 OA
BRANCH  16  25
ATOM     19  C   UNL     1      -7.915  11.846  23.011  0.00  0.00    +0.000 C 
ATOM     20  C   UNL     1      -7.596  11.404  21.627  0.00  0.00    +0.000 A 
ATOM     21  N   UNL     1      -7.915  10.163  21.248  0.00  0.00    +0.000 NA
ATOM     22  N   UNL     1      -7.504  10.099  19.981  0.00  0.00    +0.000 N 
ATOM     23  C   UNL     1      -6.901  11.244  19.515  0.00  0.00    +0.000 A 
ATOM     24  C   UNL     1      -6.387  11.254  18.127  0.00  0.00    +0.000 C 
ATOM     25  C   UNL     1      -6.966  12.138  20.574  0.00  0.00    +0.000 A 
ATOM     26  H   UNL     1      -7.662   9.228  19.484  0.00  0.00    +0.000 HD
ENDBRANCH  16  25
ENDBRANCH   1  16
BRANCH   5  27
ATOM     27  C   UNL     1      -0.707  14.751  19.669  0.00  0.00    +0.000 C 
ATOM     28  N   UNL     1      -0.137  15.658  19.203  0.00  0.00    +0.000 NA
ENDBRANCH   5  27
TORSDOF 4
ENDMDL
MODEL 4
REMARK VINA RESULT:      -6.0      1.885      2.023
REMARK  Name = 
REMARK  6 active torsions:
REMARK  status: ('A' for Active; 'I' for Inactive)
REMARK    1  A    between atoms: C_1  and  C_2
REMARK    2  A    between atoms: C_5  and  C_6
REMARK    3  A    between atoms: C_7  and  S_8
REMARK    4  A    between atoms: S_8  and  N_11
REMARK    5  A    between atoms: C_15  and  C_16
REMARK    6  A    between atoms: C_15  and  C_18
REMARK                            x       y       z     vdW  Elec       q    Type
REMARK                         _______ _______ _______ _____ _____    ______ ____
ROOT
ATOM      1  N   UNL     1      -0.553  14.629  21.761  0.00  0.00    +0.000 NA
ATOM      2  C   UNL     1      -1.528  14.573  20.626  0.00  0.00    +0.000 C 
ATOM      3  C   UNL     1      -1.923  13.129  20.237  0.00  0.00    +0.000 C 
ATOM      4  C   UNL     1      -0.785  12.108  20.142  0.00  0.00    +0.000 C 
ATOM      5  C   UNL     1      -0.867  11.007  19.346  0.00  0.00    +0.000 C 
ATOM      6  C   UNL     1       0.385  12.377  21.084  0.00  0.00    +0.000 C 
ATOM      7  C   UNL     1       0.677  13.865  21.356  0.00  0.00    +0.000 C 
ENDROOT
BRANCH   5   8
ATOM      8  C   UNL     1       0.198   9.979  19.299  0.00  0.00    +0.000 A 
ATOM      9  C   UNL     1       1.036   9.842  18.181  0.00  0.00    +0.000 A 
ATOM     10  C   UNL     1       2.032   8.858  18.163  0.00  0.00    +0.000 A 
ATOM     11  C   UNL     1       2.190   8.002  19.254  0.00  0.00    +0.000 A 
ATOM     12 CL   UNL     1       3.397   6.775  19.213  0.00  0.00    +0.000 Cl
ATOM     13  C   UNL     1       1.384   8.143  20.378  0.00  0.00    +0.000 A 
ATOM     14  C   UNL     1       0.402   9.130  20.394  0.00  0.00    +0.000 A 
ATOM     15  F   UNL     1      -0.365   9.251  21.486  0.00  0.00    +0.000 F 
ENDBRANCH   5   8
BRANCH   1  16
ATOM     16  S   UNL     1      -1.161  14.245  23.318  0.00  0.00    +0.000 S 
ATOM     17  O   UNL     1      -0.430  15.061  24.269  0.00  0.00    +0.000 OA
ATOM     18  O   UNL     1      -1.183  12.804  23.447  0.00  0.00    +0.000 OA
BRANCH  16  25
ATOM     19  C   UNL     1      -2.490  17.191  22.964  0.00  0.00    +0.000 C 
ATOM     20  C   UNL     1      -3.255  16.013  23.455  0.00  0.00    +0.000 A 
ATOM     21  N   UNL     1      -4.551  16.153  23.749  0.00  0.00    +0.000 NA
ATOM     22  N   UNL     1      -4.923  14.935  24.145  0.00  0.00    +0.000 N 
ATOM     23  C   UNL     1      -3.914  14.000  24.149  0.00  0.00    +0.000 A 
ATOM     24  C   UNL     1      -4.229  12.627  24.603  0.00  0.00    +0.000 C 
ATOM     25  C   UNL     1      -2.799  14.676  23.675  0.00  0.00    +0.000 A 
ATOM     26  H   UNL     1      -5.895  14.808  24.410  0.00  0.00    +0.000 HD
ENDBRANCH  16  25
ENDBRANCH   1  16
BRANCH   5  27
ATOM     27  C   UNL     1      -2.017  10.746  18.533  0.00  0.00    +0.000 C 
ATOM     28  N   UNL     1      -2.951  10.536  17.864  0.00  0.00    +0.000 NA
ENDBRANCH   5  27
TORSDOF 4
ENDMDL
MODEL 5
REMARK VINA RESULT:      -6.0      1.410      1.521
REMARK  Name = 
REMARK  6 active torsions:
REMARK  status: ('A' for Active; 'I' for Inactive)
REMARK    1  A    between atoms: C_1  and  C_2
REMARK    2  A    between atoms: C_5  and  C_6
REMARK    3  A    between atoms: C_7  and  S_8
REMARK    4  A    between atoms: S_8  and  N_11
REMARK    5  A    between atoms: C_15  and  C_16
REMARK    6  A    between atoms: C_15  and  C_18
REMARK                            x       y       z     vdW  Elec       q    Type
REMARK                         _______ _______ _______ _____ _____    ______ ____
ROOT
ATOM      1  N   UNL     1       1.439  15.120  19.727  0.00  0.00    +0.000 NA
ATOM      2  C   UNL     1       0.249  14.965  18.833  0.00  0.00    +0.000 C 
ATOM      3  C   UNL     1      -0.486  13.618  19.031  0.00  0.00    +0.000 C 
ATOM      4  C   UNL     1       0.391  12.367  19.138  0.00  0.00    +0.000 C 
ATOM      5  C   UNL     1      -0.068  11.131  18.796  0.00  0.00    +0.000 C 
ATOM      6  C   UNL     1       1.766  12.609  19.752  0.00  0.00    +0.000 C 
ATOM      7  C   UNL     1       2.385  13.986  19.444  0.00  0.00    +0.000 C 
ENDROOT
BRANCH   5   8
ATOM      8  C   UNL     1       0.747   9.907  18.959  0.00  0.00    +0.000 A 
ATOM      9  C   UNL     1       1.507   9.384  17.900  0.00  0.00    +0.000 A 
ATOM     10  C   UNL     1       2.266   8.222  18.084  0.00  0.00    +0.000 A 
ATOM     11  C   UNL     1       2.263   7.571  19.318  0.00  0.00    +0.000 A 
ATOM     12 CL   UNL     1       3.174   6.126  19.528  0.00  0.00    +0.000 Cl
ATOM     13  C   UNL     1       1.535   8.091  20.383  0.00  0.00    +0.000 A 
ATOM     14  C   UNL     1       0.791   9.253  20.198  0.00  0.00    +0.000 A 
ATOM     15  F   UNL     1       0.095   9.740  21.235  0.00  0.00    +0.000 F 
ENDBRANCH   5   8
BRANCH   1  16
ATOM     16  S   UNL     1       1.123  15.397  21.389  0.00  0.00    +0.000 S 
ATOM     17  O   UNL     1       1.356  16.808  21.634  0.00  0.00    +0.000 OA
ATOM     18  O   UNL     1       1.827  14.390  22.153  0.00  0.00    +0.000 OA
BRANCH  16  25
ATOM     19  C   UNL     1      -1.195  17.676  21.324  0.00  0.00    +0.000 C 
ATOM     20  C   UNL     1      -1.429  16.300  21.838  0.00  0.00    +0.000 A 
ATOM     21  N   UNL     1      -2.646  15.966  22.278  0.00  0.00    +0.000 NA
ATOM     22  N   UNL     1      -2.513  14.694  22.655  0.00  0.00    +0.000 N 
ATOM     23  C   UNL     1      -1.246  14.181  22.504  0.00  0.00    +0.000 A 
ATOM     24  C   UNL     1      -0.998  12.783  22.924  0.00  0.00    +0.000 C 
ATOM     25  C   UNL     1      -0.507  15.213  21.943  0.00  0.00    +0.000 A 
ATOM     26  H   UNL     1      -3.339  14.227  23.017  0.00  0.00    +0.000 HD
ENDBRANCH  16  25
ENDBRANCH   1  16
BRANCH   5  27
ATOM     27  C   UNL     1      -1.395  10.930  18.295  0.00  0.00    +0.000 C 
ATOM     28  N   UNL     1      -2.476  10.772  17.881  0.00  0.00    +0.000 NA
ENDBRANCH   5  27
TORSDOF 4
ENDMDL
MODEL 6
REMARK VINA RESULT:      -6.0      1.060      1.930
REMARK  Name = 
REMARK  6 active torsions:
REMARK  status: ('A' for Active; 'I' for Inactive)
REMARK    1  A    between atoms: C_1  and  C_2
REMARK    2  A    between atoms: C_5  and  C_6
REMARK    3  A    between atoms: C_7  and  S_8
REMARK    4  A    between atoms: S_8  and  N_11
REMARK    5  A    between atoms: C_15  and  C_16
REMARK    6  A    between atoms: C_15  and  C_18
REMARK                            x       y       z     vdW  Elec       q    Type
REMARK                         _______ _______ _______ _____ _____    ______ ____
ROOT
ATOM      1  N   UNL     1       1.123  14.870  19.630  0.00  0.00    +0.000 NA
ATOM      2  C   UNL     1      -0.035  14.634  18.712  0.00  0.00    +0.000 C 
ATOM      3  C   UNL     1      -0.690  13.246  18.909  0.00  0.00    +0.000 C 
ATOM      4  C   UNL     1       0.259  12.052  19.047  0.00  0.00    +0.000 C 
ATOM      5  C   UNL     1      -0.116  10.788  18.708  0.00  0.00    +0.000 C 
ATOM      6  C   UNL     1       1.603  12.384  19.688  0.00  0.00    +0.000 C 
ATOM      7  C   UNL     1       2.143  13.794  19.379  0.00  0.00    +0.000 C 
ENDROOT
BRANCH   5   8
ATOM      8  C   UNL     1       0.769   9.617  18.901  0.00  0.00    +0.000 A 
ATOM      9  C   UNL     1       1.556   9.111  17.854  0.00  0.00    +0.000 A 
ATOM     10  C   UNL     1       2.381   8.000  18.067  0.00  0.00    +0.000 A 
ATOM     11  C   UNL     1       2.417   7.383  19.318  0.00  0.00    +0.000 A 
ATOM     12 CL   UNL     1       3.410   5.999  19.563  0.00  0.00    +0.000 Cl
ATOM     13  C   UNL     1       1.662   7.889  20.371  0.00  0.00    +0.000 A 
ATOM     14  C   UNL     1       0.851   9.001  20.157  0.00  0.00    +0.000 A 
ATOM     15  F   UNL     1       0.131   9.474  21.183  0.00  0.00    +0.000 F 
ENDBRANCH   5   8
BRANCH   1  16
ATOM     16  S   UNL     1       0.754  15.142  21.282  0.00  0.00    +0.000 S 
ATOM     17  O   UNL     1       1.094  16.523  21.569  0.00  0.00    +0.000 OA
ATOM     18  O   UNL     1       1.334  14.065  22.054  0.00  0.00    +0.000 OA
BRANCH  16  25
ATOM     19  C   UNL     1      -0.799  12.578  22.541  0.00  0.00    +0.000 C 
ATOM     20  C   UNL     1      -1.460  13.891  22.315  0.00  0.00    +0.000 A 
ATOM     21  N   UNL     1      -2.742  14.045  22.659  0.00  0.00    +0.000 NA
ATOM     22  N   UNL     1      -3.012  15.309  22.334  0.00  0.00    +0.000 N 
ATOM     23  C   UNL     1      -1.963  15.992  21.764  0.00  0.00    +0.000 A 
ATOM     24  C   UNL     1      -2.180  17.394  21.344  0.00  0.00    +0.000 C 
ATOM     25  C   UNL     1      -0.910  15.087  21.758  0.00  0.00    +0.000 A 
ATOM     26  H   UNL     1      -3.950  15.649  22.525  0.00  0.00    +0.000 HD
ENDBRANCH  16  25
ENDBRANCH   1  16
BRANCH   5  27
ATOM     27  C   UNL     1      -1.417  10.501  18.181  0.00  0.00    +0.000 C 
ATOM     28  N   UNL     1      -2.478  10.260  17.755  0.00  0.00    +0.000 NA
ENDBRANCH   5  27
TORSDOF 4
ENDMDL
MODEL 7
REMARK VINA RESULT:      -6.0      9.341     11.737
REMARK  Name = 
REMARK  6 active torsions:
REMARK  status: ('A' for Active; 'I' for Inactive)
REMARK    1  A    between atoms: C_1  and  C_2
REMARK    2  A    between atoms: C_5  and  C_6
REMARK    3  A    between atoms: C_7  and  S_8
REMARK    4  A    between atoms: S_8  and  N_11
REMARK    5  A    between atoms: C_15  and  C_16
REMARK    6  A    between atoms: C_15  and  C_18
REMARK                            x       y       z     vdW  Elec       q    Type
REMARK                         _______ _______ _______ _____ _____    ______ ____
ROOT
ATOM      1  N   UNL     1       8.685  15.091  20.274  0.00  0.00    +0.000 NA
ATOM      2  C   UNL     1       9.306  16.115  21.171  0.00  0.00    +0.000 C 
ATOM      3  C   UNL     1       9.629  15.568  22.582  0.00  0.00    +0.000 C 
ATOM      4  C   UNL     1       8.547  14.716  23.251  0.00  0.00    +0.000 C 
ATOM      5  C   UNL     1       8.443  14.612  24.605  0.00  0.00    +0.000 C 
ATOM      6  C   UNL     1       7.677  13.923  22.281  0.00  0.00    +0.000 C 
ATOM      7  C   UNL     1       7.419  14.609  20.925  0.00  0.00    +0.000 C 
ENDROOT
BRANCH   5   8
ATOM      8  C   UNL     1       7.445  13.738  25.261  0.00  0.00    +0.000 A 
ATOM      9  C   UNL     1       6.212  14.239  25.709  0.00  0.00    +0.000 A 
ATOM     10  C   UNL     1       5.289  13.388  26.330  0.00  0.00    +0.000 A 
ATOM     11  C   UNL     1       5.595  12.040  26.516  0.00  0.00    +0.000 A 
ATOM     12 CL   UNL     1       4.468  11.007  27.307  0.00  0.00    +0.000 Cl
ATOM     13  C   UNL     1       6.802  11.524  26.055  0.00  0.00    +0.000 A 
ATOM     14  C   UNL     1       7.711  12.373  25.429  0.00  0.00    +0.000 A 
ATOM     15  F   UNL     1       8.869  11.859  24.992  0.00  0.00    +0.000 F 
ENDBRANCH   5   8
BRANCH   1  16
ATOM     16  S   UNL     1       9.715  13.851  19.691  0.00  0.00    +0.000 S 
ATOM     17  O   UNL     1       8.871  12.713  19.377  0.00  0.00    +0.000 OA
ATOM     18  O   UNL     1      10.820  13.715  20.616  0.00  0.00    +0.000 OA
BRANCH  16  25
ATOM     19  C   UNL     1      11.547  11.690  18.095  0.00  0.00    +0.000 C 
ATOM     20  C   UNL     1      11.285  13.062  17.583  0.00  0.00    +0.000 A 
ATOM     21  N   UNL     1      11.802  13.430  16.407  0.00  0.00    +0.000 NA
ATOM     22  N   UNL     1      11.381  14.685  16.250  0.00  0.00    +0.000 N 
ATOM     23  C   UNL     1      10.625  15.171  17.291  0.00  0.00    +0.000 A 
ATOM     24  C   UNL     1      10.138  16.567  17.215  0.00  0.00    +0.000 C 
ATOM     25  C   UNL     1      10.522  14.112  18.182  0.00  0.00    +0.000 A 
ATOM     26  H   UNL     1      11.654  15.165  15.397  0.00  0.00    +0.000 HD
ENDBRANCH  16  25
ENDBRANCH   1  16
BRANCH   5  27
ATOM     27  C   UNL     1       9.330  15.311  25.487  0.00  0.00    +0.000 C 
ATOM     28  N   UNL     1      10.047  15.882  26.211  0.00  0.00    +0.000 NA
ENDBRANCH   5  27
TORSDOF 4
ENDMDL
MODEL 8
REMARK VINA RESULT:      -5.9      3.453      4.983
REMARK  Name = 
REMARK  6 active torsions:
REMARK  status: ('A' for Active; 'I' for Inactive)
REMARK    1  A    between atoms: C_1  and  C_2
REMARK    2  A    between atoms: C_5  and  C_6
REMARK    3  A    between atoms: C_7  and  S_8
REMARK    4  A    between atoms: S_8  and  N_11
REMARK    5  A    between atoms: C_15  and  C_16
REMARK    6  A    between atoms: C_15  and  C_18
REMARK                            x       y       z     vdW  Elec       q    Type
REMARK                         _______ _______ _______ _____ _____    ______ ____
ROOT
ATOM      1  N   UNL     1      -4.678  14.562  22.436  0.00  0.00    +0.000 NA
ATOM      2  C   UNL     1      -3.810  15.715  22.039  0.00  0.00    +0.000 C 
ATOM      3  C   UNL     1      -2.936  15.415  20.797  0.00  0.00    +0.000 C 
ATOM      4  C   UNL     1      -2.233  14.055  20.765  0.00  0.00    +0.000 C 
ATOM      5  C   UNL     1      -1.082  13.854  20.066  0.00  0.00    +0.000 C 
ATOM      6  C   UNL     1      -2.982  12.939  21.486  0.00  0.00    +0.000 C 
ATOM      7  C   UNL     1      -3.786  13.386  22.722  0.00  0.00    +0.000 C 
ENDROOT
BRANCH   5   8
ATOM      8  C   UNL     1      -0.431  12.528  19.972  0.00  0.00    +0.000 A 
ATOM      9  C   UNL     1       0.397  12.042  20.998  0.00  0.00    +0.000 A 
ATOM     10  C   UNL     1       1.002  10.785  20.879  0.00  0.00    +0.000 A 
ATOM     11  C   UNL     1       0.794  10.012  19.735  0.00  0.00    +0.000 A 
ATOM     12 CL   UNL     1       1.565   8.482  19.583  0.00  0.00    +0.000 Cl
ATOM     13  C   UNL     1      -0.044  10.470  18.723  0.00  0.00    +0.000 A 
ATOM     14  C   UNL     1      -0.651  11.716  18.852  0.00  0.00    +0.000 A 
ATOM     15  F   UNL     1      -1.455  12.140  17.867  0.00  0.00    +0.000 F 
ENDBRANCH   5   8
BRANCH   1  16
ATOM     16  S   UNL     1      -6.018  14.222  21.422  0.00  0.00    +0.000 S 
ATOM     17  O   UNL     1      -5.511  14.135  20.066  0.00  0.00    +0.000 OA
ATOM     18  O   UNL     1      -7.078  15.149  21.755  0.00  0.00    +0.000 OA
BRANCH  16  25
ATOM     19  C   UNL     1      -7.250  13.003  24.174  0.00  0.00    +0.000 C 
ATOM     20  C   UNL     1      -7.309  12.283  22.874  0.00  0.00    +0.000 A 
ATOM     21  N   UNL     1      -7.909  11.090  22.815  0.00  0.00    +0.000 NA
ATOM     22  N   UNL     1      -7.790  10.734  21.536  0.00  0.00    +0.000 N 
ATOM     23  C   UNL     1      -7.111  11.636  20.750  0.00  0.00    +0.000 A 
ATOM     24  C   UNL     1      -6.906  11.309  19.321  0.00  0.00    +0.000 C 
ATOM     25  C   UNL     1      -6.797  12.686  21.601  0.00  0.00    +0.000 A 
ATOM     26  H   UNL     1      -8.197   9.845  21.260  0.00  0.00    +0.000 HD
ENDBRANCH  16  25
ENDBRANCH   1  16
BRANCH   5  27
ATOM     27  C   UNL     1      -0.447  14.909  19.334  0.00  0.00    +0.000 C 
ATOM     28  N   UNL     1       0.063  15.770  18.732  0.00  0.00    +0.000 NA
ENDBRANCH   5  27
TORSDOF 4
ENDMDL
MODEL 9
REMARK VINA RESULT:      -5.9      3.272      4.286
REMARK  Name = 
REMARK  6 active torsions:
REMARK  status: ('A' for Active; 'I' for Inactive)
REMARK    1  A    between atoms: C_1  and  C_2
REMARK    2  A    between atoms: C_5  and  C_6
REMARK    3  A    between atoms: C_7  and  S_8
REMARK    4  A    between atoms: S_8  and  N_11
REMARK    5  A    between atoms: C_15  and  C_16
REMARK    6  A    between atoms: C_15  and  C_18
REMARK                            x       y       z     vdW  Elec       q    Type
REMARK                         _______ _______ _______ _____ _____    ______ ____
ROOT
ATOM      1  N   UNL     1       0.528  11.279  19.458  0.00  0.00    +0.000 NA
ATOM      2  C   UNL     1       1.801  11.273  18.671  0.00  0.00    +0.000 C 
ATOM      3  C   UNL     1       2.069   9.923  17.963  0.00  0.00    +0.000 C 
ATOM      4  C   UNL     1       1.831   8.656  18.790  0.00  0.00    +0.000 C 
ATOM      5  C   UNL     1       2.484   7.490  18.528  0.00  0.00    +0.000 C 
ATOM      6  C   UNL     1       0.738   8.786  19.846  0.00  0.00    +0.000 C 
ATOM      7  C   UNL     1       0.610  10.183  20.484  0.00  0.00    +0.000 C 
ENDROOT
BRANCH   5   8
ATOM      8  C   UNL     1       2.212   6.242  19.276  0.00  0.00    +0.000 A 
ATOM      9  C   UNL     1       2.488   6.134  20.648  0.00  0.00    +0.000 A 
ATOM     10  C   UNL     1       2.223   4.938  21.329  0.00  0.00    +0.000 A 
ATOM     11  C   UNL     1       1.693   3.845  20.643  0.00  0.00    +0.000 A 
ATOM     12 CL   UNL     1       1.398   2.370  21.478  0.00  0.00    +0.000 Cl
ATOM     13  C   UNL     1       1.391   3.946  19.288  0.00  0.00    +0.000 A 
ATOM     14  C   UNL     1       1.646   5.140  18.620  0.00  0.00    +0.000 A 
ATOM     15  F   UNL     1       1.349   5.219  17.315  0.00  0.00    +0.000 F 
ENDBRANCH   5   8
BRANCH   1  16
ATOM     16  S   UNL     1      -0.932  11.321  18.560  0.00  0.00    +0.000 S 
ATOM     17  O   UNL     1      -1.295   9.944  18.281  0.00  0.00    +0.000 OA
ATOM     18  O   UNL     1      -0.768  12.273  17.483  0.00  0.00    +0.000 OA
BRANCH  16  25
ATOM     19  C   UNL     1      -3.943  11.349  17.334  0.00  0.00    +0.000 C 
ATOM     20  C   UNL     1      -3.623  11.838  18.702  0.00  0.00    +0.000 A 
ATOM     21  N   UNL     1      -4.611  12.293  19.480  0.00  0.00    +0.000 NA
ATOM     22  N   UNL     1      -3.994  12.638  20.610  0.00  0.00    +0.000 N 
ATOM     23  C   UNL     1      -2.631  12.453  20.601  0.00  0.00    +0.000 A 
ATOM     24  C   UNL     1      -1.860  12.837  21.805  0.00  0.00    +0.000 C 
ATOM     25  C   UNL     1      -2.355  11.901  19.358  0.00  0.00    +0.000 A 
ATOM     26  H   UNL     1      -4.571  13.006  21.361  0.00  0.00    +0.000 HD
ENDBRANCH  16  25
ENDBRANCH   1  16
BRANCH   5  27
ATOM     27  C   UNL     1       3.448   7.384  17.474  0.00  0.00    +0.000 C 
ATOM     28  N   UNL     1       4.232   7.290  16.614  0.00  0.00    +0.000 NA
ENDBRANCH   5  27
TORSDOF 4
ENDMDL
