MODEL 1
REMARK VINA RESULT:      -8.7      0.000      0.000
REMARK  Name = 
REMARK  6 active torsions:
REMARK  status: ('A' for Active; 'I' for Inactive)
REMARK    1  A    between atoms: C_2  and  C_12
REMARK    2  A    between atoms: N_3  and  C_4
REMARK    3  A    between atoms: C_4  and  C_5
REMARK    4  A    between atoms: C_5  and  C_6
REMARK    5  A    between atoms: C_16  and  S_17
REMARK    6  A    between atoms: S_17  and  N_20
REMARK                            x       y       z     vdW  Elec       q    Type
REMARK                         _______ _______ _______ _____ _____    ______ ____
ROOT
ATOM      1  C   UNL     1       6.722   5.478  17.441  0.00  0.00    +0.000 A 
ATOM      2  C   UNL     1       6.983   5.258  16.082  0.00  0.00    +0.000 A 
ATOM      3  C   UNL     1       6.090   4.509  15.312  0.00  0.00    +0.000 A 
ATOM      4  C   UNL     1       4.938   3.978  15.895  0.00  0.00    +0.000 A 
ATOM      5  C   UNL     1       4.696   4.159  17.264  0.00  0.00    +0.000 A 
ATOM      6  C   UNL     1       5.584   4.916  18.039  0.00  0.00    +0.000 A 
ENDROOT
BRANCH   1   8
ATOM      7  O   UNL     1       8.088   5.833  19.318  0.00  0.00    +0.000 OA
ATOM      8  C   UNL     1       7.632   6.299  18.282  0.00  0.00    +0.000 C 
ATOM      9  N   UNL     1       7.868   7.590  17.844  0.00  0.00    +0.000 N 
ATOM     10  H   UNL     1       7.255   7.973  17.137  0.00  0.00    +0.000 HD
BRANCH   9  11
ATOM     11  C   UNL     1       8.617   8.519  18.686  0.00  0.00    +0.000 C 
BRANCH  11  12
ATOM     12  C   UNL     1       8.549   9.955  18.165  0.00  0.00    +0.000 C 
BRANCH  12  13
ATOM     13  C   UNL     1       9.657  10.819  18.716  0.00  0.00    +0.000 A 
ATOM     14  C   UNL     1       9.721  11.092  20.089  0.00  0.00    +0.000 A 
ATOM     15  C   UNL     1      10.722  11.919  20.604  0.00  0.00    +0.000 A 
ATOM     16  C   UNL     1      11.669  12.483  19.751  0.00  0.00    +0.000 A 
ATOM     17  C   UNL     1      11.622  12.210  18.385  0.00  0.00    +0.000 A 
ATOM     18  C   UNL     1      10.621  11.382  17.868  0.00  0.00    +0.000 A 
ENDBRANCH  12  13
ENDBRANCH  11  12
ENDBRANCH   9  11
ENDBRANCH   1   8
BRANCH   5  19
ATOM     19  S   UNL     1       3.153   3.583  17.967  0.00  0.00    +0.000 S 
ATOM     20  O   UNL     1       2.326   3.135  16.867  0.00  0.00    +0.000 OA
ATOM     21  O   UNL     1       3.500   2.688  19.050  0.00  0.00    +0.000 OA
BRANCH  19  22
ATOM     22  N   UNL     1       2.433   4.986  18.648  0.00  0.00    +0.000 NA
ATOM     23  C   UNL     1       2.368   5.005  20.130  0.00  0.00    +0.000 C 
ATOM     24  C   UNL     1       1.598   6.209  20.660  0.00  0.00    +0.000 C 
ATOM     25  C   UNL     1       2.125   7.505  20.067  0.00  0.00    +0.000 C 
ATOM     26  C   UNL     1       2.010   7.444  18.552  0.00  0.00    +0.000 C 
ATOM     27  C   UNL     1       2.789   6.264  17.982  0.00  0.00    +0.000 C 
ENDBRANCH  19  22
ENDBRANCH   5  19
TORSDOF 6
ENDMDL
MODEL 2
REMARK VINA RESULT:      -8.5      4.834      8.018
REMARK  Name = 
REMARK  6 active torsions:
REMARK  status: ('A' for Active; 'I' for Inactive)
REMARK    1  A    between atoms: C_2  and  C_12
REMARK    2  A    between atoms: N_3  and  C_4
REMARK    3  A    between atoms: C_4  and  C_5
REMARK    4  A    between atoms: C_5  and  C_6
REMARK    5  A    between atoms: C_16  and  S_17
REMARK    6  A    between atoms: S_17  and  N_20
REMARK                            x       y       z     vdW  Elec       q    Type
REMARK                         _______ _______ _______ _____ _____    ______ ____
ROOT
ATOM      1  C   UNL     1       3.463   6.268  17.972  0.00  0.00    +0.000 A 
ATOM      2  C   UNL     1       3.012   5.009  18.390  0.00  0.00    +0.000 A 
ATOM      3  C   UNL     1       3.782   3.872  18.136  0.00  0.00    +0.000 A 
ATOM      4  C   UNL     1       5.001   3.989  17.464  0.00  0.00    +0.000 A 
ATOM      5  C   UNL     1       5.434   5.241  17.007  0.00  0.00    +0.000 A 
ATOM      6  C   UNL     1       4.669   6.386  17.266  0.00  0.00    +0.000 A 
ENDROOT
BRANCH   1   8
ATOM      7  O   UNL     1       2.629   8.393  17.419  0.00  0.00    +0.000 OA
ATOM      8  C   UNL     1       2.685   7.504  18.257  0.00  0.00    +0.000 C 
ATOM      9  N   UNL     1       2.102   7.582  19.509  0.00  0.00    +0.000 N 
ATOM     10  H   UNL     1       2.412   6.934  20.221  0.00  0.00    +0.000 HD
BRANCH   9  11
ATOM     11  C   UNL     1       1.457   8.820  19.935  0.00  0.00    +0.000 C 
BRANCH  11  12
ATOM     12  C   UNL     1       0.666   8.644  21.232  0.00  0.00    +0.000 C 
BRANCH  12  13
ATOM     13  C   UNL     1      -0.200   9.840  21.544  0.00  0.00    +0.000 A 
ATOM     14  C   UNL     1      -0.569  10.728  20.524  0.00  0.00    +0.000 A 
ATOM     15  C   UNL     1      -1.341  11.856  20.809  0.00  0.00    +0.000 A 
ATOM     16  C   UNL     1      -1.750  12.111  22.116  0.00  0.00    +0.000 A 
ATOM     17  C   UNL     1      -1.398  11.230  23.137  0.00  0.00    +0.000 A 
ATOM     18  C   UNL     1      -0.627  10.100  22.854  0.00  0.00    +0.000 A 
ENDBRANCH  12  13
ENDBRANCH  11  12
ENDBRANCH   9  11
ENDBRANCH   1   8
BRANCH   5  19
ATOM     19  S   UNL     1       7.056   5.392  16.264  0.00  0.00    +0.000 S 
ATOM     20  O   UNL     1       7.461   6.774  16.404  0.00  0.00    +0.000 OA
ATOM     21  O   UNL     1       7.863   4.321  16.808  0.00  0.00    +0.000 OA
BRANCH  19  22
ATOM     22  N   UNL     1       6.803   5.069  14.596  0.00  0.00    +0.000 NA
ATOM     23  C   UNL     1       7.937   5.423  13.706  0.00  0.00    +0.000 C 
ATOM     24  C   UNL     1       7.595   5.240  12.233  0.00  0.00    +0.000 C 
ATOM     25  C   UNL     1       7.034   3.853  11.965  0.00  0.00    +0.000 C 
ATOM     26  C   UNL     1       5.790   3.645  12.814  0.00  0.00    +0.000 C 
ATOM     27  C   UNL     1       6.098   3.798  14.300  0.00  0.00    +0.000 C 
ENDBRANCH  19  22
ENDBRANCH   5  19
TORSDOF 6
ENDMDL
MODEL 3
REMARK VINA RESULT:      -8.4      0.927      1.458
REMARK  Name = 
REMARK  6 active torsions:
REMARK  status: ('A' for Active; 'I' for Inactive)
REMARK    1  A    between atoms: C_2  and  C_12
REMARK    2  A    between atoms: N_3  and  C_4
REMARK    3  A    between atoms: C_4  and  C_5
REMARK    4  A    between atoms: C_5  and  C_6
REMARK    5  A    between atoms: C_16  and  S_17
REMARK    6  A    between atoms: S_17  and  N_20
REMARK                            x       y       z     vdW  Elec       q    Type
REMARK                         _______ _______ _______ _____ _____    ______ ____
ROOT
ATOM      1  C   UNL     1       6.446   5.414  17.880  0.00  0.00    +0.000 A 
ATOM      2  C   UNL     1       6.624   4.692  16.692  0.00  0.00    +0.000 A 
ATOM      3  C   UNL     1       5.557   3.976  16.145  0.00  0.00    +0.000 A 
ATOM      4  C   UNL     1       4.314   3.977  16.781  0.00  0.00    +0.000 A 
ATOM      5  C   UNL     1       4.145   4.663  17.992  0.00  0.00    +0.000 A 
ATOM      6  C   UNL     1       5.209   5.389  18.541  0.00  0.00    +0.000 A 
ENDROOT
BRANCH   1   8
ATOM      7  O   UNL     1       8.202   5.758  19.401  0.00  0.00    +0.000 OA
ATOM      8  C   UNL     1       7.550   6.215  18.472  0.00  0.00    +0.000 C 
ATOM      9  N   UNL     1       7.735   7.481  17.945  0.00  0.00    +0.000 N 
ATOM     10  H   UNL     1       6.998   7.872  17.374  0.00  0.00    +0.000 HD
BRANCH   9  11
ATOM     11  C   UNL     1       8.686   8.397  18.568  0.00  0.00    +0.000 C 
BRANCH  11  12
ATOM     12  C   UNL     1       8.553   9.823  18.032  0.00  0.00    +0.000 C 
BRANCH  12  13
ATOM     13  C   UNL     1       9.545  10.769  18.662  0.00  0.00    +0.000 A 
ATOM     14  C   UNL     1       9.595  10.912  20.056  0.00  0.00    +0.000 A 
ATOM     15  C   UNL     1      10.485  11.811  20.646  0.00  0.00    +0.000 A 
ATOM     16  C   UNL     1      11.333  12.578  19.850  0.00  0.00    +0.000 A 
ATOM     17  C   UNL     1      11.300  12.438  18.465  0.00  0.00    +0.000 A 
ATOM     18  C   UNL     1      10.411  11.538  17.872  0.00  0.00    +0.000 A 
ENDBRANCH  12  13
ENDBRANCH  11  12
ENDBRANCH   9  11
ENDBRANCH   1   8
BRANCH   5  19
ATOM     19  S   UNL     1       2.515   4.761  18.726  0.00  0.00    +0.000 S 
ATOM     20  O   UNL     1       1.559   4.459  17.681  0.00  0.00    +0.000 OA
ATOM     21  O   UNL     1       2.559   3.979  19.942  0.00  0.00    +0.000 OA
BRANCH  19  22
ATOM     22  N   UNL     1       2.332   6.412  19.163  0.00  0.00    +0.000 NA
ATOM     23  C   UNL     1       2.027   7.333  18.040  0.00  0.00    +0.000 C 
ATOM     24  C   UNL     1       2.015   8.793  18.476  0.00  0.00    +0.000 C 
ATOM     25  C   UNL     1       1.113   9.000  19.682  0.00  0.00    +0.000 C 
ATOM     26  C   UNL     1       1.599   8.124  20.826  0.00  0.00    +0.000 C 
ATOM     27  C   UNL     1       1.603   6.650  20.434  0.00  0.00    +0.000 C 
ENDBRANCH  19  22
ENDBRANCH   5  19
TORSDOF 6
ENDMDL
MODEL 4
REMARK VINA RESULT:      -8.3      3.451      8.086
REMARK  Name = 
REMARK  6 active torsions:
REMARK  status: ('A' for Active; 'I' for Inactive)
REMARK    1  A    between atoms: C_2  and  C_12
REMARK    2  A    between atoms: N_3  and  C_4
REMARK    3  A    between atoms: C_4  and  C_5
REMARK    4  A    between atoms: C_5  and  C_6
REMARK    5  A    between atoms: C_16  and  S_17
REMARK    6  A    between atoms: S_17  and  N_20
REMARK                            x       y       z     vdW  Elec       q    Type
REMARK                         _______ _______ _______ _____ _____    ______ ____
ROOT
ATOM      1  C   UNL     1       2.279   6.907  19.173  0.00  0.00    +0.000 A 
ATOM      2  C   UNL     1       1.623   6.615  20.375  0.00  0.00    +0.000 A 
ATOM      3  C   UNL     1       1.856   5.399  21.021  0.00  0.00    +0.000 A 
ATOM      4  C   UNL     1       2.743   4.473  20.468  0.00  0.00    +0.000 A 
ATOM      5  C   UNL     1       3.369   4.743  19.243  0.00  0.00    +0.000 A 
ATOM      6  C   UNL     1       3.144   5.964  18.595  0.00  0.00    +0.000 A 
ENDROOT
BRANCH   1   8
ATOM      7  O   UNL     1       2.599   8.396  17.385  0.00  0.00    +0.000 OA
ATOM      8  C   UNL     1       2.081   8.206  18.477  0.00  0.00    +0.000 C 
ATOM      9  N   UNL     1       1.340   9.156  19.158  0.00  0.00    +0.000 N 
ATOM     10  H   UNL     1       1.177   9.014  20.145  0.00  0.00    +0.000 HD
BRANCH   9  11
ATOM     11  C   UNL     1       1.228  10.511  18.626  0.00  0.00    +0.000 C 
BRANCH  11  12
ATOM     12  C   UNL     1       0.062  11.282  19.245  0.00  0.00    +0.000 C 
BRANCH  12  13
ATOM     13  C   UNL     1      -1.242  11.023  18.531  0.00  0.00    +0.000 A 
ATOM     14  C   UNL     1      -1.299  10.093  17.484  0.00  0.00    +0.000 A 
ATOM     15  C   UNL     1      -2.493   9.873  16.794  0.00  0.00    +0.000 A 
ATOM     16  C   UNL     1      -3.641  10.581  17.142  0.00  0.00    +0.000 A 
ATOM     17  C   UNL     1      -3.600  11.500  18.188  0.00  0.00    +0.000 A 
ATOM     18  C   UNL     1      -2.406  11.721  18.881  0.00  0.00    +0.000 A 
ENDBRANCH  12  13
ENDBRANCH  11  12
ENDBRANCH   9  11
ENDBRANCH   1   8
BRANCH   5  19
ATOM     19  S   UNL     1       4.598   3.604  18.614  0.00  0.00    +0.000 S 
ATOM     20  O   UNL     1       4.984   2.745  19.714  0.00  0.00    +0.000 OA
ATOM     21  O   UNL     1       4.062   3.050  17.390  0.00  0.00    +0.000 OA
BRANCH  19  22
ATOM     22  N   UNL     1       5.941   4.593  18.205  0.00  0.00    +0.000 NA
ATOM     23  C   UNL     1       5.859   5.251  16.878  0.00  0.00    +0.000 C 
ATOM     24  C   UNL     1       7.138   6.000  16.523  0.00  0.00    +0.000 C 
ATOM     25  C   UNL     1       7.549   6.949  17.637  0.00  0.00    +0.000 C 
ATOM     26  C   UNL     1       7.753   6.155  18.918  0.00  0.00    +0.000 C 
ATOM     27  C   UNL     1       6.485   5.410  19.319  0.00  0.00    +0.000 C 
ENDBRANCH  19  22
ENDBRANCH   5  19
TORSDOF 6
ENDMDL
MODEL 5
REMARK VINA RESULT:      -8.1      4.284      8.050
REMARK  Name = 
REMARK  6 active torsions:
REMARK  status: ('A' for Active; 'I' for Inactive)
REMARK    1  A    between atoms: C_2  and  C_12
REMARK    2  A    between atoms: N_3  and  C_4
REMARK    3  A    between atoms: C_4  and  C_5
REMARK    4  A    between atoms: C_5  and  C_6
REMARK    5  A    between atoms: C_16  and  S_17
REMARK    6  A    between atoms: S_17  and  N_20
REMARK                            x       y       z     vdW  Elec       q    Type
REMARK                         _______ _______ _______ _____ _____    ______ ____
ROOT
ATOM      1  C   UNL     1       2.164   6.931  19.015  0.00  0.00    +0.000 A 
ATOM      2  C   UNL     1       1.954   6.735  20.386  0.00  0.00    +0.000 A 
ATOM      3  C   UNL     1       2.147   5.471  20.948  0.00  0.00    +0.000 A 
ATOM      4  C   UNL     1       2.548   4.402  20.145  0.00  0.00    +0.000 A 
ATOM      5  C   UNL     1       2.716   4.584  18.765  0.00  0.00    +0.000 A 
ATOM      6  C   UNL     1       2.531   5.851  18.197  0.00  0.00    +0.000 A 
ENDROOT
BRANCH   1   8
ATOM      7  O   UNL     1       2.520   8.502  17.306  0.00  0.00    +0.000 OA
ATOM      8  C   UNL     1       2.001   8.270  18.389  0.00  0.00    +0.000 C 
ATOM      9  N   UNL     1       1.292   9.204  19.123  0.00  0.00    +0.000 N 
ATOM     10  H   UNL     1       1.129   9.015  20.103  0.00  0.00    +0.000 HD
BRANCH   9  11
ATOM     11  C   UNL     1       1.219  10.588  18.664  0.00  0.00    +0.000 C 
BRANCH  11  12
ATOM     12  C   UNL     1       0.025  11.334  19.263  0.00  0.00    +0.000 C 
BRANCH  12  13
ATOM     13  C   UNL     1      -1.254  11.071  18.507  0.00  0.00    +0.000 A 
ATOM     14  C   UNL     1      -2.425  11.767  18.840  0.00  0.00    +0.000 A 
ATOM     15  C   UNL     1      -3.621  11.506  18.170  0.00  0.00    +0.000 A 
ATOM     16  C   UNL     1      -3.662  10.545  17.162  0.00  0.00    +0.000 A 
ATOM     17  C   UNL     1      -2.503   9.854  16.815  0.00  0.00    +0.000 A 
ATOM     18  C   UNL     1      -1.304  10.115  17.483  0.00  0.00    +0.000 A 
ENDBRANCH  12  13
ENDBRANCH  11  12
ENDBRANCH   9  11
ENDBRANCH   1   8
BRANCH   5  19
ATOM     19  S   UNL     1       3.354   3.237  17.772  0.00  0.00    +0.000 S 
ATOM     20  O   UNL     1       3.531   2.105  18.656  0.00  0.00    +0.000 OA
ATOM     21  O   UNL     1       2.504   3.145  16.605  0.00  0.00    +0.000 OA
BRANCH  19  22
ATOM     22  N   UNL     1       4.904   3.769  17.259  0.00  0.00    +0.000 NA
ATOM     23  C   UNL     1       4.948   4.367  15.901  0.00  0.00    +0.000 C 
ATOM     24  C   UNL     1       6.370   4.690  15.457  0.00  0.00    +0.000 C 
ATOM     25  C   UNL     1       7.098   5.521  16.501  0.00  0.00    +0.000 C 
ATOM     26  C   UNL     1       7.128   4.757  17.815  0.00  0.00    +0.000 C 
ATOM     27  C   UNL     1       5.720   4.435  18.305  0.00  0.00    +0.000 C 
ENDBRANCH  19  22
ENDBRANCH   5  19
TORSDOF 6
ENDMDL
MODEL 6
REMARK VINA RESULT:      -8.0      5.333      8.404
REMARK  Name = 
REMARK  6 active torsions:
REMARK  status: ('A' for Active; 'I' for Inactive)
REMARK    1  A    between atoms: C_2  and  C_12
REMARK    2  A    between atoms: N_3  and  C_4
REMARK    3  A    between atoms: C_4  and  C_5
REMARK    4  A    between atoms: C_5  and  C_6
REMARK    5  A    between atoms: C_16  and  S_17
REMARK    6  A    between atoms: S_17  and  N_20
REMARK                            x       y       z     vdW  Elec       q    Type
REMARK                         _______ _______ _______ _____ _____    ______ ____
ROOT
ATOM      1  C   UNL     1       2.637   7.370  18.798  0.00  0.00    +0.000 A 
ATOM      2  C   UNL     1       2.620   8.302  17.752  0.00  0.00    +0.000 A 
ATOM      3  C   UNL     1       1.905   9.494  17.892  0.00  0.00    +0.000 A 
ATOM      4  C   UNL     1       1.206   9.757  19.072  0.00  0.00    +0.000 A 
ATOM      5  C   UNL     1       1.186   8.807  20.103  0.00  0.00    +0.000 A 
ATOM      6  C   UNL     1       1.907   7.614  19.971  0.00  0.00    +0.000 A 
ENDROOT
BRANCH   1   8
ATOM      7  O   UNL     1       4.229   5.824  19.565  0.00  0.00    +0.000 OA
ATOM      8  C   UNL     1       3.416   6.107  18.697  0.00  0.00    +0.000 C 
ATOM      9  N   UNL     1       3.192   5.342  17.566  0.00  0.00    +0.000 N 
ATOM     10  H   UNL     1       2.710   5.771  16.788  0.00  0.00    +0.000 HD
BRANCH   9  11
ATOM     11  C   UNL     1       4.024   4.171  17.303  0.00  0.00    +0.000 C 
BRANCH  11  12
ATOM     12  C   UNL     1       3.278   2.861  17.560  0.00  0.00    +0.000 C 
BRANCH  12  13
ATOM     13  C   UNL     1       2.616   2.833  18.916  0.00  0.00    +0.000 A 
ATOM     14  C   UNL     1       1.239   3.066  19.033  0.00  0.00    +0.000 A 
ATOM     15  C   UNL     1       0.624   3.077  20.287  0.00  0.00    +0.000 A 
ATOM     16  C   UNL     1       1.379   2.857  21.437  0.00  0.00    +0.000 A 
ATOM     17  C   UNL     1       2.747   2.614  21.333  0.00  0.00    +0.000 A 
ATOM     18  C   UNL     1       3.364   2.601  20.079  0.00  0.00    +0.000 A 
ENDBRANCH  12  13
ENDBRANCH  11  12
ENDBRANCH   9  11
ENDBRANCH   1   8
BRANCH   5  19
ATOM     19  S   UNL     1       0.395   9.214  21.657  0.00  0.00    +0.000 S 
ATOM     20  O   UNL     1      -0.671   8.255  21.855  0.00  0.00    +0.000 OA
ATOM     21  O   UNL     1       1.451   9.364  22.634  0.00  0.00    +0.000 OA
BRANCH  19  22
ATOM     22  N   UNL     1      -0.310  10.758  21.396  0.00  0.00    +0.000 NA
ATOM     23  C   UNL     1      -1.197  10.855  20.211  0.00  0.00    +0.000 C 
ATOM     24  C   UNL     1      -1.677  12.280  19.962  0.00  0.00    +0.000 C 
ATOM     25  C   UNL     1      -2.286  12.883  21.217  0.00  0.00    +0.000 C 
ATOM     26  C   UNL     1      -1.250  12.874  22.329  0.00  0.00    +0.000 C 
ATOM     27  C   UNL     1      -0.762  11.459  22.624  0.00  0.00    +0.000 C 
ENDBRANCH  19  22
ENDBRANCH   5  19
TORSDOF 6
ENDMDL
MODEL 7
REMARK VINA RESULT:      -7.9      5.720      9.030
REMARK  Name = 
REMARK  6 active torsions:
REMARK  status: ('A' for Active; 'I' for Inactive)
REMARK    1  A    between atoms: C_2  and  C_12
REMARK    2  A    between atoms: N_3  and  C_4
REMARK    3  A    between atoms: C_4  and  C_5
REMARK    4  A    between atoms: C_5  and  C_6
REMARK    5  A    between atoms: C_16  and  S_17
REMARK    6  A    between atoms: S_17  and  N_20
REMARK                            x       y       z     vdW  Elec       q    Type
REMARK                         _______ _______ _______ _____ _____    ______ ____
ROOT
ATOM      1  C   UNL     1       1.510   8.727  19.359  0.00  0.00    +0.000 A 
ATOM      2  C   UNL     1       1.407   8.122  20.619  0.00  0.00    +0.000 A 
ATOM      3  C   UNL     1       0.541   8.652  21.578  0.00  0.00    +0.000 A 
ATOM      4  C   UNL     1      -0.222   9.784  21.283  0.00  0.00    +0.000 A 
ATOM      5  C   UNL     1      -0.089  10.416  20.039  0.00  0.00    +0.000 A 
ATOM      6  C   UNL     1       0.773   9.885  19.071  0.00  0.00    +0.000 A 
ENDROOT
BRANCH   1   8
ATOM      7  O   UNL     1       2.500   8.748  17.230  0.00  0.00    +0.000 OA
ATOM      8  C   UNL     1       2.396   8.170  18.302  0.00  0.00    +0.000 C 
ATOM      9  N   UNL     1       3.022   6.972  18.600  0.00  0.00    +0.000 N 
ATOM     10  H   UNL     1       2.680   6.439  19.389  0.00  0.00    +0.000 HD
BRANCH   9  11
ATOM     11  C   UNL     1       3.780   6.271  17.569  0.00  0.00    +0.000 C 
BRANCH  11  12
ATOM     12  C   UNL     1       4.032   4.806  17.930  0.00  0.00    +0.000 C 
BRANCH  12  13
ATOM     13  C   UNL     1       2.920   4.221  18.766  0.00  0.00    +0.000 A 
ATOM     14  C   UNL     1       2.967   4.312  20.164  0.00  0.00    +0.000 A 
ATOM     15  C   UNL     1       1.961   3.743  20.948  0.00  0.00    +0.000 A 
ATOM     16  C   UNL     1       0.898   3.076  20.343  0.00  0.00    +0.000 A 
ATOM     17  C   UNL     1       0.834   2.989  18.954  0.00  0.00    +0.000 A 
ATOM     18  C   UNL     1       1.840   3.558  18.168  0.00  0.00    +0.000 A 
ENDBRANCH  12  13
ENDBRANCH  11  12
ENDBRANCH   9  11
ENDBRANCH   1   8
BRANCH   5  19
ATOM     19  S   UNL     1      -1.166  11.787  19.631  0.00  0.00    +0.000 S 
ATOM     20  O   UNL     1      -1.818  12.195  20.857  0.00  0.00    +0.000 OA
ATOM     21  O   UNL     1      -0.373  12.723  18.863  0.00  0.00    +0.000 OA
BRANCH  19  22
ATOM     22  N   UNL     1      -2.351  11.114  18.586  0.00  0.00    +0.000 NA
ATOM     23  C   UNL     1      -3.686  11.760  18.647  0.00  0.00    +0.000 C 
ATOM     24  C   UNL     1      -4.721  11.029  17.801  0.00  0.00    +0.000 C 
ATOM     25  C   UNL     1      -4.223  10.818  16.381  0.00  0.00    +0.000 C 
ATOM     26  C   UNL     1      -2.930  10.018  16.419  0.00  0.00    +0.000 C 
ATOM     27  C   UNL     1      -1.860  10.730  17.239  0.00  0.00    +0.000 C 
ENDBRANCH  19  22
ENDBRANCH   5  19
TORSDOF 6
ENDMDL
MODEL 8
REMARK VINA RESULT:      -7.9      5.040      9.268
REMARK  Name = 
REMARK  6 active torsions:
REMARK  status: ('A' for Active; 'I' for Inactive)
REMARK    1  A    between atoms: C_2  and  C_12
REMARK    2  A    between atoms: N_3  and  C_4
REMARK    3  A    between atoms: C_4  and  C_5
REMARK    4  A    between atoms: C_5  and  C_6
REMARK    5  A    between atoms: C_16  and  S_17
REMARK    6  A    between atoms: S_17  and  N_20
REMARK                            x       y       z     vdW  Elec       q    Type
REMARK                         _______ _______ _______ _____ _____    ______ ____
ROOT
ATOM      1  C   UNL     1       1.331   8.906  20.283  0.00  0.00    +0.000 A 
ATOM      2  C   UNL     1       1.223   9.699  19.133  0.00  0.00    +0.000 A 
ATOM      3  C   UNL     1       1.688   9.217  17.907  0.00  0.00    +0.000 A 
ATOM      4  C   UNL     1       2.260   7.945  17.827  0.00  0.00    +0.000 A 
ATOM      5  C   UNL     1       2.409   7.167  18.984  0.00  0.00    +0.000 A 
ATOM      6  C   UNL     1       1.938   7.643  20.214  0.00  0.00    +0.000 A 
ENDROOT
BRANCH   1   8
ATOM      7  O   UNL     1       1.346   8.988  22.630  0.00  0.00    +0.000 OA
ATOM      8  C   UNL     1       0.815   9.373  21.598  0.00  0.00    +0.000 C 
ATOM      9  N   UNL     1      -0.294  10.199  21.558  0.00  0.00    +0.000 N 
ATOM     10  H   UNL     1      -0.819  10.252  20.696  0.00  0.00    +0.000 HD
BRANCH   9  11
ATOM     11  C   UNL     1      -0.965  10.576  22.799  0.00  0.00    +0.000 C 
BRANCH  11  12
ATOM     12  C   UNL     1      -1.196  12.085  22.897  0.00  0.00    +0.000 C 
BRANCH  12  13
ATOM     13  C   UNL     1      -2.659  12.448  22.811  0.00  0.00    +0.000 A 
ATOM     14  C   UNL     1      -3.462  12.414  23.959  0.00  0.00    +0.000 A 
ATOM     15  C   UNL     1      -4.823  12.715  23.883  0.00  0.00    +0.000 A 
ATOM     16  C   UNL     1      -5.397  13.051  22.659  0.00  0.00    +0.000 A 
ATOM     17  C   UNL     1      -4.606  13.100  21.513  0.00  0.00    +0.000 A 
ATOM     18  C   UNL     1      -3.243  12.800  21.587  0.00  0.00    +0.000 A 
ENDBRANCH  12  13
ENDBRANCH  11  12
ENDBRANCH   9  11
ENDBRANCH   1   8
BRANCH   5  19
ATOM     19  S   UNL     1       3.025   5.492  18.842  0.00  0.00    +0.000 S 
ATOM     20  O   UNL     1       3.107   4.955  20.183  0.00  0.00    +0.000 OA
ATOM     21  O   UNL     1       2.226   4.841  17.827  0.00  0.00    +0.000 OA
BRANCH  19  22
ATOM     22  N   UNL     1       4.621   5.665  18.231  0.00  0.00    +0.000 NA
ATOM     23  C   UNL     1       5.701   5.277  19.171  0.00  0.00    +0.000 C 
ATOM     24  C   UNL     1       7.088   5.583  18.617  0.00  0.00    +0.000 C 
ATOM     25  C   UNL     1       7.266   4.999  17.225  0.00  0.00    +0.000 C 
ATOM     26  C   UNL     1       6.203   5.575  16.303  0.00  0.00    +0.000 C 
ATOM     27  C   UNL     1       4.799   5.267  16.813  0.00  0.00    +0.000 C 
ENDBRANCH  19  22
ENDBRANCH   5  19
TORSDOF 6
ENDMDL
MODEL 9
REMARK VINA RESULT:      -7.9      6.296      9.951
REMARK  Name = 
REMARK  6 active torsions:
REMARK  status: ('A' for Active; 'I' for Inactive)
REMARK    1  A    between atoms: C_2  and  C_12
REMARK    2  A    between atoms: N_3  and  C_4
REMARK    3  A    between atoms: C_4  and  C_5
REMARK    4  A    between atoms: C_5  and  C_6
REMARK    5  A    between atoms: C_16  and  S_17
REMARK    6  A    between atoms: S_17  and  N_20
REMARK                            x       y       z     vdW  Elec       q    Type
REMARK                         _______ _______ _______ _____ _____    ______ ____
ROOT
ATOM      1  C   UNL     1       0.366   9.987  18.779  0.00  0.00    +0.000 A 
ATOM      2  C   UNL     1      -0.750  10.211  17.963  0.00  0.00    +0.000 A 
ATOM      3  C   UNL     1      -1.813  10.988  18.430  0.00  0.00    +0.000 A 
ATOM      4  C   UNL     1      -1.764  11.540  19.712  0.00  0.00    +0.000 A 
ATOM      5  C   UNL     1      -0.669  11.282  20.547  0.00  0.00    +0.000 A 
ATOM      6  C   UNL     1       0.403  10.510  20.081  0.00  0.00    +0.000 A 
ENDROOT
BRANCH   1   8
ATOM      7  O   UNL     1       2.114   9.529  17.280  0.00  0.00    +0.000 OA
ATOM      8  C   UNL     1       1.530   9.194  18.301  0.00  0.00    +0.000 C 
ATOM      9  N   UNL     1       1.848   8.071  19.043  0.00  0.00    +0.000 N 
ATOM     10  H   UNL     1       1.165   7.727  19.704  0.00  0.00    +0.000 HD
BRANCH   9  11
ATOM     11  C   UNL     1       2.870   7.146  18.560  0.00  0.00    +0.000 C 
BRANCH  11  12
ATOM     12  C   UNL     1       3.178   6.044  19.575  0.00  0.00    +0.000 C 
BRANCH  12  13
ATOM     13  C   UNL     1       2.376   4.791  19.325  0.00  0.00    +0.000 A 
ATOM     14  C   UNL     1       1.467   4.331  20.289  0.00  0.00    +0.000 A 
ATOM     15  C   UNL     1       0.746   3.154  20.081  0.00  0.00    +0.000 A 
ATOM     16  C   UNL     1       0.926   2.422  18.910  0.00  0.00    +0.000 A 
ATOM     17  C   UNL     1       1.818   2.874  17.940  0.00  0.00    +0.000 A 
ATOM     18  C   UNL     1       2.540   4.053  18.144  0.00  0.00    +0.000 A 
ENDBRANCH  12  13
ENDBRANCH  11  12
ENDBRANCH   9  11
ENDBRANCH   1   8
BRANCH   5  19
ATOM     19  S   UNL     1      -0.563  12.102  22.135  0.00  0.00    +0.000 S 
ATOM     20  O   UNL     1      -0.412  11.069  23.138  0.00  0.00    +0.000 OA
ATOM     21  O   UNL     1       0.423  13.152  21.995  0.00  0.00    +0.000 OA
BRANCH  19  22
ATOM     22  N   UNL     1      -2.098  12.842  22.348  0.00  0.00    +0.000 NA
ATOM     23  C   UNL     1      -2.977  12.194  23.352  0.00  0.00    +0.000 C 
ATOM     24  C   UNL     1      -4.368  12.816  23.390  0.00  0.00    +0.000 C 
ATOM     25  C   UNL     1      -4.293  14.326  23.546  0.00  0.00    +0.000 C 
ATOM     26  C   UNL     1      -3.499  14.908  22.387  0.00  0.00    +0.000 C 
ATOM     27  C   UNL     1      -2.090  14.326  22.330  0.00  0.00    +0.000 C 
ENDBRANCH  19  22
ENDBRANCH   5  19
TORSDOF 6
ENDMDL
