MODEL 1
REMARK VINA RESULT:      -6.7      0.000      0.000
REMARK  Name = 
REMARK  6 active torsions:
REMARK  status: ('A' for Active; 'I' for Inactive)
REMARK    1  A    between atoms: C_2  and  C_3
REMARK    2  A    between atoms: C_6  and  C_7
REMARK    3  A    between atoms: N_9  and  C_10
REMARK    4  A    between atoms: C_10  and  C_11
REMARK    5  A    between atoms: C_11  and  C_12
REMARK    6  A    between atoms: C_12  and  N_13
REMARK                            x       y       z     vdW  Elec       q    Type
REMARK                         _______ _______ _______ _____ _____    ______ ____
ROOT
ATOM      1  C   UNL     1       3.305   6.299  18.774  0.00  0.00    +0.000 C 
ATOM      2  O   UNL     1       3.719   5.749  19.788  0.00  0.00    +0.000 OA
ATOM      3  N   UNL     1       3.594   5.865  17.501  0.00  0.00    +0.000 N 
ATOM      4  H   UNL     1       3.263   6.364  16.687  0.00  0.00    +0.000 HD
ENDROOT
BRANCH   1   8
ATOM      5  C   UNL     1       0.864   9.801  19.238  0.00  0.00    +0.000 A 
ATOM      6  C   UNL     1       1.064   8.914  20.301  0.00  0.00    +0.000 A 
ATOM      7  C   UNL     1       1.859   7.779  20.125  0.00  0.00    +0.000 A 
ATOM      8  C   UNL     1       2.471   7.525  18.891  0.00  0.00    +0.000 A 
ATOM      9  C   UNL     1       2.259   8.400  17.818  0.00  0.00    +0.000 A 
ATOM     10  C   UNL     1       1.455   9.536  17.995  0.00  0.00    +0.000 A 
BRANCH   5  12
ATOM     11  N   UNL     1      -0.603  11.917  19.571  0.00  0.00    +0.000 NA
ATOM     12  C   UNL     1       0.056  10.972  19.421  0.00  0.00    +0.000 C 
ENDBRANCH   5  12
ENDBRANCH   1   8
BRANCH   3  13
ATOM     13  C   UNL     1       4.386   4.672  17.267  0.00  0.00    +0.000 C 
BRANCH  13  14
ATOM     14  C   UNL     1       3.516   3.459  16.941  0.00  0.00    +0.000 C 
BRANCH  14  15
ATOM     15  C   UNL     1       3.756   2.262  17.876  0.00  0.00    +0.000 C 
BRANCH  15  16
ATOM     16  N   UNL     1       2.846   2.209  19.036  0.00  0.00    +0.000 NA
ATOM     17  C   UNL     1       3.526   2.631  20.272  0.00  0.00    +0.000 C 
ATOM     18  C   UNL     1       2.599   2.512  21.481  0.00  0.00    +0.000 C 
ATOM     19  C   UNL     1       1.328   3.326  21.283  0.00  0.00    +0.000 C 
ATOM     20  C   UNL     1       0.665   2.953  19.963  0.00  0.00    +0.000 C 
ATOM     21  C   UNL     1       1.652   3.039  18.795  0.00  0.00    +0.000 C 
ENDBRANCH  15  16
ENDBRANCH  14  15
ENDBRANCH  13  14
ENDBRANCH   3  13
TORSDOF 6
ENDMDL
MODEL 2
REMARK VINA RESULT:      -6.6      0.121      1.088
REMARK  Name = 
REMARK  6 active torsions:
REMARK  status: ('A' for Active; 'I' for Inactive)
REMARK    1  A    between atoms: C_2  and  C_3
REMARK    2  A    between atoms: C_6  and  C_7
REMARK    3  A    between atoms: N_9  and  C_10
REMARK    4  A    between atoms: C_10  and  C_11
REMARK    5  A    between atoms: C_11  and  C_12
REMARK    6  A    between atoms: C_12  and  N_13
REMARK                            x       y       z     vdW  Elec       q    Type
REMARK                         _______ _______ _______ _____ _____    ______ ____
ROOT
ATOM      1  C   UNL     1       3.258   6.315  18.841  0.00  0.00    +0.000 C 
ATOM      2  O   UNL     1       3.688   5.757  19.844  0.00  0.00    +0.000 OA
ATOM      3  N   UNL     1       3.546   5.906  17.559  0.00  0.00    +0.000 N 
ATOM      4  H   UNL     1       3.200   6.411  16.756  0.00  0.00    +0.000 HD
ENDROOT
BRANCH   1   8
ATOM      5  C   UNL     1       0.819   9.838  19.125  0.00  0.00    +0.000 A 
ATOM      6  C   UNL     1       1.436   9.481  17.921  0.00  0.00    +0.000 A 
ATOM      7  C   UNL     1       2.228   8.333  17.854  0.00  0.00    +0.000 A 
ATOM      8  C   UNL     1       2.402   7.524  18.983  0.00  0.00    +0.000 A 
ATOM      9  C   UNL     1       1.801   7.885  20.196  0.00  0.00    +0.000 A 
ATOM     10  C   UNL     1       1.011   9.042  20.262  0.00  0.00    +0.000 A 
BRANCH   5  12
ATOM     11  N   UNL     1      -0.670  11.961  19.250  0.00  0.00    +0.000 NA
ATOM     12  C   UNL     1      -0.003  11.011  19.191  0.00  0.00    +0.000 C 
ENDBRANCH   5  12
ENDBRANCH   1   8
BRANCH   3  13
ATOM     13  C   UNL     1       4.359   4.732  17.302  0.00  0.00    +0.000 C 
BRANCH  13  14
ATOM     14  C   UNL     1       3.509   3.507  16.968  0.00  0.00    +0.000 C 
BRANCH  14  15
ATOM     15  C   UNL     1       3.768   2.307  17.895  0.00  0.00    +0.000 C 
BRANCH  15  16
ATOM     16  N   UNL     1       2.854   2.228  19.050  0.00  0.00    +0.000 NA
ATOM     17  C   UNL     1       3.533   2.608  20.301  0.00  0.00    +0.000 C 
ATOM     18  C   UNL     1       2.601   2.462  21.503  0.00  0.00    +0.000 C 
ATOM     19  C   UNL     1       1.338   3.292  21.325  0.00  0.00    +0.000 C 
ATOM     20  C   UNL     1       0.676   2.963  19.993  0.00  0.00    +0.000 C 
ATOM     21  C   UNL     1       1.667   3.076  18.831  0.00  0.00    +0.000 C 
ENDBRANCH  15  16
ENDBRANCH  14  15
ENDBRANCH  13  14
ENDBRANCH   3  13
TORSDOF 6
ENDMDL
MODEL 3
REMARK VINA RESULT:      -6.6      0.431      1.589
REMARK  Name = 
REMARK  6 active torsions:
REMARK  status: ('A' for Active; 'I' for Inactive)
REMARK    1  A    between atoms: C_2  and  C_3
REMARK    2  A    between atoms: C_6  and  C_7
REMARK    3  A    between atoms: N_9  and  C_10
REMARK    4  A    between atoms: C_10  and  C_11
REMARK    5  A    between atoms: C_11  and  C_12
REMARK    6  A    between atoms: C_12  and  N_13
REMARK                            x       y       z     vdW  Elec       q    Type
REMARK                         _______ _______ _______ _____ _____    ______ ____
ROOT
ATOM      1  C   UNL     1       3.338   6.417  18.901  0.00  0.00    +0.000 C 
ATOM      2  O   UNL     1       3.729   5.843  19.911  0.00  0.00    +0.000 OA
ATOM      3  N   UNL     1       3.737   6.076  17.629  0.00  0.00    +0.000 N 
ATOM      4  H   UNL     1       3.419   6.594  16.822  0.00  0.00    +0.000 HD
ENDROOT
BRANCH   1   8
ATOM      5  C   UNL     1       0.683   9.783  19.135  0.00  0.00    +0.000 A 
ATOM      6  C   UNL     1       1.320   9.448  17.936  0.00  0.00    +0.000 A 
ATOM      7  C   UNL     1       2.183   8.351  17.885  0.00  0.00    +0.000 A 
ATOM      8  C   UNL     1       2.408   7.571  19.026  0.00  0.00    +0.000 A 
ATOM      9  C   UNL     1       1.787   7.913  20.234  0.00  0.00    +0.000 A 
ATOM     10  C   UNL     1       0.926   9.019  20.285  0.00  0.00    +0.000 A 
BRANCH   5  12
ATOM     11  N   UNL     1      -0.931  11.815  19.225  0.00  0.00    +0.000 NA
ATOM     12  C   UNL     1      -0.211  10.904  19.185  0.00  0.00    +0.000 C 
ENDBRANCH   5  12
ENDBRANCH   1   8
BRANCH   3  13
ATOM     13  C   UNL     1       4.629   4.958  17.387  0.00  0.00    +0.000 C 
BRANCH  13  14
ATOM     14  C   UNL     1       3.928   3.809  16.665  0.00  0.00    +0.000 C 
BRANCH  14  15
ATOM     15  C   UNL     1       3.491   2.670  17.602  0.00  0.00    +0.000 C 
BRANCH  15  16
ATOM     16  N   UNL     1       2.898   3.127  18.873  0.00  0.00    +0.000 NA
ATOM     17  C   UNL     1       1.430   3.209  18.782  0.00  0.00    +0.000 C 
ATOM     18  C   UNL     1       0.824   3.745  20.078  0.00  0.00    +0.000 C 
ATOM     19  C   UNL     1       1.223   2.886  21.269  0.00  0.00    +0.000 C 
ATOM     20  C   UNL     1       2.738   2.727  21.319  0.00  0.00    +0.000 C 
ATOM     21  C   UNL     1       3.296   2.237  19.980  0.00  0.00    +0.000 C 
ENDBRANCH  15  16
ENDBRANCH  14  15
ENDBRANCH  13  14
ENDBRANCH   3  13
TORSDOF 6
ENDMDL
MODEL 4
REMARK VINA RESULT:      -6.6      1.170      1.629
REMARK  Name = 
REMARK  6 active torsions:
REMARK  status: ('A' for Active; 'I' for Inactive)
REMARK    1  A    between atoms: C_2  and  C_3
REMARK    2  A    between atoms: C_6  and  C_7
REMARK    3  A    between atoms: N_9  and  C_10
REMARK    4  A    between atoms: C_10  and  C_11
REMARK    5  A    between atoms: C_11  and  C_12
REMARK    6  A    between atoms: C_12  and  N_13
REMARK                            x       y       z     vdW  Elec       q    Type
REMARK                         _______ _______ _______ _____ _____    ______ ____
ROOT
ATOM      1  C   UNL     1       3.797   6.794  17.627  0.00  0.00    +0.000 C 
ATOM      2  O   UNL     1       4.258   7.183  16.560  0.00  0.00    +0.000 OA
ATOM      3  N   UNL     1       4.102   5.575  18.188  0.00  0.00    +0.000 N 
ATOM      4  H   UNL     1       3.677   5.273  19.053  0.00  0.00    +0.000 HD
ENDROOT
BRANCH   1   8
ATOM      5  C   UNL     1       0.995   9.168  19.852  0.00  0.00    +0.000 A 
ATOM      6  C   UNL     1       1.543   8.000  20.393  0.00  0.00    +0.000 A 
ATOM      7  C   UNL     1       2.449   7.242  19.649  0.00  0.00    +0.000 A 
ATOM      8  C   UNL     1       2.827   7.648  18.364  0.00  0.00    +0.000 A 
ATOM      9  C   UNL     1       2.268   8.806  17.809  0.00  0.00    +0.000 A 
ATOM     10  C   UNL     1       1.353   9.563  18.556  0.00  0.00    +0.000 A 
BRANCH   5  12
ATOM     11  N   UNL     1      -0.675  10.584  21.247  0.00  0.00    +0.000 NA
ATOM     12  C   UNL     1       0.072   9.952  20.620  0.00  0.00    +0.000 C 
ENDBRANCH   5  12
ENDBRANCH   1   8
BRANCH   3  13
ATOM     13  C   UNL     1       5.047   4.667  17.565  0.00  0.00    +0.000 C 
BRANCH  13  14
ATOM     14  C   UNL     1       4.349   3.500  16.870  0.00  0.00    +0.000 C 
BRANCH  14  15
ATOM     15  C   UNL     1       3.799   2.444  17.844  0.00  0.00    +0.000 C 
BRANCH  15  16
ATOM     16  N   UNL     1       3.027   3.004  18.969  0.00  0.00    +0.000 NA
ATOM     17  C   UNL     1       1.580   2.801  18.783  0.00  0.00    +0.000 C 
ATOM     18  C   UNL     1       0.781   3.440  19.918  0.00  0.00    +0.000 C 
ATOM     19  C   UNL     1       1.212   2.893  21.271  0.00  0.00    +0.000 C 
ATOM     20  C   UNL     1       2.722   3.025  21.435  0.00  0.00    +0.000 C 
ATOM     21  C   UNL     1       3.470   2.414  20.246  0.00  0.00    +0.000 C 
ENDBRANCH  15  16
ENDBRANCH  14  15
ENDBRANCH  13  14
ENDBRANCH   3  13
TORSDOF 6
ENDMDL
MODEL 5
REMARK VINA RESULT:      -6.6      1.046      1.841
REMARK  Name = 
REMARK  6 active torsions:
REMARK  status: ('A' for Active; 'I' for Inactive)
REMARK    1  A    between atoms: C_2  and  C_3
REMARK    2  A    between atoms: C_6  and  C_7
REMARK    3  A    between atoms: N_9  and  C_10
REMARK    4  A    between atoms: C_10  and  C_11
REMARK    5  A    between atoms: C_11  and  C_12
REMARK    6  A    between atoms: C_12  and  N_13
REMARK                            x       y       z     vdW  Elec       q    Type
REMARK                         _______ _______ _______ _____ _____    ______ ____
ROOT
ATOM      1  C   UNL     1       3.753   6.867  17.824  0.00  0.00    +0.000 C 
ATOM      2  O   UNL     1       4.322   7.243  16.806  0.00  0.00    +0.000 OA
ATOM      3  N   UNL     1       3.982   5.646  18.417  0.00  0.00    +0.000 N 
ATOM      4  H   UNL     1       3.469   5.355  19.237  0.00  0.00    +0.000 HD
ENDROOT
BRANCH   1   8
ATOM      5  C   UNL     1       0.800   9.464  19.547  0.00  0.00    +0.000 A 
ATOM      6  C   UNL     1       1.260   9.660  18.241  0.00  0.00    +0.000 A 
ATOM      7  C   UNL     1       2.224   8.805  17.703  0.00  0.00    +0.000 A 
ATOM      8  C   UNL     1       2.729   7.739  18.459  0.00  0.00    +0.000 A 
ATOM      9  C   UNL     1       2.285   7.550  19.774  0.00  0.00    +0.000 A 
ATOM     10  C   UNL     1       1.322   8.414  20.314  0.00  0.00    +0.000 A 
BRANCH   5  12
ATOM     11  N   UNL     1      -1.006  11.046  20.535  0.00  0.00    +0.000 NA
ATOM     12  C   UNL     1      -0.198  10.336  20.096  0.00  0.00    +0.000 C 
ENDBRANCH   5  12
ENDBRANCH   1   8
BRANCH   3  13
ATOM     13  C   UNL     1       4.969   4.721  17.893  0.00  0.00    +0.000 C 
BRANCH  13  14
ATOM     14  C   UNL     1       4.346   3.685  16.959  0.00  0.00    +0.000 C 
BRANCH  14  15
ATOM     15  C   UNL     1       3.488   2.637  17.687  0.00  0.00    +0.000 C 
BRANCH  15  16
ATOM     16  N   UNL     1       2.886   3.118  18.945  0.00  0.00    +0.000 NA
ATOM     17  C   UNL     1       1.414   3.101  18.878  0.00  0.00    +0.000 C 
ATOM     18  C   UNL     1       0.795   3.662  20.158  0.00  0.00    +0.000 C 
ATOM     19  C   UNL     1       1.268   2.890  21.382  0.00  0.00    +0.000 C 
ATOM     20  C   UNL     1       2.790   2.832  21.411  0.00  0.00    +0.000 C 
ATOM     21  C   UNL     1       3.358   2.313  20.087  0.00  0.00    +0.000 C 
ENDBRANCH  15  16
ENDBRANCH  14  15
ENDBRANCH  13  14
ENDBRANCH   3  13
TORSDOF 6
ENDMDL
MODEL 6
REMARK VINA RESULT:      -6.5      1.674      2.184
REMARK  Name = 
REMARK  6 active torsions:
REMARK  status: ('A' for Active; 'I' for Inactive)
REMARK    1  A    between atoms: C_2  and  C_3
REMARK    2  A    between atoms: C_6  and  C_7
REMARK    3  A    between atoms: N_9  and  C_10
REMARK    4  A    between atoms: C_10  and  C_11
REMARK    5  A    between atoms: C_11  and  C_12
REMARK    6  A    between atoms: C_12  and  N_13
REMARK                            x       y       z     vdW  Elec       q    Type
REMARK                         _______ _______ _______ _____ _____    ______ ____
ROOT
ATOM      1  C   UNL     1       2.520   7.974  18.197  0.00  0.00    +0.000 C 
ATOM      2  O   UNL     1       2.588   8.584  17.137  0.00  0.00    +0.000 OA
ATOM      3  N   UNL     1       3.096   6.741  18.404  0.00  0.00    +0.000 N 
ATOM      4  H   UNL     1       2.990   6.252  19.282  0.00  0.00    +0.000 HD
ENDROOT
BRANCH   1   8
ATOM      5  C   UNL     1       0.282   9.761  21.396  0.00  0.00    +0.000 A 
ATOM      6  C   UNL     1       0.402  10.396  20.156  0.00  0.00    +0.000 A 
ATOM      7  C   UNL     1       1.139   9.797  19.132  0.00  0.00    +0.000 A 
ATOM      8  C   UNL     1       1.752   8.555  19.331  0.00  0.00    +0.000 A 
ATOM      9  C   UNL     1       1.651   7.923  20.577  0.00  0.00    +0.000 A 
ATOM     10  C   UNL     1       0.916   8.529  21.606  0.00  0.00    +0.000 A 
BRANCH   5  12
ATOM     11  N   UNL     1      -1.100  10.869  23.294  0.00  0.00    +0.000 NA
ATOM     12  C   UNL     1      -0.483  10.371  22.445  0.00  0.00    +0.000 C 
ENDBRANCH   5  12
ENDBRANCH   1   8
BRANCH   3  13
ATOM     13  C   UNL     1       3.880   6.087  17.374  0.00  0.00    +0.000 C 
BRANCH  13  14
ATOM     14  C   UNL     1       4.614   4.857  17.905  0.00  0.00    +0.000 C 
BRANCH  14  15
ATOM     15  C   UNL     1       3.934   3.528  17.534  0.00  0.00    +0.000 C 
BRANCH  15  16
ATOM     16  N   UNL     1       3.066   2.977  18.593  0.00  0.00    +0.000 NA
ATOM     17  C   UNL     1       3.491   3.433  19.928  0.00  0.00    +0.000 C 
ATOM     18  C   UNL     1       2.630   2.808  21.025  0.00  0.00    +0.000 C 
ATOM     19  C   UNL     1       1.156   3.121  20.814  0.00  0.00    +0.000 C 
ATOM     20  C   UNL     1       0.732   2.728  19.404  0.00  0.00    +0.000 C 
ATOM     21  C   UNL     1       1.658   3.339  18.348  0.00  0.00    +0.000 C 
ENDBRANCH  15  16
ENDBRANCH  14  15
ENDBRANCH  13  14
ENDBRANCH   3  13
TORSDOF 6
ENDMDL
MODEL 7
REMARK VINA RESULT:      -6.5      1.826      2.559
REMARK  Name = 
REMARK  6 active torsions:
REMARK  status: ('A' for Active; 'I' for Inactive)
REMARK    1  A    between atoms: C_2  and  C_3
REMARK    2  A    between atoms: C_6  and  C_7
REMARK    3  A    between atoms: N_9  and  C_10
REMARK    4  A    between atoms: C_10  and  C_11
REMARK    5  A    between atoms: C_11  and  C_12
REMARK    6  A    between atoms: C_12  and  N_13
REMARK                            x       y       z     vdW  Elec       q    Type
REMARK                         _______ _______ _______ _____ _____    ______ ____
ROOT
ATOM      1  C   UNL     1       2.483   8.213  18.091  0.00  0.00    +0.000 C 
ATOM      2  O   UNL     1       2.328   8.751  17.001  0.00  0.00    +0.000 OA
ATOM      3  N   UNL     1       3.317   7.137  18.297  0.00  0.00    +0.000 N 
ATOM      4  H   UNL     1       3.393   6.698  19.203  0.00  0.00    +0.000 HD
ENDROOT
BRANCH   1   8
ATOM      5  C   UNL     1       0.246   9.741  21.422  0.00  0.00    +0.000 A 
ATOM      6  C   UNL     1       0.353  10.465  20.231  0.00  0.00    +0.000 A 
ATOM      7  C   UNL     1       1.090   9.950  19.162  0.00  0.00    +0.000 A 
ATOM      8  C   UNL     1       1.715   8.702  19.268  0.00  0.00    +0.000 A 
ATOM      9  C   UNL     1       1.627   7.980  20.465  0.00  0.00    +0.000 A 
ATOM     10  C   UNL     1       0.892   8.503  21.539  0.00  0.00    +0.000 A 
BRANCH   5  12
ATOM     11  N   UNL     1      -1.143  10.687  23.401  0.00  0.00    +0.000 NA
ATOM     12  C   UNL     1      -0.519  10.265  22.516  0.00  0.00    +0.000 C 
ENDBRANCH   5  12
ENDBRANCH   1   8
BRANCH   3  13
ATOM     13  C   UNL     1       4.124   6.587  17.225  0.00  0.00    +0.000 C 
BRANCH  13  14
ATOM     14  C   UNL     1       4.615   5.175  17.543  0.00  0.00    +0.000 C 
BRANCH  14  15
ATOM     15  C   UNL     1       3.519   4.103  17.426  0.00  0.00    +0.000 C 
BRANCH  15  16
ATOM     16  N   UNL     1       2.569   4.085  18.555  0.00  0.00    +0.000 NA
ATOM     17  C   UNL     1       1.670   2.920  18.483  0.00  0.00    +0.000 C 
ATOM     18  C   UNL     1       0.646   2.941  19.617  0.00  0.00    +0.000 C 
ATOM     19  C   UNL     1       1.330   2.986  20.976  0.00  0.00    +0.000 C 
ATOM     20  C   UNL     1       2.324   4.139  21.027  0.00  0.00    +0.000 C 
ATOM     21  C   UNL     1       3.292   4.098  19.840  0.00  0.00    +0.000 C 
ENDBRANCH  15  16
ENDBRANCH  14  15
ENDBRANCH  13  14
ENDBRANCH   3  13
TORSDOF 6
ENDMDL
MODEL 8
REMARK VINA RESULT:      -6.4      2.021      3.844
REMARK  Name = 
REMARK  6 active torsions:
REMARK  status: ('A' for Active; 'I' for Inactive)
REMARK    1  A    between atoms: C_2  and  C_3
REMARK    2  A    between atoms: C_6  and  C_7
REMARK    3  A    between atoms: N_9  and  C_10
REMARK    4  A    between atoms: C_10  and  C_11
REMARK    5  A    between atoms: C_11  and  C_12
REMARK    6  A    between atoms: C_12  and  N_13
REMARK                            x       y       z     vdW  Elec       q    Type
REMARK                         _______ _______ _______ _____ _____    ______ ____
ROOT
ATOM      1  C   UNL     1       2.586   5.756  19.772  0.00  0.00    +0.000 C 
ATOM      2  O   UNL     1       2.419   5.185  20.844  0.00  0.00    +0.000 OA
ATOM      3  N   UNL     1       3.249   5.193  18.705  0.00  0.00    +0.000 N 
ATOM      4  H   UNL     1       3.397   5.708  17.848  0.00  0.00    +0.000 HD
ENDROOT
BRANCH   1   8
ATOM      5  C   UNL     1       1.204   9.772  19.141  0.00  0.00    +0.000 A 
ATOM      6  C   UNL     1       1.849   9.061  18.123  0.00  0.00    +0.000 A 
ATOM      7  C   UNL     1       2.293   7.758  18.353  0.00  0.00    +0.000 A 
ATOM      8  C   UNL     1       2.088   7.147  19.596  0.00  0.00    +0.000 A 
ATOM      9  C   UNL     1       1.460   7.860  20.625  0.00  0.00    +0.000 A 
ATOM     10  C   UNL     1       1.020   9.171  20.394  0.00  0.00    +0.000 A 
BRANCH   5  12
ATOM     11  N   UNL     1       0.356  12.187  18.708  0.00  0.00    +0.000 NA
ATOM     12  C   UNL     1       0.739  11.107  18.902  0.00  0.00    +0.000 C 
ENDBRANCH   5  12
ENDBRANCH   1   8
BRANCH   3  13
ATOM     13  C   UNL     1       3.764   3.839  18.760  0.00  0.00    +0.000 C 
BRANCH  13  14
ATOM     14  C   UNL     1       4.043   3.274  17.368  0.00  0.00    +0.000 C 
BRANCH  14  15
ATOM     15  C   UNL     1       5.295   3.869  16.702  0.00  0.00    +0.000 C 
BRANCH  15  16
ATOM     16  N   UNL     1       5.863   5.030  17.413  0.00  0.00    +0.000 NA
ATOM     17  C   UNL     1       7.231   4.755  17.887  0.00  0.00    +0.000 C 
ATOM     18  C   UNL     1       7.790   5.936  18.679  0.00  0.00    +0.000 C 
ATOM     19  C   UNL     1       7.775   7.212  17.850  0.00  0.00    +0.000 C 
ATOM     20  C   UNL     1       6.380   7.457  17.287  0.00  0.00    +0.000 C 
ATOM     21  C   UNL     1       5.848   6.225  16.549  0.00  0.00    +0.000 C 
ENDBRANCH  15  16
ENDBRANCH  14  15
ENDBRANCH  13  14
ENDBRANCH   3  13
TORSDOF 6
ENDMDL
MODEL 9
REMARK VINA RESULT:      -6.4      1.961      2.606
REMARK  Name = 
REMARK  6 active torsions:
REMARK  status: ('A' for Active; 'I' for Inactive)
REMARK    1  A    between atoms: C_2  and  C_3
REMARK    2  A    between atoms: C_6  and  C_7
REMARK    3  A    between atoms: N_9  and  C_10
REMARK    4  A    between atoms: C_10  and  C_11
REMARK    5  A    between atoms: C_11  and  C_12
REMARK    6  A    between atoms: C_12  and  N_13
REMARK                            x       y       z     vdW  Elec       q    Type
REMARK                         _______ _______ _______ _____ _____    ______ ____
ROOT
ATOM      1  C   UNL     1       2.411   8.450  18.106  0.00  0.00    +0.000 C 
ATOM      2  O   UNL     1       2.296   8.936  16.987  0.00  0.00    +0.000 OA
ATOM      3  N   UNL     1       3.240   7.389  18.394  0.00  0.00    +0.000 N 
ATOM      4  H   UNL     1       3.283   6.993  19.322  0.00  0.00    +0.000 HD
ENDROOT
BRANCH   1   8
ATOM      5  C   UNL     1       0.094   9.900  21.417  0.00  0.00    +0.000 A 
ATOM      6  C   UNL     1       0.828   8.713  21.514  0.00  0.00    +0.000 A 
ATOM      7  C   UNL     1       1.571   8.259  20.422  0.00  0.00    +0.000 A 
ATOM      8  C   UNL     1       1.598   8.990  19.229  0.00  0.00    +0.000 A 
ATOM      9  C   UNL     1       0.850  10.170  19.120  0.00  0.00    +0.000 A 
ATOM     10  C   UNL     1       0.100  10.620  20.216  0.00  0.00    +0.000 A 
BRANCH   5  12
ATOM     11  N   UNL     1      -1.277  10.752  23.451  0.00  0.00    +0.000 NA
ATOM     12  C   UNL     1      -0.661  10.372  22.542  0.00  0.00    +0.000 C 
ENDBRANCH   5  12
ENDBRANCH   1   8
BRANCH   3  13
ATOM     13  C   UNL     1       4.088   6.792  17.380  0.00  0.00    +0.000 C 
BRANCH  13  14
ATOM     14  C   UNL     1       4.980   5.692  17.953  0.00  0.00    +0.000 C 
BRANCH  14  15
ATOM     15  C   UNL     1       4.450   5.093  19.267  0.00  0.00    +0.000 C 
BRANCH  15  16
ATOM     16  N   UNL     1       3.059   4.606  19.192  0.00  0.00    +0.000 NA
ATOM     17  C   UNL     1       2.983   3.296  18.524  0.00  0.00    +0.000 C 
ATOM     18  C   UNL     1       1.535   2.826  18.390  0.00  0.00    +0.000 C 
ATOM     19  C   UNL     1       0.851   2.757  19.747  0.00  0.00    +0.000 C 
ATOM     20  C   UNL     1       0.999   4.086  20.479  0.00  0.00    +0.000 C 
ATOM     21  C   UNL     1       2.463   4.533  20.538  0.00  0.00    +0.000 C 
ENDBRANCH  15  16
ENDBRANCH  14  15
ENDBRANCH  13  14
ENDBRANCH   3  13
TORSDOF 6
ENDMDL
