MODEL 1
REMARK VINA RESULT:      -6.8      0.000      0.000
REMARK  Name = 
REMARK  6 active torsions:
REMARK  status: ('A' for Active; 'I' for Inactive)
REMARK    1  A    between atoms: C_1  and  C_2
REMARK    2  A    between atoms: N_5  and  C_6
REMARK    3  A    between atoms: C_6  and  C_7
REMARK    4  A    between atoms: C_7  and  C_8
REMARK    5  A    between atoms: C_8  and  C_9
REMARK    6  A    between atoms: C_8  and  C_10
REMARK                            x       y       z     vdW  Elec       q    Type
REMARK                         _______ _______ _______ _____ _____    ______ ____
ROOT
ATOM      1  C   UNL     1       2.130   9.818  17.798  0.00  0.00    +0.000 C 
ATOM      2  C   UNL     1       2.477   8.417  18.200  0.00  0.00    +0.000 A 
ATOM      3  N   UNL     1       3.324   7.739  17.403  0.00  0.00    +0.000 NA
ATOM      4  C   UNL     1       3.651   6.460  17.698  0.00  0.00    +0.000 A 
ATOM      5  N   UNL     1       4.442   5.739  16.807  0.00  0.00    +0.000 N 
ATOM      6  C   UNL     1       3.122   5.886  18.878  0.00  0.00    +0.000 A 
ATOM      7  C   UNL     1       3.291   4.608  19.544  0.00  0.00    +0.000 A 
ATOM      8  C   UNL     1       2.461   4.491  20.645  0.00  0.00    +0.000 A 
ATOM      9  S   UNL     1       1.580   5.909  20.955  0.00  0.00    +0.000 S 
ATOM     10  C   UNL     1       2.246   6.689  19.594  0.00  0.00    +0.000 A 
ATOM     11  N   UNL     1       1.893   7.950  19.307  0.00  0.00    +0.000 NA
ATOM     12  C   UNL     1       2.352   3.286  21.531  0.00  0.00    +0.000 C 
ATOM     13  C   UNL     1       2.984   2.064  20.850  0.00  0.00    +0.000 C 
ATOM     14  C   UNL     1       4.342   2.414  20.234  0.00  0.00    +0.000 C 
ATOM     15  C   UNL     1       4.205   3.484  19.141  0.00  0.00    +0.000 C 
ATOM     16  H   UNL     1       4.755   4.858  17.181  0.00  0.00    +0.000 HD
ENDROOT
BRANCH   5  17
ATOM     17  C   UNL     1       5.468   6.478  16.087  0.00  0.00    +0.000 C 
BRANCH  17  18
ATOM     18  C   UNL     1       6.827   6.121  16.704  0.00  0.00    +0.000 C 
BRANCH  18  19
ATOM     19  C   UNL     1       7.124   6.829  18.035  0.00  0.00    +0.000 C 
ATOM     20  C   UNL     1       7.878   5.932  19.016  0.00  0.00    +0.000 C 
ATOM     21  C   UNL     1       7.940   8.098  17.769  0.00  0.00    +0.000 C 
ENDBRANCH  18  19
ENDBRANCH  17  18
ENDBRANCH   5  17
TORSDOF 3
ENDMDL
MODEL 2
REMARK VINA RESULT:      -6.7      2.481      5.922
REMARK  Name = 
REMARK  6 active torsions:
REMARK  status: ('A' for Active; 'I' for Inactive)
REMARK    1  A    between atoms: C_1  and  C_2
REMARK    2  A    between atoms: N_5  and  C_6
REMARK    3  A    between atoms: C_6  and  C_7
REMARK    4  A    between atoms: C_7  and  C_8
REMARK    5  A    between atoms: C_8  and  C_9
REMARK    6  A    between atoms: C_8  and  C_10
REMARK                            x       y       z     vdW  Elec       q    Type
REMARK                         _______ _______ _______ _____ _____    ______ ____
ROOT
ATOM      1  C   UNL     1       4.488   5.607  16.848  0.00  0.00    +0.000 C 
ATOM      2  C   UNL     1       3.582   6.358  17.775  0.00  0.00    +0.000 A 
ATOM      3  N   UNL     1       3.067   5.680  18.818  0.00  0.00    +0.000 NA
ATOM      4  C   UNL     1       2.219   6.298  19.672  0.00  0.00    +0.000 A 
ATOM      5  N   UNL     1       1.612   5.555  20.681  0.00  0.00    +0.000 N 
ATOM      6  C   UNL     1       1.935   7.669  19.464  0.00  0.00    +0.000 A 
ATOM      7  C   UNL     1       1.155   8.659  20.182  0.00  0.00    +0.000 A 
ATOM      8  C   UNL     1       1.111   9.865  19.503  0.00  0.00    +0.000 A 
ATOM      9  S   UNL     1       2.068   9.863  18.100  0.00  0.00    +0.000 S 
ATOM     10  C   UNL     1       2.517   8.237  18.340  0.00  0.00    +0.000 A 
ATOM     11  N   UNL     1       3.342   7.637  17.470  0.00  0.00    +0.000 NA
ATOM     12  C   UNL     1       0.358  11.085  19.942  0.00  0.00    +0.000 C 
ATOM     13  C   UNL     1      -0.662  10.721  21.030  0.00  0.00    +0.000 C 
ATOM     14  C   UNL     1      -0.039   9.809  22.091  0.00  0.00    +0.000 C 
ATOM     15  C   UNL     1       0.428   8.477  21.485  0.00  0.00    +0.000 C 
ATOM     16  H   UNL     1       1.122   6.126  21.351  0.00  0.00    +0.000 HD
ENDROOT
BRANCH   5  17
ATOM     17  C   UNL     1       2.395   4.481  21.273  0.00  0.00    +0.000 C 
BRANCH  17  18
ATOM     18  C   UNL     1       1.544   3.205  21.241  0.00  0.00    +0.000 C 
BRANCH  18  19
ATOM     19  C   UNL     1       1.834   2.278  20.051  0.00  0.00    +0.000 C 
ATOM     20  C   UNL     1       0.969   2.605  18.833  0.00  0.00    +0.000 C 
ATOM     21  C   UNL     1       3.315   2.382  19.670  0.00  0.00    +0.000 C 
ENDBRANCH  18  19
ENDBRANCH  17  18
ENDBRANCH   5  17
TORSDOF 3
ENDMDL
MODEL 3
REMARK VINA RESULT:      -6.7      2.697      5.961
REMARK  Name = 
REMARK  6 active torsions:
REMARK  status: ('A' for Active; 'I' for Inactive)
REMARK    1  A    between atoms: C_1  and  C_2
REMARK    2  A    between atoms: N_5  and  C_6
REMARK    3  A    between atoms: C_6  and  C_7
REMARK    4  A    between atoms: C_7  and  C_8
REMARK    5  A    between atoms: C_8  and  C_9
REMARK    6  A    between atoms: C_8  and  C_10
REMARK                            x       y       z     vdW  Elec       q    Type
REMARK                         _______ _______ _______ _____ _____    ______ ____
ROOT
ATOM      1  C   UNL     1       1.209   2.760  21.842  0.00  0.00    +0.000 C 
ATOM      2  C   UNL     1       1.924   3.503  20.755  0.00  0.00    +0.000 A 
ATOM      3  N   UNL     1       1.724   4.832  20.682  0.00  0.00    +0.000 NA
ATOM      4  C   UNL     1       2.320   5.552  19.704  0.00  0.00    +0.000 A 
ATOM      5  N   UNL     1       2.018   6.905  19.577  0.00  0.00    +0.000 N 
ATOM      6  C   UNL     1       3.183   4.881  18.806  0.00  0.00    +0.000 A 
ATOM      7  C   UNL     1       4.028   5.308  17.706  0.00  0.00    +0.000 A 
ATOM      8  C   UNL     1       4.615   4.231  17.065  0.00  0.00    +0.000 A 
ATOM      9  S   UNL     1       4.267   2.750  17.819  0.00  0.00    +0.000 S 
ATOM     10  C   UNL     1       3.281   3.508  18.983  0.00  0.00    +0.000 A 
ATOM     11  N   UNL     1       2.683   2.774  19.932  0.00  0.00    +0.000 NA
ATOM     12  C   UNL     1       5.510   4.313  15.865  0.00  0.00    +0.000 C 
ATOM     13  C   UNL     1       5.390   5.694  15.203  0.00  0.00    +0.000 C 
ATOM     14  C   UNL     1       5.439   6.814  16.246  0.00  0.00    +0.000 C 
ATOM     15  C   UNL     1       4.267   6.715  17.234  0.00  0.00    +0.000 C 
ATOM     16  H   UNL     1       2.618   7.384  18.926  0.00  0.00    +0.000 HD
ENDROOT
BRANCH   5  17
ATOM     17  C   UNL     1       1.764   7.643  20.806  0.00  0.00    +0.000 C 
BRANCH  17  18
ATOM     18  C   UNL     1       1.072   8.961  20.430  0.00  0.00    +0.000 C 
BRANCH  18  19
ATOM     19  C   UNL     1      -0.089   9.354  21.355  0.00  0.00    +0.000 C 
ATOM     20  C   UNL     1       0.315   9.353  22.830  0.00  0.00    +0.000 C 
ATOM     21  C   UNL     1      -0.607  10.742  20.966  0.00  0.00    +0.000 C 
ENDBRANCH  18  19
ENDBRANCH  17  18
ENDBRANCH   5  17
TORSDOF 3
ENDMDL
MODEL 4
REMARK VINA RESULT:      -6.6      2.289      4.588
REMARK  Name = 
REMARK  6 active torsions:
REMARK  status: ('A' for Active; 'I' for Inactive)
REMARK    1  A    between atoms: C_1  and  C_2
REMARK    2  A    between atoms: N_5  and  C_6
REMARK    3  A    between atoms: C_6  and  C_7
REMARK    4  A    between atoms: C_7  and  C_8
REMARK    5  A    between atoms: C_8  and  C_9
REMARK    6  A    between atoms: C_8  and  C_10
REMARK                            x       y       z     vdW  Elec       q    Type
REMARK                         _______ _______ _______ _____ _____    ______ ____
ROOT
ATOM      1  C   UNL     1       6.178   5.467  14.852  0.00  0.00    +0.000 C 
ATOM      2  C   UNL     1       5.229   5.198  15.979  0.00  0.00    +0.000 A 
ATOM      3  N   UNL     1       4.694   6.264  16.602  0.00  0.00    +0.000 NA
ATOM      4  C   UNL     1       3.853   6.084  17.647  0.00  0.00    +0.000 A 
ATOM      5  N   UNL     1       3.393   7.196  18.348  0.00  0.00    +0.000 N 
ATOM      6  C   UNL     1       3.523   4.761  18.024  0.00  0.00    +0.000 A 
ATOM      7  C   UNL     1       2.633   4.184  19.015  0.00  0.00    +0.000 A 
ATOM      8  C   UNL     1       2.740   2.805  19.057  0.00  0.00    +0.000 A 
ATOM      9  S   UNL     1       3.788   2.192  17.869  0.00  0.00    +0.000 S 
ATOM     10  C   UNL     1       4.163   3.757  17.310  0.00  0.00    +0.000 A 
ATOM     11  N   UNL     1       5.014   3.915  16.287  0.00  0.00    +0.000 NA
ATOM     12  C   UNL     1       1.996   1.901  19.993  0.00  0.00    +0.000 C 
ATOM     13  C   UNL     1       1.394   2.710  21.151  0.00  0.00    +0.000 C 
ATOM     14  C   UNL     1       0.707   3.980  20.640  0.00  0.00    +0.000 C 
ATOM     15  C   UNL     1       1.704   4.917  19.942  0.00  0.00    +0.000 C 
ATOM     16  H   UNL     1       2.662   6.975  19.004  0.00  0.00    +0.000 HD
ENDROOT
BRANCH   5  17
ATOM     17  C   UNL     1       3.157   8.410  17.580  0.00  0.00    +0.000 C 
BRANCH  17  18
ATOM     18  C   UNL     1       1.662   8.744  17.675  0.00  0.00    +0.000 C 
BRANCH  18  19
ATOM     19  C   UNL     1       1.341   9.971  18.542  0.00  0.00    +0.000 C 
ATOM     20  C   UNL     1       2.119  11.212  18.106  0.00  0.00    +0.000 C 
ATOM     21  C   UNL     1      -0.162  10.260  18.483  0.00  0.00    +0.000 C 
ENDBRANCH  18  19
ENDBRANCH  17  18
ENDBRANCH   5  17
TORSDOF 3
ENDMDL
MODEL 5
REMARK VINA RESULT:      -6.5      2.951      4.201
REMARK  Name = 
REMARK  6 active torsions:
REMARK  status: ('A' for Active; 'I' for Inactive)
REMARK    1  A    between atoms: C_1  and  C_2
REMARK    2  A    between atoms: N_5  and  C_6
REMARK    3  A    between atoms: C_6  and  C_7
REMARK    4  A    between atoms: C_7  and  C_8
REMARK    5  A    between atoms: C_8  and  C_9
REMARK    6  A    between atoms: C_8  and  C_10
REMARK                            x       y       z     vdW  Elec       q    Type
REMARK                         _______ _______ _______ _____ _____    ______ ____
ROOT
ATOM      1  C   UNL     1       7.277   7.491  17.434  0.00  0.00    +0.000 C 
ATOM      2  C   UNL     1       6.161   6.501  17.570  0.00  0.00    +0.000 A 
ATOM      3  N   UNL     1       6.040   5.572  16.603  0.00  0.00    +0.000 NA
ATOM      4  C   UNL     1       5.033   4.670  16.657  0.00  0.00    +0.000 A 
ATOM      5  N   UNL     1       4.858   3.785  15.596  0.00  0.00    +0.000 N 
ATOM      6  C   UNL     1       4.157   4.704  17.767  0.00  0.00    +0.000 A 
ATOM      7  C   UNL     1       3.039   3.886  18.198  0.00  0.00    +0.000 A 
ATOM      8  C   UNL     1       2.435   4.402  19.333  0.00  0.00    +0.000 A 
ATOM      9  S   UNL     1       3.244   5.764  19.944  0.00  0.00    +0.000 S 
ATOM     10  C   UNL     1       4.384   5.727  18.678  0.00  0.00    +0.000 A 
ATOM     11  N   UNL     1       5.362   6.643  18.632  0.00  0.00    +0.000 NA
ATOM     12  C   UNL     1       1.229   3.829  20.015  0.00  0.00    +0.000 C 
ATOM     13  C   UNL     1       0.518   2.829  19.092  0.00  0.00    +0.000 C 
ATOM     14  C   UNL     1       1.519   1.879  18.428  0.00  0.00    +0.000 C 
ATOM     15  C   UNL     1       2.514   2.640  17.541  0.00  0.00    +0.000 C 
ATOM     16  H   UNL     1       4.186   3.061  15.792  0.00  0.00    +0.000 HD
ENDROOT
BRANCH   5  17
ATOM     17  C   UNL     1       6.059   3.316  14.921  0.00  0.00    +0.000 C 
BRANCH  17  18
ATOM     18  C   UNL     1       6.104   3.966  13.532  0.00  0.00    +0.000 C 
BRANCH  18  19
ATOM     19  C   UNL     1       5.798   3.006  12.373  0.00  0.00    +0.000 C 
ATOM     20  C   UNL     1       4.537   3.403  11.604  0.00  0.00    +0.000 C 
ATOM     21  C   UNL     1       6.992   2.963  11.414  0.00  0.00    +0.000 C 
ENDBRANCH  18  19
ENDBRANCH  17  18
ENDBRANCH   5  17
TORSDOF 3
ENDMDL
MODEL 6
REMARK VINA RESULT:      -6.3      3.170      4.534
REMARK  Name = 
REMARK  6 active torsions:
REMARK  status: ('A' for Active; 'I' for Inactive)
REMARK    1  A    between atoms: C_1  and  C_2
REMARK    2  A    between atoms: N_5  and  C_6
REMARK    3  A    between atoms: C_6  and  C_7
REMARK    4  A    between atoms: C_7  and  C_8
REMARK    5  A    between atoms: C_8  and  C_9
REMARK    6  A    between atoms: C_8  and  C_10
REMARK                            x       y       z     vdW  Elec       q    Type
REMARK                         _______ _______ _______ _____ _____    ______ ____
ROOT
ATOM      1  C   UNL     1       7.942   7.753  17.460  0.00  0.00    +0.000 C 
ATOM      2  C   UNL     1       6.823   6.757  17.433  0.00  0.00    +0.000 A 
ATOM      3  N   UNL     1       6.561   6.155  16.258  0.00  0.00    +0.000 NA
ATOM      4  C   UNL     1       5.543   5.269  16.165  0.00  0.00    +0.000 A 
ATOM      5  N   UNL     1       5.218   4.737  14.920  0.00  0.00    +0.000 N 
ATOM      6  C   UNL     1       4.809   4.963  17.335  0.00  0.00    +0.000 A 
ATOM      7  C   UNL     1       3.728   4.044  17.639  0.00  0.00    +0.000 A 
ATOM      8  C   UNL     1       3.280   4.194  18.940  0.00  0.00    +0.000 A 
ATOM      9  S   UNL     1       4.194   5.320  19.823  0.00  0.00    +0.000 S 
ATOM     10  C   UNL     1       5.171   5.672  18.472  0.00  0.00    +0.000 A 
ATOM     11  N   UNL     1       6.162   6.569  18.580  0.00  0.00    +0.000 NA
ATOM     12  C   UNL     1       2.149   3.433  19.566  0.00  0.00    +0.000 C 
ATOM     13  C   UNL     1       1.305   2.745  18.483  0.00  0.00    +0.000 C 
ATOM     14  C   UNL     1       2.192   2.045  17.450  0.00  0.00    +0.000 C 
ATOM     15  C   UNL     1       3.094   3.044  16.712  0.00  0.00    +0.000 C 
ATOM     16  H   UNL     1       4.555   3.981  14.974  0.00  0.00    +0.000 HD
ENDROOT
BRANCH   5  17
ATOM     17  C   UNL     1       6.316   4.501  13.995  0.00  0.00    +0.000 C 
BRANCH  17  18
ATOM     18  C   UNL     1       6.123   3.108  13.381  0.00  0.00    +0.000 C 
BRANCH  18  19
ATOM     19  C   UNL     1       5.895   3.110  11.862  0.00  0.00    +0.000 C 
ATOM     20  C   UNL     1       6.405   1.833  11.194  0.00  0.00    +0.000 C 
ATOM     21  C   UNL     1       4.401   3.280  11.569  0.00  0.00    +0.000 C 
ENDBRANCH  18  19
ENDBRANCH  17  18
ENDBRANCH   5  17
TORSDOF 3
ENDMDL
MODEL 7
REMARK VINA RESULT:      -6.3      2.737      5.364
REMARK  Name = 
REMARK  6 active torsions:
REMARK  status: ('A' for Active; 'I' for Inactive)
REMARK    1  A    between atoms: C_1  and  C_2
REMARK    2  A    between atoms: N_5  and  C_6
REMARK    3  A    between atoms: C_6  and  C_7
REMARK    4  A    between atoms: C_7  and  C_8
REMARK    5  A    between atoms: C_8  and  C_9
REMARK    6  A    between atoms: C_8  and  C_10
REMARK                            x       y       z     vdW  Elec       q    Type
REMARK                         _______ _______ _______ _____ _____    ______ ____
ROOT
ATOM      1  C   UNL     1       2.165  10.157  17.619  0.00  0.00    +0.000 C 
ATOM      2  C   UNL     1       2.257   8.834  18.316  0.00  0.00    +0.000 A 
ATOM      3  N   UNL     1       1.637   8.720  19.505  0.00  0.00    +0.000 NA
ATOM      4  C   UNL     1       1.710   7.558  20.195  0.00  0.00    +0.000 A 
ATOM      5  N   UNL     1       1.155   7.491  21.471  0.00  0.00    +0.000 N 
ATOM      6  C   UNL     1       2.405   6.473  19.613  0.00  0.00    +0.000 A 
ATOM      7  C   UNL     1       2.635   5.094  20.003  0.00  0.00    +0.000 A 
ATOM      8  C   UNL     1       3.480   4.447  19.118  0.00  0.00    +0.000 A 
ATOM      9  S   UNL     1       3.905   5.415  17.790  0.00  0.00    +0.000 S 
ATOM     10  C   UNL     1       3.014   6.736  18.394  0.00  0.00    +0.000 A 
ATOM     11  N   UNL     1       2.972   7.885  17.705  0.00  0.00    +0.000 NA
ATOM     12  C   UNL     1       3.958   3.031  19.246  0.00  0.00    +0.000 C 
ATOM     13  C   UNL     1       3.706   2.509  20.668  0.00  0.00    +0.000 C 
ATOM     14  C   UNL     1       2.295   2.865  21.147  0.00  0.00    +0.000 C 
ATOM     15  C   UNL     1       2.090   4.385  21.212  0.00  0.00    +0.000 C 
ATOM     16  H   UNL     1       1.124   6.555  21.839  0.00  0.00    +0.000 HD
ENDROOT
BRANCH   5  17
ATOM     17  C   UNL     1      -0.056   8.263  21.706  0.00  0.00    +0.000 C 
BRANCH  17  18
ATOM     18  C   UNL     1       0.264   9.335  22.756  0.00  0.00    +0.000 C 
BRANCH  18  19
ATOM     19  C   UNL     1      -0.229  10.744  22.395  0.00  0.00    +0.000 C 
ATOM     20  C   UNL     1      -0.503  10.900  20.899  0.00  0.00    +0.000 C 
ATOM     21  C   UNL     1      -1.502  11.060  23.186  0.00  0.00    +0.000 C 
ENDBRANCH  18  19
ENDBRANCH  17  18
ENDBRANCH   5  17
TORSDOF 3
ENDMDL
MODEL 8
REMARK VINA RESULT:      -6.3      2.352      5.763
REMARK  Name = 
REMARK  6 active torsions:
REMARK  status: ('A' for Active; 'I' for Inactive)
REMARK    1  A    between atoms: C_1  and  C_2
REMARK    2  A    between atoms: N_5  and  C_6
REMARK    3  A    between atoms: C_6  and  C_7
REMARK    4  A    between atoms: C_7  and  C_8
REMARK    5  A    between atoms: C_8  and  C_9
REMARK    6  A    between atoms: C_8  and  C_10
REMARK                            x       y       z     vdW  Elec       q    Type
REMARK                         _______ _______ _______ _____ _____    ______ ____
ROOT
ATOM      1  C   UNL     1       1.230   2.632  21.875  0.00  0.00    +0.000 C 
ATOM      2  C   UNL     1       1.922   3.413  20.800  0.00  0.00    +0.000 A 
ATOM      3  N   UNL     1       1.683   4.736  20.749  0.00  0.00    +0.000 NA
ATOM      4  C   UNL     1       2.257   5.489  19.781  0.00  0.00    +0.000 A 
ATOM      5  N   UNL     1       1.915   6.835  19.678  0.00  0.00    +0.000 N 
ATOM      6  C   UNL     1       3.137   4.857  18.872  0.00  0.00    +0.000 A 
ATOM      7  C   UNL     1       3.968   5.326  17.778  0.00  0.00    +0.000 A 
ATOM      8  C   UNL     1       4.585   4.278  17.119  0.00  0.00    +0.000 A 
ATOM      9  S   UNL     1       4.281   2.775  17.849  0.00  0.00    +0.000 S 
ATOM     10  C   UNL     1       3.275   3.485  19.026  0.00  0.00    +0.000 A 
ATOM     11  N   UNL     1       2.700   2.719  19.964  0.00  0.00    +0.000 NA
ATOM     12  C   UNL     1       5.475   4.405  15.919  0.00  0.00    +0.000 C 
ATOM     13  C   UNL     1       5.315   5.793  15.280  0.00  0.00    +0.000 C 
ATOM     14  C   UNL     1       5.332   6.897  16.341  0.00  0.00    +0.000 C 
ATOM     15  C   UNL     1       4.165   6.747  17.329  0.00  0.00    +0.000 C 
ATOM     16  H   UNL     1       2.500   7.341  19.033  0.00  0.00    +0.000 HD
ENDROOT
BRANCH   5  17
ATOM     17  C   UNL     1       1.642   7.545  20.918  0.00  0.00    +0.000 C 
BRANCH  17  18
ATOM     18  C   UNL     1       1.609   9.047  20.604  0.00  0.00    +0.000 C 
BRANCH  18  19
ATOM     19  C   UNL     1       0.509   9.464  19.616  0.00  0.00    +0.000 C 
ATOM     20  C   UNL     1      -0.445  10.500  20.210  0.00  0.00    +0.000 C 
ATOM     21  C   UNL     1       1.150  10.027  18.343  0.00  0.00    +0.000 C 
ENDBRANCH  18  19
ENDBRANCH  17  18
ENDBRANCH   5  17
TORSDOF 3
ENDMDL
MODEL 9
REMARK VINA RESULT:      -6.2      8.207     10.900
REMARK  Name = 
REMARK  6 active torsions:
REMARK  status: ('A' for Active; 'I' for Inactive)
REMARK    1  A    between atoms: C_1  and  C_2
REMARK    2  A    between atoms: N_5  and  C_6
REMARK    3  A    between atoms: C_6  and  C_7
REMARK    4  A    between atoms: C_7  and  C_8
REMARK    5  A    between atoms: C_8  and  C_9
REMARK    6  A    between atoms: C_8  and  C_10
REMARK                            x       y       z     vdW  Elec       q    Type
REMARK                         _______ _______ _______ _____ _____    ______ ____
ROOT
ATOM      1  C   UNL     1      -3.386  10.000  14.387  0.00  0.00    +0.000 C 
ATOM      2  C   UNL     1      -3.233  10.549  15.773  0.00  0.00    +0.000 A 
ATOM      3  N   UNL     1      -4.269  11.245  16.278  0.00  0.00    +0.000 NA
ATOM      4  C   UNL     1      -4.177  11.790  17.513  0.00  0.00    +0.000 A 
ATOM      5  N   UNL     1      -5.214  12.596  17.976  0.00  0.00    +0.000 N 
ATOM      6  C   UNL     1      -2.998  11.566  18.261  0.00  0.00    +0.000 A 
ATOM      7  C   UNL     1      -2.570  11.917  19.602  0.00  0.00    +0.000 A 
ATOM      8  C   UNL     1      -1.258  11.542  19.835  0.00  0.00    +0.000 A 
ATOM      9  S   UNL     1      -0.579  10.689  18.533  0.00  0.00    +0.000 S 
ATOM     10  C   UNL     1      -2.003  10.850  17.611  0.00  0.00    +0.000 A 
ATOM     11  N   UNL     1      -2.065  10.320  16.381  0.00  0.00    +0.000 NA
ATOM     12  C   UNL     1      -0.491  11.792  21.099  0.00  0.00    +0.000 C 
ATOM     13  C   UNL     1      -1.206  12.846  21.958  0.00  0.00    +0.000 C 
ATOM     14  C   UNL     1      -2.709  12.564  22.043  0.00  0.00    +0.000 C 
ATOM     15  C   UNL     1      -3.372  12.625  20.659  0.00  0.00    +0.000 C 
ATOM     16  H   UNL     1      -5.126  12.829  18.952  0.00  0.00    +0.000 HD
ENDROOT
BRANCH   5  17
ATOM     17  C   UNL     1      -6.564  12.237  17.569  0.00  0.00    +0.000 C 
BRANCH  17  18
ATOM     18  C   UNL     1      -7.431  12.153  18.832  0.00  0.00    +0.000 C 
BRANCH  18  19
ATOM     19  C   UNL     1      -6.763  11.433  20.013  0.00  0.00    +0.000 C 
ATOM     20  C   UNL     1      -6.989  12.156  21.341  0.00  0.00    +0.000 C 
ATOM     21  C   UNL     1      -7.300  10.001  20.111  0.00  0.00    +0.000 C 
ENDBRANCH  18  19
ENDBRANCH  17  18
ENDBRANCH   5  17
TORSDOF 3
ENDMDL
