MODEL 1
REMARK VINA RESULT:      -7.6      0.000      0.000
REMARK  Name = 
REMARK  2 active torsions:
REMARK  status: ('A' for Active; 'I' for Inactive)
REMARK    1  A    between atoms: C_4  and  C_5
REMARK    2  A    between atoms: C_8  and  C_9
REMARK                            x       y       z     vdW  Elec       q    Type
REMARK                         _______ _______ _______ _____ _____    ______ ____
ROOT
ATOM      1  C   UNL     1       5.134   4.369  17.434  0.00  0.00    +0.000 C 
ATOM      2  O   UNL     1       4.228   5.390  17.022  0.00  0.00    +0.000 OA
ATOM      3  O   UNL     1       2.889   5.026  17.492  0.00  0.00    +0.000 OA
ATOM      4  C   UNL     1       2.785   5.456  18.864  0.00  0.00    +0.000 C 
ATOM      5  C   UNL     1       3.839   4.733  19.669  0.00  0.00    +0.000 C 
ATOM      6  O   UNL     1       5.141   5.314  19.756  0.00  0.00    +0.000 OA
ATOM      7  C   UNL     1       5.038   4.157  18.926  0.00  0.00    +0.000 C 
ENDROOT
BRANCH   1  11
ATOM      8  C   UNL     1       7.831   7.106  18.218  0.00  0.00    +0.000 C 
ATOM      9  C   UNL     1       6.703   7.234  17.208  0.00  0.00    +0.000 C 
ATOM     10  C   UNL     1       6.670   6.052  16.239  0.00  0.00    +0.000 C 
ATOM     11  C   UNL     1       6.577   4.669  16.925  0.00  0.00    +0.000 C 
ATOM     12  C   UNL     1       7.729   4.559  17.943  0.00  0.00    +0.000 C 
ATOM     13  C   UNL     1       7.899   5.746  18.887  0.00  0.00    +0.000 C 
ENDBRANCH   1  11
BRANCH   4  14
ATOM     14  C   UNL     1       2.684   7.006  19.048  0.00  0.00    +0.000 C 
ATOM     15  C   UNL     1       1.747   7.361  20.226  0.00  0.00    +0.000 C 
ATOM     16  C   UNL     1       1.484   8.867  20.368  0.00  0.00    +0.000 C 
ATOM     17  C   UNL     1       0.989   9.505  19.071  0.00  0.00    +0.000 C 
ATOM     18  C   UNL     1       1.978   9.236  17.955  0.00  0.00    +0.000 C 
ATOM     19  C   UNL     1       2.169   7.737  17.805  0.00  0.00    +0.000 C 
ENDBRANCH   4  14
TORSDOF 2
ENDMDL
MODEL 2
REMARK VINA RESULT:      -7.5      3.039      6.209
REMARK  Name = 
REMARK  2 active torsions:
REMARK  status: ('A' for Active; 'I' for Inactive)
REMARK    1  A    between atoms: C_4  and  C_5
REMARK    2  A    between atoms: C_8  and  C_9
REMARK                            x       y       z     vdW  Elec       q    Type
REMARK                         _______ _______ _______ _____ _____    ______ ____
ROOT
ATOM      1  C   UNL     1       4.206   4.224  18.296  0.00  0.00    +0.000 C 
ATOM      2  O   UNL     1       4.104   4.230  16.875  0.00  0.00    +0.000 OA
ATOM      3  O   UNL     1       4.465   5.569  16.400  0.00  0.00    +0.000 OA
ATOM      4  C   UNL     1       5.904   5.621  16.320  0.00  0.00    +0.000 C 
ATOM      5  C   UNL     1       6.464   5.386  17.703  0.00  0.00    +0.000 C 
ATOM      6  O   UNL     1       6.700   4.039  18.117  0.00  0.00    +0.000 OA
ATOM      7  C   UNL     1       5.579   4.683  18.724  0.00  0.00    +0.000 C 
ENDROOT
BRANCH   1  11
ATOM      8  C   UNL     1       1.027   2.832  20.124  0.00  0.00    +0.000 C 
ATOM      9  C   UNL     1       2.199   3.533  20.790  0.00  0.00    +0.000 C 
ATOM     10  C   UNL     1       3.536   2.902  20.400  0.00  0.00    +0.000 C 
ATOM     11  C   UNL     1       3.788   2.837  18.876  0.00  0.00    +0.000 C 
ATOM     12  C   UNL     1       2.590   2.122  18.220  0.00  0.00    +0.000 C 
ATOM     13  C   UNL     1       1.209   2.623  18.633  0.00  0.00    +0.000 C 
ENDBRANCH   1  11
BRANCH   4  14
ATOM     14  C   UNL     1       6.516   4.784  15.149  0.00  0.00    +0.000 C 
ATOM     15  C   UNL     1       7.483   5.645  14.303  0.00  0.00    +0.000 C 
ATOM     16  C   UNL     1       8.004   4.930  13.049  0.00  0.00    +0.000 C 
ATOM     17  C   UNL     1       6.880   4.367  12.180  0.00  0.00    +0.000 C 
ATOM     18  C   UNL     1       6.009   3.440  13.003  0.00  0.00    +0.000 C 
ATOM     19  C   UNL     1       5.465   4.197  14.202  0.00  0.00    +0.000 C 
ENDBRANCH   4  14
TORSDOF 2
ENDMDL
MODEL 3
REMARK VINA RESULT:      -7.4      2.375      6.225
REMARK  Name = 
REMARK  2 active torsions:
REMARK  status: ('A' for Active; 'I' for Inactive)
REMARK    1  A    between atoms: C_4  and  C_5
REMARK    2  A    between atoms: C_8  and  C_9
REMARK                            x       y       z     vdW  Elec       q    Type
REMARK                         _______ _______ _______ _____ _____    ______ ____
ROOT
ATOM      1  C   UNL     1       4.359   5.963  17.714  0.00  0.00    +0.000 C 
ATOM      2  O   UNL     1       4.833   6.617  16.540  0.00  0.00    +0.000 OA
ATOM      3  O   UNL     1       6.296   6.556  16.544  0.00  0.00    +0.000 OA
ATOM      4  C   UNL     1       6.672   5.272  16.008  0.00  0.00    +0.000 C 
ATOM      5  C   UNL     1       6.099   4.198  16.902  0.00  0.00    +0.000 C 
ATOM      6  O   UNL     1       4.772   3.736  16.639  0.00  0.00    +0.000 OA
ATOM      7  C   UNL     1       4.919   4.563  17.794  0.00  0.00    +0.000 C 
ENDROOT
BRANCH   1  11
ATOM      8  C   UNL     1       1.765   6.449  20.615  0.00  0.00    +0.000 C 
ATOM      9  C   UNL     1       2.373   5.126  20.179  0.00  0.00    +0.000 C 
ATOM     10  C   UNL     1       2.223   4.899  18.675  0.00  0.00    +0.000 C 
ATOM     11  C   UNL     1       2.803   6.032  17.799  0.00  0.00    +0.000 C 
ATOM     12  C   UNL     1       2.172   7.363  18.255  0.00  0.00    +0.000 C 
ATOM     13  C   UNL     1       2.188   7.626  19.758  0.00  0.00    +0.000 C 
ENDBRANCH   1  11
BRANCH   4  14
ATOM     14  C   UNL     1       6.436   5.122  14.469  0.00  0.00    +0.000 C 
ATOM     15  C   UNL     1       5.851   3.730  14.134  0.00  0.00    +0.000 C 
ATOM     16  C   UNL     1       5.735   3.459  12.628  0.00  0.00    +0.000 C 
ATOM     17  C   UNL     1       7.050   3.687  11.884  0.00  0.00    +0.000 C 
ATOM     18  C   UNL     1       7.549   5.094  12.139  0.00  0.00    +0.000 C 
ATOM     19  C   UNL     1       7.707   5.307  13.635  0.00  0.00    +0.000 C 
ENDBRANCH   4  14
TORSDOF 2
ENDMDL
MODEL 4
REMARK VINA RESULT:      -7.3      2.090      4.396
REMARK  Name = 
REMARK  2 active torsions:
REMARK  status: ('A' for Active; 'I' for Inactive)
REMARK    1  A    between atoms: C_4  and  C_5
REMARK    2  A    between atoms: C_8  and  C_9
REMARK                            x       y       z     vdW  Elec       q    Type
REMARK                         _______ _______ _______ _____ _____    ______ ____
ROOT
ATOM      1  C   UNL     1       4.288   3.558  19.111  0.00  0.00    +0.000 C 
ATOM      2  O   UNL     1       3.869   4.711  19.838  0.00  0.00    +0.000 OA
ATOM      3  O   UNL     1       4.648   5.856  19.362  0.00  0.00    +0.000 OA
ATOM      4  C   UNL     1       4.003   6.346  18.169  0.00  0.00    +0.000 C 
ATOM      5  C   UNL     1       4.009   5.242  17.139  0.00  0.00    +0.000 C 
ATOM      6  O   UNL     1       2.929   4.307  17.142  0.00  0.00    +0.000 OA
ATOM      7  C   UNL     1       4.176   3.808  17.626  0.00  0.00    +0.000 C 
ENDROOT
BRANCH   1  11
ATOM      8  C   UNL     1       0.912   2.905  20.998  0.00  0.00    +0.000 C 
ATOM      9  C   UNL     1       2.252   3.203  21.651  0.00  0.00    +0.000 C 
ATOM     10  C   UNL     1       3.354   2.277  21.137  0.00  0.00    +0.000 C 
ATOM     11  C   UNL     1       3.530   2.286  19.602  0.00  0.00    +0.000 C 
ATOM     12  C   UNL     1       2.162   1.980  18.960  0.00  0.00    +0.000 C 
ATOM     13  C   UNL     1       0.983   2.792  19.487  0.00  0.00    +0.000 C 
ENDBRANCH   1  11
BRANCH   4  14
ATOM     14  C   UNL     1       2.644   7.077  18.425  0.00  0.00    +0.000 C 
ATOM     15  C   UNL     1       2.589   8.422  17.662  0.00  0.00    +0.000 C 
ATOM     16  C   UNL     1       1.346   9.261  17.987  0.00  0.00    +0.000 C 
ATOM     17  C   UNL     1       1.158   9.482  19.487  0.00  0.00    +0.000 C 
ATOM     18  C   UNL     1       1.105   8.147  20.201  0.00  0.00    +0.000 C 
ATOM     19  C   UNL     1       2.374   7.368  19.904  0.00  0.00    +0.000 C 
ENDBRANCH   4  14
TORSDOF 2
ENDMDL
MODEL 5
REMARK VINA RESULT:      -7.2      3.610      5.240
REMARK  Name = 
REMARK  2 active torsions:
REMARK  status: ('A' for Active; 'I' for Inactive)
REMARK    1  A    between atoms: C_4  and  C_5
REMARK    2  A    between atoms: C_8  and  C_9
REMARK                            x       y       z     vdW  Elec       q    Type
REMARK                         _______ _______ _______ _____ _____    ______ ____
ROOT
ATOM      1  C   UNL     1       6.472   3.880  14.040  0.00  0.00    +0.000 C 
ATOM      2  O   UNL     1       5.333   3.385  14.740  0.00  0.00    +0.000 OA
ATOM      3  O   UNL     1       5.723   3.148  16.132  0.00  0.00    +0.000 OA
ATOM      4  C   UNL     1       5.628   4.410  16.824  0.00  0.00    +0.000 C 
ATOM      5  C   UNL     1       6.580   5.383  16.170  0.00  0.00    +0.000 C 
ATOM      6  O   UNL     1       6.110   6.144  15.056  0.00  0.00    +0.000 OA
ATOM      7  C   UNL     1       7.028   5.096  14.742  0.00  0.00    +0.000 C 
ENDROOT
BRANCH   1  11
ATOM      8  C   UNL     1       6.586   1.658  10.811  0.00  0.00    +0.000 C 
ATOM      9  C   UNL     1       7.750   2.446  11.389  0.00  0.00    +0.000 C 
ATOM     10  C   UNL     1       7.381   3.909  11.634  0.00  0.00    +0.000 C 
ATOM     11  C   UNL     1       6.141   4.111  12.534  0.00  0.00    +0.000 C 
ATOM     12  C   UNL     1       4.973   3.307  11.930  0.00  0.00    +0.000 C 
ATOM     13  C   UNL     1       5.282   1.859  11.560  0.00  0.00    +0.000 C 
ENDBRANCH   1  11
BRANCH   4  14
ATOM     14  C   UNL     1       4.163   4.900  17.071  0.00  0.00    +0.000 C 
ATOM     15  C   UNL     1       4.130   6.028  18.129  0.00  0.00    +0.000 C 
ATOM     16  C   UNL     1       2.711   6.453  18.530  0.00  0.00    +0.000 C 
ATOM     17  C   UNL     1       1.843   5.274  18.968  0.00  0.00    +0.000 C 
ATOM     18  C   UNL     1       1.801   4.229  17.871  0.00  0.00    +0.000 C 
ATOM     19  C   UNL     1       3.218   3.791  17.541  0.00  0.00    +0.000 C 
ENDBRANCH   4  14
TORSDOF 2
ENDMDL
MODEL 6
REMARK VINA RESULT:      -7.2      2.754      5.622
REMARK  Name = 
REMARK  2 active torsions:
REMARK  status: ('A' for Active; 'I' for Inactive)
REMARK    1  A    between atoms: C_4  and  C_5
REMARK    2  A    between atoms: C_8  and  C_9
REMARK                            x       y       z     vdW  Elec       q    Type
REMARK                         _______ _______ _______ _____ _____    ______ ____
ROOT
ATOM      1  C   UNL     1       4.176   4.611  19.413  0.00  0.00    +0.000 C 
ATOM      2  O   UNL     1       3.689   5.024  18.139  0.00  0.00    +0.000 OA
ATOM      3  O   UNL     1       4.076   6.423  17.936  0.00  0.00    +0.000 OA
ATOM      4  C   UNL     1       5.431   6.424  17.443  0.00  0.00    +0.000 C 
ATOM      5  C   UNL     1       6.316   5.779  18.484  0.00  0.00    +0.000 C 
ATOM      6  O   UNL     1       6.477   4.361  18.449  0.00  0.00    +0.000 OA
ATOM      7  C   UNL     1       5.662   4.861  19.509  0.00  0.00    +0.000 C 
ENDROOT
BRANCH   1  11
ATOM      8  C   UNL     1       0.885   2.524  18.972  0.00  0.00    +0.000 C 
ATOM      9  C   UNL     1       1.227   3.403  20.164  0.00  0.00    +0.000 C 
ATOM     10  C   UNL     1       2.603   3.070  20.742  0.00  0.00    +0.000 C 
ATOM     11  C   UNL     1       3.758   3.140  19.717  0.00  0.00    +0.000 C 
ATOM     12  C   UNL     1       3.392   2.241  18.519  0.00  0.00    +0.000 C 
ATOM     13  C   UNL     1       1.994   2.437  17.941  0.00  0.00    +0.000 C 
ENDBRANCH   1  11
BRANCH   4  14
ATOM     14  C   UNL     1       5.581   5.923  15.968  0.00  0.00    +0.000 C 
ATOM     15  C   UNL     1       4.746   4.642  15.733  0.00  0.00    +0.000 C 
ATOM     16  C   UNL     1       4.964   4.012  14.351  0.00  0.00    +0.000 C 
ATOM     17  C   UNL     1       6.440   3.760  14.043  0.00  0.00    +0.000 C 
ATOM     18  C   UNL     1       7.220   5.052  14.174  0.00  0.00    +0.000 C 
ATOM     19  C   UNL     1       7.027   5.616  15.570  0.00  0.00    +0.000 C 
ENDBRANCH   4  14
TORSDOF 2
ENDMDL
MODEL 7
REMARK VINA RESULT:      -7.1      2.199      5.425
REMARK  Name = 
REMARK  2 active torsions:
REMARK  status: ('A' for Active; 'I' for Inactive)
REMARK    1  A    between atoms: C_4  and  C_5
REMARK    2  A    between atoms: C_8  and  C_9
REMARK                            x       y       z     vdW  Elec       q    Type
REMARK                         _______ _______ _______ _____ _____    ______ ____
ROOT
ATOM      1  C   UNL     1       3.799   3.504  17.979  0.00  0.00    +0.000 C 
ATOM      2  O   UNL     1       4.501   4.221  18.991  0.00  0.00    +0.000 OA
ATOM      3  O   UNL     1       5.902   3.794  18.963  0.00  0.00    +0.000 OA
ATOM      4  C   UNL     1       6.561   4.558  17.934  0.00  0.00    +0.000 C 
ATOM      5  C   UNL     1       5.893   4.253  16.614  0.00  0.00    +0.000 C 
ATOM      6  O   UNL     1       4.757   5.032  16.236  0.00  0.00    +0.000 OA
ATOM      7  C   UNL     1       4.476   3.692  16.642  0.00  0.00    +0.000 C 
ENDROOT
BRANCH   1  11
ATOM      8  C   UNL     1       1.032   3.806  20.741  0.00  0.00    +0.000 C 
ATOM      9  C   UNL     1       1.426   2.531  20.013  0.00  0.00    +0.000 C 
ATOM     10  C   UNL     1       1.407   2.712  18.496  0.00  0.00    +0.000 C 
ATOM     11  C   UNL     1       2.285   3.877  17.983  0.00  0.00    +0.000 C 
ATOM     12  C   UNL     1       1.868   5.159  18.730  0.00  0.00    +0.000 C 
ATOM     13  C   UNL     1       1.763   5.040  20.248  0.00  0.00    +0.000 C 
ENDBRANCH   1  11
BRANCH   4  14
ATOM     14  C   UNL     1       6.783   6.064  18.291  0.00  0.00    +0.000 C 
ATOM     15  C   UNL     1       6.498   6.969  17.070  0.00  0.00    +0.000 C 
ATOM     16  C   UNL     1       6.840   8.446  17.306  0.00  0.00    +0.000 C 
ATOM     17  C   UNL     1       8.270   8.648  17.807  0.00  0.00    +0.000 C 
ATOM     18  C   UNL     1       8.493   7.837  19.067  0.00  0.00    +0.000 C 
ATOM     19  C   UNL     1       8.201   6.374  18.780  0.00  0.00    +0.000 C 
ENDBRANCH   4  14
TORSDOF 2
ENDMDL
MODEL 8
REMARK VINA RESULT:      -7.0      2.139      5.254
REMARK  Name = 
REMARK  2 active torsions:
REMARK  status: ('A' for Active; 'I' for Inactive)
REMARK    1  A    between atoms: C_4  and  C_5
REMARK    2  A    between atoms: C_8  and  C_9
REMARK                            x       y       z     vdW  Elec       q    Type
REMARK                         _______ _______ _______ _____ _____    ______ ____
ROOT
ATOM      1  C   UNL     1       2.625   3.479  17.439  0.00  0.00    +0.000 C 
ATOM      2  O   UNL     1       4.021   3.708  17.269  0.00  0.00    +0.000 OA
ATOM      3  O   UNL     1       4.188   4.848  16.363  0.00  0.00    +0.000 OA
ATOM      4  C   UNL     1       4.065   6.046  17.155  0.00  0.00    +0.000 C 
ATOM      5  C   UNL     1       2.688   6.065  17.775  0.00  0.00    +0.000 C 
ATOM      6  O   UNL     1       2.503   5.412  19.032  0.00  0.00    +0.000 OA
ATOM      7  C   UNL     1       1.941   4.744  17.902  0.00  0.00    +0.000 C 
ENDROOT
BRANCH   1  11
ATOM      8  C   UNL     1       2.338   2.927  21.311  0.00  0.00    +0.000 C 
ATOM      9  C   UNL     1       3.628   2.935  20.507  0.00  0.00    +0.000 C 
ATOM     10  C   UNL     1       3.561   1.985  19.312  0.00  0.00    +0.000 C 
ATOM     11  C   UNL     1       2.372   2.245  18.358  0.00  0.00    +0.000 C 
ATOM     12  C   UNL     1       1.075   2.231  19.191  0.00  0.00    +0.000 C 
ATOM     13  C   UNL     1       1.090   3.076  20.461  0.00  0.00    +0.000 C 
ENDBRANCH   1  11
BRANCH   4  14
ATOM     14  C   UNL     1       5.279   6.320  18.102  0.00  0.00    +0.000 C 
ATOM     15  C   UNL     1       6.455   6.953  17.322  0.00  0.00    +0.000 C 
ATOM     16  C   UNL     1       7.733   7.111  18.158  0.00  0.00    +0.000 C 
ATOM     17  C   UNL     1       8.166   5.807  18.826  0.00  0.00    +0.000 C 
ATOM     18  C   UNL     1       7.034   5.262  19.673  0.00  0.00    +0.000 C 
ATOM     19  C   UNL     1       5.806   5.064  18.802  0.00  0.00    +0.000 C 
ENDBRANCH   4  14
TORSDOF 2
ENDMDL
MODEL 9
REMARK VINA RESULT:      -7.0      2.336      5.888
REMARK  Name = 
REMARK  2 active torsions:
REMARK  status: ('A' for Active; 'I' for Inactive)
REMARK    1  A    between atoms: C_4  and  C_5
REMARK    2  A    between atoms: C_8  and  C_9
REMARK                            x       y       z     vdW  Elec       q    Type
REMARK                         _______ _______ _______ _____ _____    ______ ____
ROOT
ATOM      1  C   UNL     1       5.057   5.714  18.484  0.00  0.00    +0.000 C 
ATOM      2  O   UNL     1       4.758   5.652  17.092  0.00  0.00    +0.000 OA
ATOM      3  O   UNL     1       5.625   6.607  16.398  0.00  0.00    +0.000 OA
ATOM      4  C   UNL     1       6.891   5.954  16.178  0.00  0.00    +0.000 C 
ATOM      5  C   UNL     1       7.478   5.592  17.522  0.00  0.00    +0.000 C 
ATOM      6  O   UNL     1       7.117   4.337  18.102  0.00  0.00    +0.000 OA
ATOM      7  C   UNL     1       6.532   5.488  18.712  0.00  0.00    +0.000 C 
ENDROOT
BRANCH   1  11
ATOM      8  C   UNL     1       2.146   3.251  17.569  0.00  0.00    +0.000 C 
ATOM      9  C   UNL     1       1.998   4.739  17.841  0.00  0.00    +0.000 C 
ATOM     10  C   UNL     1       2.643   5.142  19.167  0.00  0.00    +0.000 C 
ATOM     11  C   UNL     1       4.134   4.752  19.294  0.00  0.00    +0.000 C 
ATOM     12  C   UNL     1       4.261   3.241  19.017  0.00  0.00    +0.000 C 
ATOM     13  C   UNL     1       3.558   2.733  17.761  0.00  0.00    +0.000 C 
ENDBRANCH   1  11
BRANCH   4  14
ATOM     14  C   UNL     1       6.858   4.833  15.087  0.00  0.00    +0.000 C 
ATOM     15  C   UNL     1       7.585   5.292  13.802  0.00  0.00    +0.000 C 
ATOM     16  C   UNL     1       7.462   4.300  12.638  0.00  0.00    +0.000 C 
ATOM     17  C   UNL     1       6.012   3.924  12.335  0.00  0.00    +0.000 C 
ATOM     18  C   UNL     1       5.351   3.374  13.582  0.00  0.00    +0.000 C 
ATOM     19  C   UNL     1       5.441   4.404  14.694  0.00  0.00    +0.000 C 
ENDBRANCH   4  14
TORSDOF 2
ENDMDL
