MODEL 1
REMARK VINA RESULT:      -6.3      0.000      0.000
REMARK  Name = 
REMARK  11 active torsions:
REMARK  status: ('A' for Active; 'I' for Inactive)
REMARK    1  A    between atoms: C_1  and  O_2
REMARK    2  A    between atoms: O_2  and  C_3
REMARK    3  A    between atoms: C_3  and  C_4
REMARK    4  A    between atoms: C_4  and  N_5
REMARK    5  A    between atoms: N_5  and  C_6
REMARK    6  A    between atoms: C_6  and  C_7
REMARK    7  A    between atoms: C_7  and  O_8
REMARK    8  A    between atoms: O_8  and  C_9
REMARK    9  A    between atoms: N_14  and  N_15
REMARK   10  A    between atoms: C_16  and  C_17
REMARK   11  A    between atoms: C_20  and  C_21
REMARK                            x       y       z     vdW  Elec       q    Type
REMARK                         _______ _______ _______ _____ _____    ______ ____
ROOT
ATOM      1  N   UNL     1       0.300  10.380  19.568  0.00  0.00    +0.000 N 
ATOM      2  C   UNL     1       1.208   9.347  19.190  0.00  0.00    +0.000 A 
ATOM      3  C   UNL     1       1.719   9.338  17.899  0.00  0.00    +0.000 A 
ATOM      4  C   UNL     1       2.571   8.317  17.482  0.00  0.00    +0.000 A 
ATOM      5  C   UNL     1       2.895   7.289  18.356  0.00  0.00    +0.000 A 
ATOM      6  N   UNL     1       3.515   6.144  17.817  0.00  0.00    +0.000 N 
ATOM      7  N   UNL     1       2.436   7.340  19.621  0.00  0.00    +0.000 NA
ATOM      8  N   UNL     1       1.601   8.374  20.041  0.00  0.00    +0.000 NA
ATOM      9  H   UNL     1       4.333   6.363  17.269  0.00  0.00    +0.000 HD
ENDROOT
BRANCH   6  10
ATOM     10  N   UNL     1       3.603   4.937  18.477  0.00  0.00    +0.000 N 
ATOM     11  C   UNL     1       2.672   3.917  18.415  0.00  0.00    +0.000 A 
ATOM     12  C   UNL     1       1.353   4.033  17.735  0.00  0.00    +0.000 C 
ATOM     13  C   UNL     1       3.180   2.831  19.101  0.00  0.00    +0.000 A 
ATOM     14  C   UNL     1       4.476   3.171  19.538  0.00  0.00    +0.000 A 
ATOM     15  C   UNL     1       4.732   4.465  19.122  0.00  0.00    +0.000 A 
ATOM     16  C   UNL     1       5.986   5.247  19.280  0.00  0.00    +0.000 C 
ENDBRANCH   6  10
BRANCH   1  17
ATOM     17  C   UNL     1      -0.554   9.952  20.704  0.00  0.00    +0.000 C 
BRANCH  17  18
ATOM     18  C   UNL     1      -0.793  11.079  21.731  0.00  0.00    +0.000 C 
BRANCH  18  20
ATOM     19  C   UNL     1      -0.052   9.482  23.308  0.00  0.00    +0.000 C 
ATOM     20  O   UNL     1      -0.033  10.850  22.925  0.00  0.00    +0.000 OA
ENDBRANCH  18  20
ENDBRANCH  17  18
ENDBRANCH   1  17
BRANCH   1  21
ATOM     21  C   UNL     1       1.072  11.643  19.677  0.00  0.00    +0.000 C 
BRANCH  21  22
ATOM     22  C   UNL     1       0.598  12.818  18.808  0.00  0.00    +0.000 C 
BRANCH  22  23
ATOM     23  O   UNL     1       0.373  14.039  19.520  0.00  0.00    +0.000 OA
ATOM     24  C   UNL     1       1.011  15.167  18.931  0.00  0.00    +0.000 C 
ENDBRANCH  22  23
ENDBRANCH  21  22
ENDBRANCH   1  21
TORSDOF 7
ENDMDL
MODEL 2
REMARK VINA RESULT:      -6.2      0.872      1.969
REMARK  Name = 
REMARK  11 active torsions:
REMARK  status: ('A' for Active; 'I' for Inactive)
REMARK    1  A    between atoms: C_1  and  O_2
REMARK    2  A    between atoms: O_2  and  C_3
REMARK    3  A    between atoms: C_3  and  C_4
REMARK    4  A    between atoms: C_4  and  N_5
REMARK    5  A    between atoms: N_5  and  C_6
REMARK    6  A    between atoms: C_6  and  C_7
REMARK    7  A    between atoms: C_7  and  O_8
REMARK    8  A    between atoms: O_8  and  C_9
REMARK    9  A    between atoms: N_14  and  N_15
REMARK   10  A    between atoms: C_16  and  C_17
REMARK   11  A    between atoms: C_20  and  C_21
REMARK                            x       y       z     vdW  Elec       q    Type
REMARK                         _______ _______ _______ _____ _____    ______ ____
ROOT
ATOM      1  N   UNL     1       0.339  10.014  20.052  0.00  0.00    +0.000 N 
ATOM      2  C   UNL     1       1.239   9.047  19.515  0.00  0.00    +0.000 A 
ATOM      3  C   UNL     1       1.620   9.148  18.184  0.00  0.00    +0.000 A 
ATOM      4  C   UNL     1       2.460   8.193  17.613  0.00  0.00    +0.000 A 
ATOM      5  C   UNL     1       2.903   7.121  18.376  0.00  0.00    +0.000 A 
ATOM      6  N   UNL     1       3.504   6.043  17.697  0.00  0.00    +0.000 N 
ATOM      7  N   UNL     1       2.570   7.066  19.679  0.00  0.00    +0.000 NA
ATOM      8  N   UNL     1       1.746   8.034  20.251  0.00  0.00    +0.000 NA
ATOM      9  H   UNL     1       4.257   6.331  17.091  0.00  0.00    +0.000 HD
ENDROOT
BRANCH   6  10
ATOM     10  N   UNL     1       3.698   4.798  18.256  0.00  0.00    +0.000 N 
ATOM     11  C   UNL     1       4.804   4.410  18.990  0.00  0.00    +0.000 A 
ATOM     12  C   UNL     1       6.025   5.244  19.163  0.00  0.00    +0.000 C 
ATOM     13  C   UNL     1       4.567   3.142  19.485  0.00  0.00    +0.000 A 
ATOM     14  C   UNL     1       3.263   2.771  19.099  0.00  0.00    +0.000 A 
ATOM     15  C   UNL     1       2.731   3.814  18.363  0.00  0.00    +0.000 A 
ATOM     16  C   UNL     1       1.363   3.931  17.795  0.00  0.00    +0.000 C 
ENDBRANCH   6  10
BRANCH   1  17
ATOM     17  C   UNL     1      -0.385   9.474  21.231  0.00  0.00    +0.000 C 
BRANCH  17  18
ATOM     18  C   UNL     1       0.319   9.800  22.565  0.00  0.00    +0.000 C 
BRANCH  18  20
ATOM     19  C   UNL     1      -1.414  11.357  22.963  0.00  0.00    +0.000 C 
ATOM     20  O   UNL     1      -0.614  10.323  23.520  0.00  0.00    +0.000 OA
ENDBRANCH  18  20
ENDBRANCH  17  18
ENDBRANCH   1  17
BRANCH   1  21
ATOM     21  C   UNL     1       1.075  11.296  20.178  0.00  0.00    +0.000 C 
BRANCH  21  22
ATOM     22  C   UNL     1       0.496  12.500  19.420  0.00  0.00    +0.000 C 
BRANCH  22  23
ATOM     23  O   UNL     1      -0.916  12.682  19.568  0.00  0.00    +0.000 OA
ATOM     24  C   UNL     1      -1.269  13.910  20.195  0.00  0.00    +0.000 C 
ENDBRANCH  22  23
ENDBRANCH  21  22
ENDBRANCH   1  21
TORSDOF 7
ENDMDL
MODEL 3
REMARK VINA RESULT:      -6.1      1.011      1.329
REMARK  Name = 
REMARK  11 active torsions:
REMARK  status: ('A' for Active; 'I' for Inactive)
REMARK    1  A    between atoms: C_1  and  O_2
REMARK    2  A    between atoms: O_2  and  C_3
REMARK    3  A    between atoms: C_3  and  C_4
REMARK    4  A    between atoms: C_4  and  N_5
REMARK    5  A    between atoms: N_5  and  C_6
REMARK    6  A    between atoms: C_6  and  C_7
REMARK    7  A    between atoms: C_7  and  O_8
REMARK    8  A    between atoms: O_8  and  C_9
REMARK    9  A    between atoms: N_14  and  N_15
REMARK   10  A    between atoms: C_16  and  C_17
REMARK   11  A    between atoms: C_20  and  C_21
REMARK                            x       y       z     vdW  Elec       q    Type
REMARK                         _______ _______ _______ _____ _____    ______ ____
ROOT
ATOM      1  N   UNL     1       0.253  10.148  20.073  0.00  0.00    +0.000 N 
ATOM      2  C   UNL     1       1.144   9.155  19.569  0.00  0.00    +0.000 A 
ATOM      3  C   UNL     1       1.502   9.189  18.229  0.00  0.00    +0.000 A 
ATOM      4  C   UNL     1       2.333   8.206  17.692  0.00  0.00    +0.000 A 
ATOM      5  C   UNL     1       2.788   7.173  18.499  0.00  0.00    +0.000 A 
ATOM      6  N   UNL     1       3.377   6.061  17.865  0.00  0.00    +0.000 N 
ATOM      7  N   UNL     1       2.476   7.183  19.809  0.00  0.00    +0.000 NA
ATOM      8  N   UNL     1       1.662   8.178  20.346  0.00  0.00    +0.000 NA
ATOM      9  H   UNL     1       4.120   6.318  17.233  0.00  0.00    +0.000 HD
ENDROOT
BRANCH   6  10
ATOM     10  N   UNL     1       3.579   4.845  18.481  0.00  0.00    +0.000 N 
ATOM     11  C   UNL     1       2.717   3.765  18.430  0.00  0.00    +0.000 A 
ATOM     12  C   UNL     1       1.362   3.808  17.817  0.00  0.00    +0.000 C 
ATOM     13  C   UNL     1       3.330   2.698  19.058  0.00  0.00    +0.000 A 
ATOM     14  C   UNL     1       4.620   3.114  19.444  0.00  0.00    +0.000 A 
ATOM     15  C   UNL     1       4.768   4.434  19.058  0.00  0.00    +0.000 A 
ATOM     16  C   UNL     1       5.972   5.295  19.182  0.00  0.00    +0.000 C 
ENDBRANCH   6  10
BRANCH   1  17
ATOM     17  C   UNL     1      -0.451   9.668  21.289  0.00  0.00    +0.000 C 
BRANCH  17  18
ATOM     18  C   UNL     1      -0.390  10.678  22.453  0.00  0.00    +0.000 C 
BRANCH  18  20
ATOM     19  C   UNL     1      -1.309  12.778  23.031  0.00  0.00    +0.000 C 
ATOM     20  O   UNL     1      -1.571  11.490  22.489  0.00  0.00    +0.000 OA
ENDBRANCH  18  20
ENDBRANCH  17  18
ENDBRANCH   1  17
BRANCH   1  21
ATOM     21  C   UNL     1       0.992  11.434  20.124  0.00  0.00    +0.000 C 
BRANCH  21  22
ATOM     22  C   UNL     1       0.306  12.649  19.480  0.00  0.00    +0.000 C 
BRANCH  22  23
ATOM     23  O   UNL     1      -0.759  12.330  18.579  0.00  0.00    +0.000 OA
ATOM     24  C   UNL     1      -2.053  12.466  19.156  0.00  0.00    +0.000 C 
ENDBRANCH  22  23
ENDBRANCH  21  22
ENDBRANCH   1  21
TORSDOF 7
ENDMDL
MODEL 4
REMARK VINA RESULT:      -5.8      0.974      2.003
REMARK  Name = 
REMARK  11 active torsions:
REMARK  status: ('A' for Active; 'I' for Inactive)
REMARK    1  A    between atoms: C_1  and  O_2
REMARK    2  A    between atoms: O_2  and  C_3
REMARK    3  A    between atoms: C_3  and  C_4
REMARK    4  A    between atoms: C_4  and  N_5
REMARK    5  A    between atoms: N_5  and  C_6
REMARK    6  A    between atoms: C_6  and  C_7
REMARK    7  A    between atoms: C_7  and  O_8
REMARK    8  A    between atoms: O_8  and  C_9
REMARK    9  A    between atoms: N_14  and  N_15
REMARK   10  A    between atoms: C_16  and  C_17
REMARK   11  A    between atoms: C_20  and  C_21
REMARK                            x       y       z     vdW  Elec       q    Type
REMARK                         _______ _______ _______ _____ _____    ______ ____
ROOT
ATOM      1  N   UNL     1       0.336   9.983  20.293  0.00  0.00    +0.000 N 
ATOM      2  C   UNL     1       1.221   9.028  19.710  0.00  0.00    +0.000 A 
ATOM      3  C   UNL     1       1.565   9.158  18.371  0.00  0.00    +0.000 A 
ATOM      4  C   UNL     1       2.389   8.216  17.757  0.00  0.00    +0.000 A 
ATOM      5  C   UNL     1       2.853   7.129  18.484  0.00  0.00    +0.000 A 
ATOM      6  N   UNL     1       3.435   6.065  17.766  0.00  0.00    +0.000 N 
ATOM      7  N   UNL     1       2.556   7.045  19.794  0.00  0.00    +0.000 NA
ATOM      8  N   UNL     1       1.749   8.000  20.410  0.00  0.00    +0.000 NA
ATOM      9  H   UNL     1       4.171   6.367  17.145  0.00  0.00    +0.000 HD
ENDROOT
BRANCH   6  10
ATOM     10  N   UNL     1       3.645   4.808  18.292  0.00  0.00    +0.000 N 
ATOM     11  C   UNL     1       4.764   4.409  18.999  0.00  0.00    +0.000 A 
ATOM     12  C   UNL     1       5.984   5.246  19.171  0.00  0.00    +0.000 C 
ATOM     13  C   UNL     1       4.542   3.129  19.467  0.00  0.00    +0.000 A 
ATOM     14  C   UNL     1       3.234   2.760  19.094  0.00  0.00    +0.000 A 
ATOM     15  C   UNL     1       2.684   3.818  18.392  0.00  0.00    +0.000 A 
ATOM     16  C   UNL     1       1.307   3.940  17.849  0.00  0.00    +0.000 C 
ENDBRANCH   6  10
BRANCH   1  17
ATOM     17  C   UNL     1      -0.354   9.418  21.480  0.00  0.00    +0.000 C 
BRANCH  17  18
ATOM     18  C   UNL     1      -0.610  10.469  22.580  0.00  0.00    +0.000 C 
BRANCH  18  20
ATOM     19  C   UNL     1      -2.360  11.893  23.285  0.00  0.00    +0.000 C 
ATOM     20  O   UNL     1      -1.625  11.396  22.174  0.00  0.00    +0.000 OA
ENDBRANCH  18  20
ENDBRANCH  17  18
ENDBRANCH   1  17
BRANCH   1  21
ATOM     21  C   UNL     1       1.076  11.262  20.426  0.00  0.00    +0.000 C 
BRANCH  21  22
ATOM     22  C   UNL     1       0.567  12.443  19.585  0.00  0.00    +0.000 C 
BRANCH  22  23
ATOM     23  O   UNL     1       1.112  13.717  19.946  0.00  0.00    +0.000 OA
ATOM     24  C   UNL     1       2.438  13.645  20.458  0.00  0.00    +0.000 C 
ENDBRANCH  22  23
ENDBRANCH  21  22
ENDBRANCH   1  21
TORSDOF 7
ENDMDL
MODEL 5
REMARK VINA RESULT:      -5.7      3.507      7.822
REMARK  Name = 
REMARK  11 active torsions:
REMARK  status: ('A' for Active; 'I' for Inactive)
REMARK    1  A    between atoms: C_1  and  O_2
REMARK    2  A    between atoms: O_2  and  C_3
REMARK    3  A    between atoms: C_3  and  C_4
REMARK    4  A    between atoms: C_4  and  N_5
REMARK    5  A    between atoms: N_5  and  C_6
REMARK    6  A    between atoms: C_6  and  C_7
REMARK    7  A    between atoms: C_7  and  O_8
REMARK    8  A    between atoms: O_8  and  C_9
REMARK    9  A    between atoms: N_14  and  N_15
REMARK   10  A    between atoms: C_16  and  C_17
REMARK   11  A    between atoms: C_20  and  C_21
REMARK                            x       y       z     vdW  Elec       q    Type
REMARK                         _______ _______ _______ _____ _____    ______ ____
ROOT
ATOM      1  N   UNL     1       2.555   5.306  19.237  0.00  0.00    +0.000 N 
ATOM      2  C   UNL     1       2.133   6.627  19.568  0.00  0.00    +0.000 A 
ATOM      3  C   UNL     1       1.569   6.862  20.814  0.00  0.00    +0.000 A 
ATOM      4  C   UNL     1       1.102   8.131  21.153  0.00  0.00    +0.000 A 
ATOM      5  C   UNL     1       1.181   9.163  20.229  0.00  0.00    +0.000 A 
ATOM      6  N   UNL     1       0.449  10.337  20.498  0.00  0.00    +0.000 N 
ATOM      7  N   UNL     1       1.780   8.934  19.045  0.00  0.00    +0.000 NA
ATOM      8  N   UNL     1       2.264   7.669  18.717  0.00  0.00    +0.000 NA
ATOM      9  H   UNL     1       0.639  10.717  21.413  0.00  0.00    +0.000 HD
ENDROOT
BRANCH   6  10
ATOM     10  N   UNL     1       0.170  11.301  19.552  0.00  0.00    +0.000 N 
ATOM     11  C   UNL     1      -0.911  11.292  18.690  0.00  0.00    +0.000 A 
ATOM     12  C   UNL     1      -1.862  10.154  18.558  0.00  0.00    +0.000 C 
ATOM     13  C   UNL     1      -0.913  12.484  17.993  0.00  0.00    +0.000 A 
ATOM     14  C   UNL     1       0.152  13.267  18.484  0.00  0.00    +0.000 A 
ATOM     15  C   UNL     1       0.795  12.532  19.464  0.00  0.00    +0.000 A 
ATOM     16  C   UNL     1       1.933  12.949  20.323  0.00  0.00    +0.000 C 
ENDBRANCH   6  10
BRANCH   1  17
ATOM     17  C   UNL     1       2.588   5.107  17.766  0.00  0.00    +0.000 C 
BRANCH  17  18
ATOM     18  C   UNL     1       2.185   3.678  17.346  0.00  0.00    +0.000 C 
BRANCH  18  20
ATOM     19  C   UNL     1       3.339   1.799  18.197  0.00  0.00    +0.000 C 
ATOM     20  O   UNL     1       3.339   2.836  17.225  0.00  0.00    +0.000 OA
ENDBRANCH  18  20
ENDBRANCH  17  18
ENDBRANCH   1  17
BRANCH   1  21
ATOM     21  C   UNL     1       3.769   5.006  20.036  0.00  0.00    +0.000 C 
BRANCH  21  22
ATOM     22  C   UNL     1       5.119   5.379  19.406  0.00  0.00    +0.000 C 
BRANCH  22  23
ATOM     23  O   UNL     1       5.870   4.273  18.893  0.00  0.00    +0.000 OA
ATOM     24  C   UNL     1       6.388   4.493  17.586  0.00  0.00    +0.000 C 
ENDBRANCH  22  23
ENDBRANCH  21  22
ENDBRANCH   1  21
TORSDOF 7
ENDMDL
MODEL 6
REMARK VINA RESULT:      -5.6      2.170      3.463
REMARK  Name = 
REMARK  11 active torsions:
REMARK  status: ('A' for Active; 'I' for Inactive)
REMARK    1  A    between atoms: C_1  and  O_2
REMARK    2  A    between atoms: O_2  and  C_3
REMARK    3  A    between atoms: C_3  and  C_4
REMARK    4  A    between atoms: C_4  and  N_5
REMARK    5  A    between atoms: N_5  and  C_6
REMARK    6  A    between atoms: C_6  and  C_7
REMARK    7  A    between atoms: C_7  and  O_8
REMARK    8  A    between atoms: O_8  and  C_9
REMARK    9  A    between atoms: N_14  and  N_15
REMARK   10  A    between atoms: C_16  and  C_17
REMARK   11  A    between atoms: C_20  and  C_21
REMARK                            x       y       z     vdW  Elec       q    Type
REMARK                         _______ _______ _______ _____ _____    ______ ____
ROOT
ATOM      1  N   UNL     1       1.025  10.268  19.454  0.00  0.00    +0.000 N 
ATOM      2  C   UNL     1       1.531   8.938  19.354  0.00  0.00    +0.000 A 
ATOM      3  C   UNL     1       1.556   8.139  20.489  0.00  0.00    +0.000 A 
ATOM      4  C   UNL     1       2.088   6.852  20.437  0.00  0.00    +0.000 A 
ATOM      5  C   UNL     1       2.616   6.372  19.247  0.00  0.00    +0.000 A 
ATOM      6  N   UNL     1       3.392   5.197  19.305  0.00  0.00    +0.000 N 
ATOM      7  N   UNL     1       2.536   7.137  18.142  0.00  0.00    +0.000 NA
ATOM      8  N   UNL     1       1.985   8.416  18.193  0.00  0.00    +0.000 NA
ATOM      9  H   UNL     1       2.919   4.437  19.769  0.00  0.00    +0.000 HD
ENDROOT
BRANCH   6  10
ATOM     10  N   UNL     1       4.232   4.782  18.293  0.00  0.00    +0.000 N 
ATOM     11  C   UNL     1       5.607   4.929  18.280  0.00  0.00    +0.000 A 
ATOM     12  C   UNL     1       6.374   5.696  19.300  0.00  0.00    +0.000 C 
ATOM     13  C   UNL     1       6.097   4.274  17.167  0.00  0.00    +0.000 A 
ATOM     14  C   UNL     1       5.006   3.658  16.520  0.00  0.00    +0.000 A 
ATOM     15  C   UNL     1       3.866   3.960  17.242  0.00  0.00    +0.000 A 
ATOM     16  C   UNL     1       2.478   3.488  17.003  0.00  0.00    +0.000 C 
ENDBRANCH   6  10
BRANCH   1  17
ATOM     17  C   UNL     1       1.571  11.131  18.377  0.00  0.00    +0.000 C 
BRANCH  17  18
ATOM     18  C   UNL     1       2.065  12.497  18.896  0.00  0.00    +0.000 C 
BRANCH  18  20
ATOM     19  C   UNL     1       2.571  13.708  20.862  0.00  0.00    +0.000 C 
ATOM     20  O   UNL     1       1.849  12.615  20.308  0.00  0.00    +0.000 OA
ENDBRANCH  18  20
ENDBRANCH  17  18
ENDBRANCH   1  17
BRANCH   1  21
ATOM     21  C   UNL     1      -0.445  10.179  19.637  0.00  0.00    +0.000 C 
BRANCH  21  22
ATOM     22  C   UNL     1      -1.316  10.718  18.492  0.00  0.00    +0.000 C 
BRANCH  22  23
ATOM     23  O   UNL     1      -1.506   9.808  17.403  0.00  0.00    +0.000 OA
ATOM     24  C   UNL     1      -2.544  10.198  16.511  0.00  0.00    +0.000 C 
ENDBRANCH  22  23
ENDBRANCH  21  22
ENDBRANCH   1  21
TORSDOF 7
ENDMDL
MODEL 7
REMARK VINA RESULT:      -5.6      2.095      3.311
REMARK  Name = 
REMARK  11 active torsions:
REMARK  status: ('A' for Active; 'I' for Inactive)
REMARK    1  A    between atoms: C_1  and  O_2
REMARK    2  A    between atoms: O_2  and  C_3
REMARK    3  A    between atoms: C_3  and  C_4
REMARK    4  A    between atoms: C_4  and  N_5
REMARK    5  A    between atoms: N_5  and  C_6
REMARK    6  A    between atoms: C_6  and  C_7
REMARK    7  A    between atoms: C_7  and  O_8
REMARK    8  A    between atoms: O_8  and  C_9
REMARK    9  A    between atoms: N_14  and  N_15
REMARK   10  A    between atoms: C_16  and  C_17
REMARK   11  A    between atoms: C_20  and  C_21
REMARK                            x       y       z     vdW  Elec       q    Type
REMARK                         _______ _______ _______ _____ _____    ______ ____
ROOT
ATOM      1  N   UNL     1       1.125  10.150  19.365  0.00  0.00    +0.000 N 
ATOM      2  C   UNL     1       1.600   8.806  19.307  0.00  0.00    +0.000 A 
ATOM      3  C   UNL     1       1.587   8.037  20.463  0.00  0.00    +0.000 A 
ATOM      4  C   UNL     1       2.089   6.736  20.453  0.00  0.00    +0.000 A 
ATOM      5  C   UNL     1       2.625   6.213  19.285  0.00  0.00    +0.000 A 
ATOM      6  N   UNL     1       3.371   5.022  19.386  0.00  0.00    +0.000 N 
ATOM      7  N   UNL     1       2.581   6.951  18.160  0.00  0.00    +0.000 NA
ATOM      8  N   UNL     1       2.060   8.243  18.168  0.00  0.00    +0.000 NA
ATOM      9  H   UNL     1       2.872   4.286  19.862  0.00  0.00    +0.000 HD
ENDROOT
BRANCH   6  10
ATOM     10  N   UNL     1       4.217   4.561  18.401  0.00  0.00    +0.000 N 
ATOM     11  C   UNL     1       3.827   3.905  17.248  0.00  0.00    +0.000 A 
ATOM     12  C   UNL     1       2.432   3.467  16.970  0.00  0.00    +0.000 C 
ATOM     13  C   UNL     1       4.945   3.725  16.458  0.00  0.00    +0.000 A 
ATOM     14  C   UNL     1       6.032   4.340  17.110  0.00  0.00    +0.000 A 
ATOM     15  C   UNL     1       5.561   4.874  18.296  0.00  0.00    +0.000 A 
ATOM     16  C   UNL     1       6.306   5.678  19.299  0.00  0.00    +0.000 C 
ENDBRANCH   6  10
BRANCH   1  17
ATOM     17  C   UNL     1       1.709  10.971  18.275  0.00  0.00    +0.000 C 
BRANCH  17  18
ATOM     18  C   UNL     1       2.141  12.375  18.749  0.00  0.00    +0.000 C 
BRANCH  18  20
ATOM     19  C   UNL     1       1.589  14.673  18.739  0.00  0.00    +0.000 C 
ATOM     20  O   UNL     1       1.205  13.371  18.316  0.00  0.00    +0.000 OA
ENDBRANCH  18  20
ENDBRANCH  17  18
ENDBRANCH   1  17
BRANCH   1  21
ATOM     21  C   UNL     1      -0.350  10.101  19.525  0.00  0.00    +0.000 C 
BRANCH  21  22
ATOM     22  C   UNL     1      -1.187  10.693  18.381  0.00  0.00    +0.000 C 
BRANCH  22  23
ATOM     23  O   UNL     1      -1.533   9.766  17.347  0.00  0.00    +0.000 OA
ATOM     24  C   UNL     1      -2.371  10.323  16.340  0.00  0.00    +0.000 C 
ENDBRANCH  22  23
ENDBRANCH  21  22
ENDBRANCH   1  21
TORSDOF 7
ENDMDL
MODEL 8
REMARK VINA RESULT:      -5.6      3.216      7.809
REMARK  Name = 
REMARK  11 active torsions:
REMARK  status: ('A' for Active; 'I' for Inactive)
REMARK    1  A    between atoms: C_1  and  O_2
REMARK    2  A    between atoms: O_2  and  C_3
REMARK    3  A    between atoms: C_3  and  C_4
REMARK    4  A    between atoms: C_4  and  N_5
REMARK    5  A    between atoms: N_5  and  C_6
REMARK    6  A    between atoms: C_6  and  C_7
REMARK    7  A    between atoms: C_7  and  O_8
REMARK    8  A    between atoms: O_8  and  C_9
REMARK    9  A    between atoms: N_14  and  N_15
REMARK   10  A    between atoms: C_16  and  C_17
REMARK   11  A    between atoms: C_20  and  C_21
REMARK                            x       y       z     vdW  Elec       q    Type
REMARK                         _______ _______ _______ _____ _____    ______ ____
ROOT
ATOM      1  N   UNL     1       2.542   5.614  19.288  0.00  0.00    +0.000 N 
ATOM      2  C   UNL     1       2.121   6.940  19.600  0.00  0.00    +0.000 A 
ATOM      3  C   UNL     1       1.641   7.212  20.874  0.00  0.00    +0.000 A 
ATOM      4  C   UNL     1       1.176   8.486  21.198  0.00  0.00    +0.000 A 
ATOM      5  C   UNL     1       1.173   9.485  20.234  0.00  0.00    +0.000 A 
ATOM      6  N   UNL     1       0.441  10.656  20.511  0.00  0.00    +0.000 N 
ATOM      7  N   UNL     1       1.692   9.221  19.020  0.00  0.00    +0.000 NA
ATOM      8  N   UNL     1       2.175   7.952  18.706  0.00  0.00    +0.000 NA
ATOM      9  H   UNL     1       0.687  11.073  21.396  0.00  0.00    +0.000 HD
ENDROOT
BRANCH   6  10
ATOM     10  N   UNL     1       0.081  11.580  19.553  0.00  0.00    +0.000 N 
ATOM     11  C   UNL     1      -0.983  11.457  18.678  0.00  0.00    +0.000 A 
ATOM     12  C   UNL     1      -1.815  10.230  18.544  0.00  0.00    +0.000 C 
ATOM     13  C   UNL     1      -1.094  12.638  17.970  0.00  0.00    +0.000 A 
ATOM     14  C   UNL     1      -0.118  13.526  18.467  0.00  0.00    +0.000 A 
ATOM     15  C   UNL     1       0.581  12.866  19.461  0.00  0.00    +0.000 A 
ATOM     16  C   UNL     1       1.661  13.401  20.331  0.00  0.00    +0.000 C 
ENDBRANCH   6  10
BRANCH   1  17
ATOM     17  C   UNL     1       2.478   5.361  17.827  0.00  0.00    +0.000 C 
BRANCH  17  18
ATOM     18  C   UNL     1       1.615   4.133  17.469  0.00  0.00    +0.000 C 
BRANCH  18  20
ATOM     19  C   UNL     1       1.030   2.209  18.711  0.00  0.00    +0.000 C 
ATOM     20  O   UNL     1       0.942   3.626  18.629  0.00  0.00    +0.000 OA
ENDBRANCH  18  20
ENDBRANCH  17  18
ENDBRANCH   1  17
BRANCH   1  21
ATOM     21  C   UNL     1       3.814   5.362  20.011  0.00  0.00    +0.000 C 
BRANCH  21  22
ATOM     22  C   UNL     1       5.032   4.986  19.154  0.00  0.00    +0.000 C 
BRANCH  22  23
ATOM     23  O   UNL     1       5.487   3.638  19.315  0.00  0.00    +0.000 OA
ATOM     24  C   UNL     1       4.479   2.748  19.781  0.00  0.00    +0.000 C 
ENDBRANCH  22  23
ENDBRANCH  21  22
ENDBRANCH   1  21
TORSDOF 7
ENDMDL
MODEL 9
REMARK VINA RESULT:      -5.6      3.312      7.957
REMARK  Name = 
REMARK  11 active torsions:
REMARK  status: ('A' for Active; 'I' for Inactive)
REMARK    1  A    between atoms: C_1  and  O_2
REMARK    2  A    between atoms: O_2  and  C_3
REMARK    3  A    between atoms: C_3  and  C_4
REMARK    4  A    between atoms: C_4  and  N_5
REMARK    5  A    between atoms: N_5  and  C_6
REMARK    6  A    between atoms: C_6  and  C_7
REMARK    7  A    between atoms: C_7  and  O_8
REMARK    8  A    between atoms: O_8  and  C_9
REMARK    9  A    between atoms: N_14  and  N_15
REMARK   10  A    between atoms: C_16  and  C_17
REMARK   11  A    between atoms: C_20  and  C_21
REMARK                            x       y       z     vdW  Elec       q    Type
REMARK                         _______ _______ _______ _____ _____    ______ ____
ROOT
ATOM      1  N   UNL     1       2.397   5.572  19.290  0.00  0.00    +0.000 N 
ATOM      2  C   UNL     1       1.989   6.888  19.659  0.00  0.00    +0.000 A 
ATOM      3  C   UNL     1       1.450   7.097  20.921  0.00  0.00    +0.000 A 
ATOM      4  C   UNL     1       0.996   8.361  21.297  0.00  0.00    +0.000 A 
ATOM      5  C   UNL     1       1.064   9.413  20.396  0.00  0.00    +0.000 A 
ATOM      6  N   UNL     1       0.344  10.584  20.705  0.00  0.00    +0.000 N 
ATOM      7  N   UNL     1       1.639   9.208  19.195  0.00  0.00    +0.000 NA
ATOM      8  N   UNL     1       2.110   7.948  18.830  0.00  0.00    +0.000 NA
ATOM      9  H   UNL     1       0.553  10.942  21.624  0.00  0.00    +0.000 HD
ENDROOT
BRANCH   6  10
ATOM     10  N   UNL     1       0.053  11.570  19.787  0.00  0.00    +0.000 N 
ATOM     11  C   UNL     1       0.801  12.712  19.570  0.00  0.00    +0.000 A 
ATOM     12  C   UNL     1       1.964  13.119  20.406  0.00  0.00    +0.000 C 
ATOM     13  C   UNL     1       0.260  13.380  18.488  0.00  0.00    +0.000 A 
ATOM     14  C   UNL     1      -0.802  12.598  17.992  0.00  0.00    +0.000 A 
ATOM     15  C   UNL     1      -0.901  11.472  18.789  0.00  0.00    +0.000 A 
ATOM     16  C   UNL     1      -1.820  10.316  18.632  0.00  0.00    +0.000 C 
ENDBRANCH   6  10
BRANCH   1  17
ATOM     17  C   UNL     1       2.402   5.407  17.815  0.00  0.00    +0.000 C 
BRANCH  17  18
ATOM     18  C   UNL     1       2.135   3.952  17.375  0.00  0.00    +0.000 C 
BRANCH  18  20
ATOM     19  C   UNL     1       1.031   2.348  18.715  0.00  0.00    +0.000 C 
ATOM     20  O   UNL     1       0.876   3.488  17.880  0.00  0.00    +0.000 OA
ENDBRANCH  18  20
ENDBRANCH  17  18
ENDBRANCH   1  17
BRANCH   1  21
ATOM     21  C   UNL     1       3.624   5.247  20.059  0.00  0.00    +0.000 C 
BRANCH  21  22
ATOM     22  C   UNL     1       4.914   5.051  19.249  0.00  0.00    +0.000 C 
BRANCH  22  23
ATOM     23  O   UNL     1       5.481   3.739  19.329  0.00  0.00    +0.000 OA
ATOM     24  C   UNL     1       4.562   2.749  19.777  0.00  0.00    +0.000 C 
ENDBRANCH  22  23
ENDBRANCH  21  22
ENDBRANCH   1  21
TORSDOF 7
ENDMDL
