MODEL 1
REMARK VINA RESULT:      -8.5      0.000      0.000
REMARK  Name = 
REMARK  7 active torsions:
REMARK  status: ('A' for Active; 'I' for Inactive)
REMARK    1  A    between atoms: N_1  and  S_2
REMARK    2  A    between atoms: S_2  and  C_5
REMARK    3  A    between atoms: C_7  and  N_8
REMARK    4  A    between atoms: C_9  and  C_11
REMARK    5  A    between atoms: C_11  and  C_12
REMARK    6  A    between atoms: C_21  and  O_22
REMARK    7  A    between atoms: O_22  and  C_23
REMARK                            x       y       z     vdW  Elec       q    Type
REMARK                         _______ _______ _______ _____ _____    ______ ____
ROOT
ATOM      1  C   UNL     1       1.089   9.105  20.263  0.00  0.00    +0.000 A 
ATOM      2  C   UNL     1       1.863   7.924  20.219  0.00  0.00    +0.000 A 
ATOM      3  C   UNL     1       2.411   7.455  19.026  0.00  0.00    +0.000 A 
ATOM      4  C   UNL     1       2.153   8.148  17.849  0.00  0.00    +0.000 A 
ATOM      5  C   UNL     1       1.410   9.330  17.884  0.00  0.00    +0.000 A 
ATOM      6  C   UNL     1       0.838   9.807  19.081  0.00  0.00    +0.000 A 
ENDROOT
BRANCH   3   7
ATOM      7  N   UNL     1       3.231   6.314  18.949  0.00  0.00    +0.000 N 
ATOM      8  C   UNL     1       2.860   5.093  18.409  0.00  0.00    +0.000 C 
ATOM      9  O   UNL     1       1.760   4.809  17.949  0.00  0.00    +0.000 OA
ATOM     10  H   UNL     1       4.083   6.329  19.500  0.00  0.00    +0.000 HD
BRANCH   8  11
ATOM     11  C   UNL     1       3.959   4.052  18.479  0.00  0.00    +0.000 C 
BRANCH  11  12
ATOM     12  C   UNL     1       5.055   4.298  17.470  0.00  0.00    +0.000 A 
ATOM     13  C   UNL     1       4.855   3.879  16.143  0.00  0.00    +0.000 A 
ATOM     14  C   UNL     1       5.818   4.119  15.161  0.00  0.00    +0.000 A 
ATOM     15  C   UNL     1       7.001   4.774  15.493  0.00  0.00    +0.000 A 
ATOM     16  C   UNL     1       7.233   5.161  16.813  0.00  0.00    +0.000 A 
ATOM     17  C   UNL     1       6.273   4.913  17.799  0.00  0.00    +0.000 A 
ATOM     18 CL   UNL     1       6.650   5.380  19.420  0.00  0.00    +0.000 Cl
ENDBRANCH  11  12
ENDBRANCH   8  11
ENDBRANCH   3   7
BRANCH   1  19
ATOM     19  S   UNL     1       0.575   9.548  21.887  0.00  0.00    +0.000 S 
ATOM     20  O   UNL     1       1.699   9.354  22.775  0.00  0.00    +0.000 OA
ATOM     21  O   UNL     1      -0.704   8.909  22.123  0.00  0.00    +0.000 OA
BRANCH  19  22
ATOM     22  N   UNL     1       0.217  11.188  21.917  0.00  0.00    +0.000 NA
ATOM     23  H   UNL     1       0.061  11.490  20.953  0.00  0.00    +0.000 HD
ATOM     24  H   UNL     1       0.935  11.744  22.374  0.00  0.00    +0.000 HD
ENDBRANCH  19  22
ENDBRANCH   1  19
BRANCH   6  25
ATOM     25  O   UNL     1       0.114  10.983  19.089  0.00  0.00    +0.000 OA
BRANCH  25  26
ATOM     26  C   UNL     1      -1.217  10.914  18.679  0.00  0.00    +0.000 A 
ATOM     27  C   UNL     1      -2.101  11.851  19.194  0.00  0.00    +0.000 A 
ATOM     28  C   UNL     1      -3.427  11.809  18.763  0.00  0.00    +0.000 A 
ATOM     29  C   UNL     1      -3.816  10.843  17.838  0.00  0.00    +0.000 A 
ATOM     30  C   UNL     1      -2.863   9.943  17.392  0.00  0.00    +0.000 A 
ATOM     31  N   UNL     1      -1.579   9.944  17.810  0.00  0.00    +0.000 NA
ENDBRANCH  25  26
ENDBRANCH   6  25
TORSDOF 7
ENDMDL
MODEL 2
REMARK VINA RESULT:      -8.3      1.955      2.743
REMARK  Name = 
REMARK  7 active torsions:
REMARK  status: ('A' for Active; 'I' for Inactive)
REMARK    1  A    between atoms: N_1  and  S_2
REMARK    2  A    between atoms: S_2  and  C_5
REMARK    3  A    between atoms: C_7  and  N_8
REMARK    4  A    between atoms: C_9  and  C_11
REMARK    5  A    between atoms: C_11  and  C_12
REMARK    6  A    between atoms: C_21  and  O_22
REMARK    7  A    between atoms: O_22  and  C_23
REMARK                            x       y       z     vdW  Elec       q    Type
REMARK                         _______ _______ _______ _____ _____    ______ ____
ROOT
ATOM      1  C   UNL     1       1.073   9.035  20.226  0.00  0.00    +0.000 A 
ATOM      2  C   UNL     1       1.749   7.800  20.106  0.00  0.00    +0.000 A 
ATOM      3  C   UNL     1       2.473   7.472  18.961  0.00  0.00    +0.000 A 
ATOM      4  C   UNL     1       2.494   8.369  17.899  0.00  0.00    +0.000 A 
ATOM      5  C   UNL     1       1.850   9.603  18.016  0.00  0.00    +0.000 A 
ATOM      6  C   UNL     1       1.103   9.941  19.163  0.00  0.00    +0.000 A 
ENDROOT
BRANCH   3   7
ATOM      7  N   UNL     1       3.202   6.277  18.825  0.00  0.00    +0.000 N 
ATOM      8  C   UNL     1       2.747   5.124  18.206  0.00  0.00    +0.000 C 
ATOM      9  O   UNL     1       1.636   4.956  17.716  0.00  0.00    +0.000 OA
ATOM     10  H   UNL     1       4.043   6.191  19.386  0.00  0.00    +0.000 HD
BRANCH   8  11
ATOM     11  C   UNL     1       3.760   3.997  18.225  0.00  0.00    +0.000 C 
BRANCH  11  12
ATOM     12  C   UNL     1       4.925   4.249  17.298  0.00  0.00    +0.000 A 
ATOM     13  C   UNL     1       4.806   3.868  15.950  0.00  0.00    +0.000 A 
ATOM     14  C   UNL     1       5.836   4.115  15.041  0.00  0.00    +0.000 A 
ATOM     15  C   UNL     1       7.005   4.739  15.467  0.00  0.00    +0.000 A 
ATOM     16  C   UNL     1       7.156   5.087  16.810  0.00  0.00    +0.000 A 
ATOM     17  C   UNL     1       6.128   4.831  17.723  0.00  0.00    +0.000 A 
ATOM     18 CL   UNL     1       6.405   5.248  19.377  0.00  0.00    +0.000 Cl
ENDBRANCH  11  12
ENDBRANCH   8  11
ENDBRANCH   3   7
BRANCH   1  19
ATOM     19  S   UNL     1       0.299   9.264  21.791  0.00  0.00    +0.000 S 
ATOM     20  O   UNL     1       1.335   9.534  22.761  0.00  0.00    +0.000 OA
ATOM     21  O   UNL     1      -0.646   8.180  21.965  0.00  0.00    +0.000 OA
BRANCH  19  22
ATOM     22  N   UNL     1      -0.667  10.635  21.725  0.00  0.00    +0.000 NA
ATOM     23  H   UNL     1      -0.417  11.151  20.879  0.00  0.00    +0.000 HD
ATOM     24  H   UNL     1      -0.592  11.216  22.556  0.00  0.00    +0.000 HD
ENDBRANCH  19  22
ENDBRANCH   1  19
BRANCH   6  25
ATOM     25  O   UNL     1       0.483  11.171  19.255  0.00  0.00    +0.000 OA
BRANCH  25  26
ATOM     26  C   UNL     1       1.300  12.283  19.458  0.00  0.00    +0.000 A 
ATOM     27  C   UNL     1       1.658  13.034  18.349  0.00  0.00    +0.000 A 
ATOM     28  C   UNL     1       2.448  14.166  18.549  0.00  0.00    +0.000 A 
ATOM     29  C   UNL     1       2.843  14.504  19.840  0.00  0.00    +0.000 A 
ATOM     30  C   UNL     1       2.446  13.685  20.882  0.00  0.00    +0.000 A 
ATOM     31  N   UNL     1       1.703  12.570  20.717  0.00  0.00    +0.000 NA
ENDBRANCH  25  26
ENDBRANCH   6  25
TORSDOF 7
ENDMDL
MODEL 3
REMARK VINA RESULT:      -8.3      6.048      8.624
REMARK  Name = 
REMARK  7 active torsions:
REMARK  status: ('A' for Active; 'I' for Inactive)
REMARK    1  A    between atoms: N_1  and  S_2
REMARK    2  A    between atoms: S_2  and  C_5
REMARK    3  A    between atoms: C_7  and  N_8
REMARK    4  A    between atoms: C_9  and  C_11
REMARK    5  A    between atoms: C_11  and  C_12
REMARK    6  A    between atoms: C_21  and  O_22
REMARK    7  A    between atoms: O_22  and  C_23
REMARK                            x       y       z     vdW  Elec       q    Type
REMARK                         _______ _______ _______ _____ _____    ______ ____
ROOT
ATOM      1  C   UNL     1       6.663   5.363  16.728  0.00  0.00    +0.000 A 
ATOM      2  C   UNL     1       7.509   6.413  17.151  0.00  0.00    +0.000 A 
ATOM      3  C   UNL     1       7.744   6.662  18.502  0.00  0.00    +0.000 A 
ATOM      4  C   UNL     1       7.097   5.880  19.452  0.00  0.00    +0.000 A 
ATOM      5  C   UNL     1       6.278   4.824  19.046  0.00  0.00    +0.000 A 
ATOM      6  C   UNL     1       6.021   4.570  17.683  0.00  0.00    +0.000 A 
ENDROOT
BRANCH   3   7
ATOM      7  N   UNL     1       8.619   7.663  18.962  0.00  0.00    +0.000 N 
ATOM      8  C   UNL     1       8.543   9.008  18.638  0.00  0.00    +0.000 C 
ATOM      9  O   UNL     1       7.729   9.525  17.882  0.00  0.00    +0.000 OA
ATOM     10  H   UNL     1       9.477   7.348  19.403  0.00  0.00    +0.000 HD
BRANCH   8  11
ATOM     11  C   UNL     1       9.634   9.838  19.282  0.00  0.00    +0.000 C 
BRANCH  11  12
ATOM     12  C   UNL     1       9.438  11.320  19.069  0.00  0.00    +0.000 A 
ATOM     13  C   UNL     1       9.719  11.861  17.802  0.00  0.00    +0.000 A 
ATOM     14  C   UNL     1       9.515  13.216  17.538  0.00  0.00    +0.000 A 
ATOM     15  C   UNL     1       9.034  14.055  18.541  0.00  0.00    +0.000 A 
ATOM     16  C   UNL     1       8.789  13.543  19.815  0.00  0.00    +0.000 A 
ATOM     17  C   UNL     1       9.002  12.187  20.082  0.00  0.00    +0.000 A 
ATOM     18 CL   UNL     1       8.720  11.635  21.695  0.00  0.00    +0.000 Cl
ENDBRANCH  11  12
ENDBRANCH   8  11
ENDBRANCH   3   7
BRANCH   1  19
ATOM     19  S   UNL     1       6.584   5.185  14.978  0.00  0.00    +0.000 S 
ATOM     20  O   UNL     1       7.887   5.507  14.442  0.00  0.00    +0.000 OA
ATOM     21  O   UNL     1       5.385   5.863  14.531  0.00  0.00    +0.000 OA
BRANCH  19  22
ATOM     22  N   UNL     1       6.297   3.573  14.608  0.00  0.00    +0.000 NA
ATOM     23  H   UNL     1       6.419   3.460  13.599  0.00  0.00    +0.000 HD
ATOM     24  H   UNL     1       5.383   3.250  14.915  0.00  0.00    +0.000 HD
ENDBRANCH  19  22
ENDBRANCH   1  19
BRANCH   6  25
ATOM     25  O   UNL     1       5.214   3.514  17.309  0.00  0.00    +0.000 OA
BRANCH  25  26
ATOM     26  C   UNL     1       3.909   3.505  17.800  0.00  0.00    +0.000 A 
ATOM     27  C   UNL     1       3.059   4.525  17.397  0.00  0.00    +0.000 A 
ATOM     28  C   UNL     1       1.743   4.504  17.857  0.00  0.00    +0.000 A 
ATOM     29  C   UNL     1       1.327   3.470  18.693  0.00  0.00    +0.000 A 
ATOM     30  C   UNL     1       2.252   2.505  19.050  0.00  0.00    +0.000 A 
ATOM     31  N   UNL     1       3.538   2.513  18.641  0.00  0.00    +0.000 NA
ENDBRANCH  25  26
ENDBRANCH   6  25
TORSDOF 7
ENDMDL
MODEL 4
REMARK VINA RESULT:      -8.2      6.005      8.686
REMARK  Name = 
REMARK  7 active torsions:
REMARK  status: ('A' for Active; 'I' for Inactive)
REMARK    1  A    between atoms: N_1  and  S_2
REMARK    2  A    between atoms: S_2  and  C_5
REMARK    3  A    between atoms: C_7  and  N_8
REMARK    4  A    between atoms: C_9  and  C_11
REMARK    5  A    between atoms: C_11  and  C_12
REMARK    6  A    between atoms: C_21  and  O_22
REMARK    7  A    between atoms: O_22  and  C_23
REMARK                            x       y       z     vdW  Elec       q    Type
REMARK                         _______ _______ _______ _____ _____    ______ ____
ROOT
ATOM      1  C   UNL     1       6.667   5.448  16.913  0.00  0.00    +0.000 A 
ATOM      2  C   UNL     1       7.530   6.536  17.176  0.00  0.00    +0.000 A 
ATOM      3  C   UNL     1       7.885   6.889  18.477  0.00  0.00    +0.000 A 
ATOM      4  C   UNL     1       7.342   6.174  19.539  0.00  0.00    +0.000 A 
ATOM      5  C   UNL     1       6.508   5.081  19.290  0.00  0.00    +0.000 A 
ATOM      6  C   UNL     1       6.130   4.723  17.980  0.00  0.00    +0.000 A 
ENDROOT
BRANCH   3   7
ATOM      7  N   UNL     1       8.781   7.930  18.777  0.00  0.00    +0.000 N 
ATOM      8  C   UNL     1       8.604   9.264  18.444  0.00  0.00    +0.000 C 
ATOM      9  O   UNL     1       7.665   9.734  17.813  0.00  0.00    +0.000 OA
ATOM     10  H   UNL     1       9.708   7.657  19.087  0.00  0.00    +0.000 HD
BRANCH   8  11
ATOM     11  C   UNL     1       9.749  10.148  18.896  0.00  0.00    +0.000 C 
BRANCH  11  12
ATOM     12  C   UNL     1       9.288  11.298  19.759  0.00  0.00    +0.000 A 
ATOM     13  C   UNL     1       9.085  11.071  21.132  0.00  0.00    +0.000 A 
ATOM     14  C   UNL     1       8.700  12.109  21.982  0.00  0.00    +0.000 A 
ATOM     15  C   UNL     1       8.503  13.389  21.471  0.00  0.00    +0.000 A 
ATOM     16  C   UNL     1       8.660  13.623  20.105  0.00  0.00    +0.000 A 
ATOM     17  C   UNL     1       9.037  12.581  19.251  0.00  0.00    +0.000 A 
ATOM     18 CL   UNL     1       9.167  12.937  17.564  0.00  0.00    +0.000 Cl
ENDBRANCH  11  12
ENDBRANCH   8  11
ENDBRANCH   3   7
BRANCH   1  19
ATOM     19  S   UNL     1       6.431   5.138  15.197  0.00  0.00    +0.000 S 
ATOM     20  O   UNL     1       7.665   5.453  14.515  0.00  0.00    +0.000 OA
ATOM     21  O   UNL     1       5.172   5.749  14.819  0.00  0.00    +0.000 OA
BRANCH  19  22
ATOM     22  N   UNL     1       6.164   3.495  14.972  0.00  0.00    +0.000 NA
ATOM     23  H   UNL     1       7.070   3.024  15.021  0.00  0.00    +0.000 HD
ATOM     24  H   UNL     1       5.677   3.286  14.104  0.00  0.00    +0.000 HD
ENDBRANCH  19  22
ENDBRANCH   1  19
BRANCH   6  25
ATOM     25  O   UNL     1       5.311   3.633  17.763  0.00  0.00    +0.000 OA
BRANCH  25  26
ATOM     26  C   UNL     1       3.994   3.728  18.209  0.00  0.00    +0.000 A 
ATOM     27  C   UNL     1       3.120   4.524  17.484  0.00  0.00    +0.000 A 
ATOM     28  C   UNL     1       1.793   4.597  17.906  0.00  0.00    +0.000 A 
ATOM     29  C   UNL     1       1.390   3.874  19.026  0.00  0.00    +0.000 A 
ATOM     30  C   UNL     1       2.339   3.117  19.691  0.00  0.00    +0.000 A 
ATOM     31  N   UNL     1       3.635   3.047  19.322  0.00  0.00    +0.000 NA
ENDBRANCH  25  26
ENDBRANCH   6  25
TORSDOF 7
ENDMDL
MODEL 5
REMARK VINA RESULT:      -8.1      3.084      8.721
REMARK  Name = 
REMARK  7 active torsions:
REMARK  status: ('A' for Active; 'I' for Inactive)
REMARK    1  A    between atoms: N_1  and  S_2
REMARK    2  A    between atoms: S_2  and  C_5
REMARK    3  A    between atoms: C_7  and  N_8
REMARK    4  A    between atoms: C_9  and  C_11
REMARK    5  A    between atoms: C_11  and  C_12
REMARK    6  A    between atoms: C_21  and  O_22
REMARK    7  A    between atoms: O_22  and  C_23
REMARK                            x       y       z     vdW  Elec       q    Type
REMARK                         _______ _______ _______ _____ _____    ______ ____
ROOT
ATOM      1  C   UNL     1       2.209   5.039  19.998  0.00  0.00    +0.000 A 
ATOM      2  C   UNL     1       1.870   6.020  20.956  0.00  0.00    +0.000 A 
ATOM      3  C   UNL     1       1.873   7.379  20.642  0.00  0.00    +0.000 A 
ATOM      4  C   UNL     1       2.257   7.773  19.365  0.00  0.00    +0.000 A 
ATOM      5  C   UNL     1       2.569   6.810  18.403  0.00  0.00    +0.000 A 
ATOM      6  C   UNL     1       2.585   5.435  18.711  0.00  0.00    +0.000 A 
ENDROOT
BRANCH   3   7
ATOM      7  N   UNL     1       1.491   8.382  21.551  0.00  0.00    +0.000 N 
ATOM      8  C   UNL     1       0.193   8.648  21.956  0.00  0.00    +0.000 C 
ATOM      9  O   UNL     1      -0.819   8.079  21.563  0.00  0.00    +0.000 OA
ATOM     10  H   UNL     1       2.191   9.081  21.776  0.00  0.00    +0.000 HD
BRANCH   8  11
ATOM     11  C   UNL     1       0.099   9.797  22.938  0.00  0.00    +0.000 C 
BRANCH  11  12
ATOM     12  C   UNL     1      -0.808  10.903  22.454  0.00  0.00    +0.000 A 
ATOM     13  C   UNL     1      -1.936  11.234  23.225  0.00  0.00    +0.000 A 
ATOM     14  C   UNL     1      -2.785  12.276  22.845  0.00  0.00    +0.000 A 
ATOM     15  C   UNL     1      -2.524  12.996  21.683  0.00  0.00    +0.000 A 
ATOM     16  C   UNL     1      -1.432  12.654  20.884  0.00  0.00    +0.000 A 
ATOM     17  C   UNL     1      -0.587  11.605  21.259  0.00  0.00    +0.000 A 
ATOM     18 CL   UNL     1       0.718  11.209  20.197  0.00  0.00    +0.000 Cl
ENDBRANCH  11  12
ENDBRANCH   8  11
ENDBRANCH   3   7
BRANCH   1  19
ATOM     19  S   UNL     1       2.053   3.390  20.595  0.00  0.00    +0.000 S 
ATOM     20  O   UNL     1       0.895   2.799  19.964  0.00  0.00    +0.000 OA
ATOM     21  O   UNL     1       2.196   3.440  22.036  0.00  0.00    +0.000 OA
BRANCH  19  22
ATOM     22  N   UNL     1       3.383   2.500  20.089  0.00  0.00    +0.000 NA
ATOM     23  H   UNL     1       3.704   1.942  20.884  0.00  0.00    +0.000 HD
ATOM     24  H   UNL     1       4.129   3.078  19.709  0.00  0.00    +0.000 HD
ENDBRANCH  19  22
ENDBRANCH   1  19
BRANCH   6  25
ATOM     25  O   UNL     1       2.890   4.504  17.738  0.00  0.00    +0.000 OA
BRANCH  25  26
ATOM     26  C   UNL     1       4.216   4.439  17.312  0.00  0.00    +0.000 A 
ATOM     27  C   UNL     1       4.453   4.328  15.950  0.00  0.00    +0.000 A 
ATOM     28  C   UNL     1       5.777   4.297  15.513  0.00  0.00    +0.000 A 
ATOM     29  C   UNL     1       6.807   4.382  16.447  0.00  0.00    +0.000 A 
ATOM     30  C   UNL     1       6.470   4.478  17.786  0.00  0.00    +0.000 A 
ATOM     31  N   UNL     1       5.199   4.484  18.239  0.00  0.00    +0.000 NA
ENDBRANCH  25  26
ENDBRANCH   6  25
TORSDOF 7
ENDMDL
MODEL 6
REMARK VINA RESULT:      -7.9      0.841      1.223
REMARK  Name = 
REMARK  7 active torsions:
REMARK  status: ('A' for Active; 'I' for Inactive)
REMARK    1  A    between atoms: N_1  and  S_2
REMARK    2  A    between atoms: S_2  and  C_5
REMARK    3  A    between atoms: C_7  and  N_8
REMARK    4  A    between atoms: C_9  and  C_11
REMARK    5  A    between atoms: C_11  and  C_12
REMARK    6  A    between atoms: C_21  and  O_22
REMARK    7  A    between atoms: O_22  and  C_23
REMARK                            x       y       z     vdW  Elec       q    Type
REMARK                         _______ _______ _______ _____ _____    ______ ____
ROOT
ATOM      1  C   UNL     1       1.197   9.329  20.116  0.00  0.00    +0.000 A 
ATOM      2  C   UNL     1       1.977   8.151  20.115  0.00  0.00    +0.000 A 
ATOM      3  C   UNL     1       2.466   7.601  18.931  0.00  0.00    +0.000 A 
ATOM      4  C   UNL     1       2.141   8.209  17.723  0.00  0.00    +0.000 A 
ATOM      5  C   UNL     1       1.392   9.387  17.715  0.00  0.00    +0.000 A 
ATOM      6  C   UNL     1       0.880   9.946  18.903  0.00  0.00    +0.000 A 
ENDROOT
BRANCH   3   7
ATOM      7  N   UNL     1       3.289   6.461  18.892  0.00  0.00    +0.000 N 
ATOM      8  C   UNL     1       2.869   5.178  18.578  0.00  0.00    +0.000 C 
ATOM      9  O   UNL     1       1.722   4.834  18.321  0.00  0.00    +0.000 OA
ATOM     10  H   UNL     1       4.209   6.550  19.309  0.00  0.00    +0.000 HD
BRANCH   8  11
ATOM     11  C   UNL     1       3.988   4.157  18.629  0.00  0.00    +0.000 C 
BRANCH  11  12
ATOM     12  C   UNL     1       5.033   4.387  17.564  0.00  0.00    +0.000 A 
ATOM     13  C   UNL     1       4.757   3.972  16.249  0.00  0.00    +0.000 A 
ATOM     14  C   UNL     1       5.670   4.199  15.218  0.00  0.00    +0.000 A 
ATOM     15  C   UNL     1       6.878   4.837  15.487  0.00  0.00    +0.000 A 
ATOM     16  C   UNL     1       7.186   5.218  16.793  0.00  0.00    +0.000 A 
ATOM     17  C   UNL     1       6.275   4.983  17.828  0.00  0.00    +0.000 A 
ATOM     18 CL   UNL     1       6.744   5.443  19.427  0.00  0.00    +0.000 Cl
ENDBRANCH  11  12
ENDBRANCH   8  11
ENDBRANCH   3   7
BRANCH   1  19
ATOM     19  S   UNL     1       0.765   9.884  21.731  0.00  0.00    +0.000 S 
ATOM     20  O   UNL     1       0.515  11.305  21.658  0.00  0.00    +0.000 OA
ATOM     21  O   UNL     1       1.735   9.325  22.651  0.00  0.00    +0.000 OA
BRANCH  19  22
ATOM     22  N   UNL     1      -0.682   9.164  22.185  0.00  0.00    +0.000 NA
ATOM     23  H   UNL     1      -0.476   8.494  22.929  0.00  0.00    +0.000 HD
ATOM     24  H   UNL     1      -1.170   8.725  21.408  0.00  0.00    +0.000 HD
ENDBRANCH  19  22
ENDBRANCH   1  19
BRANCH   6  25
ATOM     25  O   UNL     1       0.149  11.116  18.867  0.00  0.00    +0.000 OA
BRANCH  25  26
ATOM     26  C   UNL     1      -1.190  11.020  18.489  0.00  0.00    +0.000 A 
ATOM     27  C   UNL     1      -1.528  10.060  17.547  0.00  0.00    +0.000 A 
ATOM     28  C   UNL     1      -2.871   9.935  17.189  0.00  0.00    +0.000 A 
ATOM     29  C   UNL     1      -3.817  10.764  17.784  0.00  0.00    +0.000 A 
ATOM     30  C   UNL     1      -3.380  11.700  18.706  0.00  0.00    +0.000 A 
ATOM     31  N   UNL     1      -2.086  11.861  19.053  0.00  0.00    +0.000 NA
ENDBRANCH  25  26
ENDBRANCH   6  25
TORSDOF 7
ENDMDL
MODEL 7
REMARK VINA RESULT:      -7.9      2.293      3.014
REMARK  Name = 
REMARK  7 active torsions:
REMARK  status: ('A' for Active; 'I' for Inactive)
REMARK    1  A    between atoms: N_1  and  S_2
REMARK    2  A    between atoms: S_2  and  C_5
REMARK    3  A    between atoms: C_7  and  N_8
REMARK    4  A    between atoms: C_9  and  C_11
REMARK    5  A    between atoms: C_11  and  C_12
REMARK    6  A    between atoms: C_21  and  O_22
REMARK    7  A    between atoms: O_22  and  C_23
REMARK                            x       y       z     vdW  Elec       q    Type
REMARK                         _______ _______ _______ _____ _____    ______ ____
ROOT
ATOM      1  C   UNL     1       0.792   9.081  20.876  0.00  0.00    +0.000 A 
ATOM      2  C   UNL     1       1.527   7.875  20.885  0.00  0.00    +0.000 A 
ATOM      3  C   UNL     1       2.230   7.441  19.762  0.00  0.00    +0.000 A 
ATOM      4  C   UNL     1       2.169   8.197  18.597  0.00  0.00    +0.000 A 
ATOM      5  C   UNL     1       1.465   9.403  18.585  0.00  0.00    +0.000 A 
ATOM      6  C   UNL     1       0.739   9.846  19.709  0.00  0.00    +0.000 A 
ENDROOT
BRANCH   3   7
ATOM      7  N   UNL     1       3.016   6.274  19.747  0.00  0.00    +0.000 N 
ATOM      8  C   UNL     1       2.538   4.981  19.888  0.00  0.00    +0.000 C 
ATOM      9  O   UNL     1       1.372   4.658  20.080  0.00  0.00    +0.000 OA
ATOM     10  H   UNL     1       4.019   6.401  19.833  0.00  0.00    +0.000 HD
BRANCH   8  11
ATOM     11  C   UNL     1       3.632   3.934  19.839  0.00  0.00    +0.000 C 
BRANCH  11  12
ATOM     12  C   UNL     1       4.551   4.109  18.654  0.00  0.00    +0.000 A 
ATOM     13  C   UNL     1       5.839   4.630  18.873  0.00  0.00    +0.000 A 
ATOM     14  C   UNL     1       6.743   4.774  17.819  0.00  0.00    +0.000 A 
ATOM     15  C   UNL     1       6.371   4.407  16.528  0.00  0.00    +0.000 A 
ATOM     16  C   UNL     1       5.084   3.927  16.287  0.00  0.00    +0.000 A 
ATOM     17  C   UNL     1       4.174   3.792  17.340  0.00  0.00    +0.000 A 
ATOM     18 CL   UNL     1       2.584   3.233  16.958  0.00  0.00    +0.000 Cl
ENDBRANCH  11  12
ENDBRANCH   8  11
ENDBRANCH   3   7
BRANCH   1  19
ATOM     19  S   UNL     1       0.058   9.468  22.430  0.00  0.00    +0.000 S 
ATOM     20  O   UNL     1       1.125   9.709  23.375  0.00  0.00    +0.000 OA
ATOM     21  O   UNL     1      -0.972   8.480  22.677  0.00  0.00    +0.000 OA
BRANCH  19  22
ATOM     22  N   UNL     1      -0.791  10.909  22.287  0.00  0.00    +0.000 NA
ATOM     23  H   UNL     1      -0.132  11.630  21.987  0.00  0.00    +0.000 HD
ATOM     24  H   UNL     1      -1.274  11.173  23.142  0.00  0.00    +0.000 HD
ENDBRANCH  19  22
ENDBRANCH   1  19
BRANCH   6  25
ATOM     25  O   UNL     1       0.058  11.047  19.672  0.00  0.00    +0.000 OA
BRANCH  25  26
ATOM     26  C   UNL     1       0.822  12.214  19.705  0.00  0.00    +0.000 A 
ATOM     27  C   UNL     1       0.741  13.071  18.618  0.00  0.00    +0.000 A 
ATOM     28  C   UNL     1       1.476  14.255  18.659  0.00  0.00    +0.000 A 
ATOM     29  C   UNL     1       2.255  14.538  19.778  0.00  0.00    +0.000 A 
ATOM     30  C   UNL     1       2.281  13.614  20.808  0.00  0.00    +0.000 A 
ATOM     31  N   UNL     1       1.600  12.449  20.785  0.00  0.00    +0.000 NA
ENDBRANCH  25  26
ENDBRANCH   6  25
TORSDOF 7
ENDMDL
MODEL 8
REMARK VINA RESULT:      -7.9      3.614      8.758
REMARK  Name = 
REMARK  7 active torsions:
REMARK  status: ('A' for Active; 'I' for Inactive)
REMARK    1  A    between atoms: N_1  and  S_2
REMARK    2  A    between atoms: S_2  and  C_5
REMARK    3  A    between atoms: C_7  and  N_8
REMARK    4  A    between atoms: C_9  and  C_11
REMARK    5  A    between atoms: C_11  and  C_12
REMARK    6  A    between atoms: C_21  and  O_22
REMARK    7  A    between atoms: O_22  and  C_23
REMARK                            x       y       z     vdW  Elec       q    Type
REMARK                         _______ _______ _______ _____ _____    ______ ____
ROOT
ATOM      1  C   UNL     1       2.146   5.337  20.166  0.00  0.00    +0.000 A 
ATOM      2  C   UNL     1       1.325   6.188  20.939  0.00  0.00    +0.000 A 
ATOM      3  C   UNL     1       1.202   7.546  20.647  0.00  0.00    +0.000 A 
ATOM      4  C   UNL     1       1.939   8.076  19.594  0.00  0.00    +0.000 A 
ATOM      5  C   UNL     1       2.734   7.239  18.808  0.00  0.00    +0.000 A 
ATOM      6  C   UNL     1       2.878   5.868  19.101  0.00  0.00    +0.000 A 
ENDROOT
BRANCH   3   7
ATOM      7  N   UNL     1       0.356   8.415  21.359  0.00  0.00    +0.000 N 
ATOM      8  C   UNL     1       0.758   9.296  22.350  0.00  0.00    +0.000 C 
ATOM      9  O   UNL     1       1.898   9.429  22.781  0.00  0.00    +0.000 OA
ATOM     10  H   UNL     1      -0.641   8.247  21.277  0.00  0.00    +0.000 HD
BRANCH   8  11
ATOM     11  C   UNL     1      -0.387  10.094  22.939  0.00  0.00    +0.000 C 
BRANCH  11  12
ATOM     12  C   UNL     1      -0.677  11.354  22.159  0.00  0.00    +0.000 A 
ATOM     13  C   UNL     1       0.237  11.759  21.170  0.00  0.00    +0.000 A 
ATOM     14  C   UNL     1      -0.003  12.892  20.392  0.00  0.00    +0.000 A 
ATOM     15  C   UNL     1      -1.157  13.644  20.595  0.00  0.00    +0.000 A 
ATOM     16  C   UNL     1      -2.055  13.280  21.600  0.00  0.00    +0.000 A 
ATOM     17  C   UNL     1      -1.810  12.150  22.386  0.00  0.00    +0.000 A 
ATOM     18 CL   UNL     1      -2.943  11.787  23.640  0.00  0.00    +0.000 Cl
ENDBRANCH  11  12
ENDBRANCH   8  11
ENDBRANCH   3   7
BRANCH   1  19
ATOM     19  S   UNL     1       2.077   3.650  20.667  0.00  0.00    +0.000 S 
ATOM     20  O   UNL     1       0.948   3.038  20.005  0.00  0.00    +0.000 OA
ATOM     21  O   UNL     1       2.224   3.624  22.108  0.00  0.00    +0.000 OA
BRANCH  19  22
ATOM     22  N   UNL     1       3.449   2.860  20.108  0.00  0.00    +0.000 NA
ATOM     23  H   UNL     1       3.304   1.857  20.238  0.00  0.00    +0.000 HD
ATOM     24  H   UNL     1       4.303   3.178  20.559  0.00  0.00    +0.000 HD
ENDBRANCH  19  22
ENDBRANCH   1  19
BRANCH   6  25
ATOM     25  O   UNL     1       3.664   5.061  18.302  0.00  0.00    +0.000 OA
BRANCH  25  26
ATOM     26  C   UNL     1       5.035   5.314  18.296  0.00  0.00    +0.000 A 
ATOM     27  C   UNL     1       5.624   5.658  17.089  0.00  0.00    +0.000 A 
ATOM     28  C   UNL     1       6.989   5.944  17.082  0.00  0.00    +0.000 A 
ATOM     29  C   UNL     1       7.708   5.881  18.273  0.00  0.00    +0.000 A 
ATOM     30  C   UNL     1       7.034   5.516  19.425  0.00  0.00    +0.000 A 
ATOM     31  N   UNL     1       5.720   5.209  19.458  0.00  0.00    +0.000 NA
ENDBRANCH  25  26
ENDBRANCH   6  25
TORSDOF 7
ENDMDL
MODEL 9
REMARK VINA RESULT:      -7.8      1.179      1.770
REMARK  Name = 
REMARK  7 active torsions:
REMARK  status: ('A' for Active; 'I' for Inactive)
REMARK    1  A    between atoms: N_1  and  S_2
REMARK    2  A    between atoms: S_2  and  C_5
REMARK    3  A    between atoms: C_7  and  N_8
REMARK    4  A    between atoms: C_9  and  C_11
REMARK    5  A    between atoms: C_11  and  C_12
REMARK    6  A    between atoms: C_21  and  O_22
REMARK    7  A    between atoms: O_22  and  C_23
REMARK                            x       y       z     vdW  Elec       q    Type
REMARK                         _______ _______ _______ _____ _____    ______ ____
ROOT
ATOM      1  C   UNL     1       0.841   9.198  20.528  0.00  0.00    +0.000 A 
ATOM      2  C   UNL     1       1.604   8.009  20.522  0.00  0.00    +0.000 A 
ATOM      3  C   UNL     1       2.235   7.553  19.365  0.00  0.00    +0.000 A 
ATOM      4  C   UNL     1       2.072   8.268  18.184  0.00  0.00    +0.000 A 
ATOM      5  C   UNL     1       1.340   9.457  18.184  0.00  0.00    +0.000 A 
ATOM      6  C   UNL     1       0.686   9.922  19.343  0.00  0.00    +0.000 A 
ENDROOT
BRANCH   3   7
ATOM      7  N   UNL     1       3.046   6.404  19.330  0.00  0.00    +0.000 N 
ATOM      8  C   UNL     1       2.769   5.246  18.621  0.00  0.00    +0.000 C 
ATOM      9  O   UNL     1       1.768   5.032  17.948  0.00  0.00    +0.000 OA
ATOM     10  H   UNL     1       3.785   6.349  20.023  0.00  0.00    +0.000 HD
BRANCH   8  11
ATOM     11  C   UNL     1       3.830   4.177  18.789  0.00  0.00    +0.000 C 
BRANCH  11  12
ATOM     12  C   UNL     1       5.212   4.670  18.431  0.00  0.00    +0.000 A 
ATOM     13  C   UNL     1       6.015   5.216  19.448  0.00  0.00    +0.000 A 
ATOM     14  C   UNL     1       7.316   5.648  19.181  0.00  0.00    +0.000 A 
ATOM     15  C   UNL     1       7.830   5.548  17.891  0.00  0.00    +0.000 A 
ATOM     16  C   UNL     1       7.032   5.047  16.862  0.00  0.00    +0.000 A 
ATOM     17  C   UNL     1       5.726   4.623  17.127  0.00  0.00    +0.000 A 
ATOM     18 CL   UNL     1       4.783   4.055  15.794  0.00  0.00    +0.000 Cl
ENDBRANCH  11  12
ENDBRANCH   8  11
ENDBRANCH   3   7
BRANCH   1  19
ATOM     19  S   UNL     1       0.212   9.621  22.117  0.00  0.00    +0.000 S 
ATOM     20  O   UNL     1       1.333   9.719  23.025  0.00  0.00    +0.000 OA
ATOM     21  O   UNL     1      -0.911   8.744  22.382  0.00  0.00    +0.000 OA
BRANCH  19  22
ATOM     22  N   UNL     1      -0.479  11.149  22.040  0.00  0.00    +0.000 NA
ATOM     23  H   UNL     1      -1.348  11.124  22.578  0.00  0.00    +0.000 HD
ATOM     24  H   UNL     1      -0.635  11.468  21.088  0.00  0.00    +0.000 HD
ENDBRANCH  19  22
ENDBRANCH   1  19
BRANCH   6  25
ATOM     25  O   UNL     1      -0.025  11.106  19.317  0.00  0.00    +0.000 OA
BRANCH  25  26
ATOM     26  C   UNL     1      -1.319  11.061  18.799  0.00  0.00    +0.000 A 
ATOM     27  C   UNL     1      -1.569  10.177  17.760  0.00  0.00    +0.000 A 
ATOM     28  C   UNL     1      -2.868  10.103  17.259  0.00  0.00    +0.000 A 
ATOM     29  C   UNL     1      -3.862  10.904  17.814  0.00  0.00    +0.000 A 
ATOM     30  C   UNL     1      -3.512  11.764  18.841  0.00  0.00    +0.000 A 
ATOM     31  N   UNL     1      -2.259  11.876  19.329  0.00  0.00    +0.000 NA
ENDBRANCH  25  26
ENDBRANCH   6  25
TORSDOF 7
ENDMDL
