MODEL 1
REMARK VINA RESULT:      -8.0      0.000      0.000
REMARK  Name = 
REMARK  5 active torsions:
REMARK  status: ('A' for Active; 'I' for Inactive)
REMARK    1  A    between atoms: C_1  and  C_2
REMARK    2  A    between atoms: C_2  and  N_3
REMARK    3  A    between atoms: C_2  and  C_15
REMARK    4  A    between atoms: C_4  and  C_6
REMARK    5  A    between atoms: C_6  and  N_7
REMARK                            x       y       z     vdW  Elec       q    Type
REMARK                         _______ _______ _______ _____ _____    ______ ____
ROOT
ATOM      1  N   UNL     1       4.583   5.811  18.067  0.00  0.00    +0.000 N 
ATOM      2  C   UNL     1       5.566   4.949  18.517  0.00  0.00    +0.000 C 
ATOM      3  O   UNL     1       5.392   4.206  19.481  0.00  0.00    +0.000 OA
ATOM      4  H   UNL     1       4.759   6.429  17.288  0.00  0.00    +0.000 HD
ENDROOT
BRANCH   1   6
ATOM      5  C   UNL     1       2.306   4.877  17.850  0.00  0.00    +0.000 C 
ATOM      6  C   UNL     1       3.247   5.781  18.653  0.00  0.00    +0.000 C 
BRANCH   6   7
ATOM      7  C   UNL     1       2.619   7.156  18.793  0.00  0.00    +0.000 A 
ATOM      8  C   UNL     1       2.017   7.499  20.017  0.00  0.00    +0.000 A 
ATOM      9  C   UNL     1       1.311   8.693  20.162  0.00  0.00    +0.000 A 
ATOM     10  C   UNL     1       1.204   9.571  19.087  0.00  0.00    +0.000 A 
ATOM     11  C   UNL     1       1.806   9.256  17.871  0.00  0.00    +0.000 A 
ATOM     12  C   UNL     1       2.502   8.053  17.719  0.00  0.00    +0.000 A 
ENDBRANCH   6   7
ENDBRANCH   1   6
BRANCH   2  13
ATOM     13  C   UNL     1       6.877   4.993  17.764  0.00  0.00    +0.000 C 
BRANCH  13  14
ATOM     14  N   UNL     1       6.744   4.732  16.340  0.00  0.00    +0.000 N 
ATOM     15  C   UNL     1       5.941   3.844  15.684  0.00  0.00    +0.000 A 
ATOM     16  N   UNL     1       6.186   3.876  14.394  0.00  0.00    +0.000 NA
ATOM     17  C   UNL     1       7.188   4.808  14.305  0.00  0.00    +0.000 A 
ATOM     18  N   UNL     1       7.817   5.171  13.041  0.00  0.00    +0.000 N 
ATOM     19  O   UNL     1       7.390   4.619  12.016  0.00  0.00    +0.000 OA
ATOM     20  O   UNL     1       8.736   6.005  13.069  0.00  0.00    +0.000 OA
ATOM     21  N   UNL     1       7.567   5.364  15.471  0.00  0.00    +0.000 NA
ENDBRANCH  13  14
ENDBRANCH   2  13
TORSDOF 4
ENDMDL
MODEL 2
REMARK VINA RESULT:      -7.8      0.281      1.111
REMARK  Name = 
REMARK  5 active torsions:
REMARK  status: ('A' for Active; 'I' for Inactive)
REMARK    1  A    between atoms: C_1  and  C_2
REMARK    2  A    between atoms: C_2  and  N_3
REMARK    3  A    between atoms: C_2  and  C_15
REMARK    4  A    between atoms: C_4  and  C_6
REMARK    5  A    between atoms: C_6  and  N_7
REMARK                            x       y       z     vdW  Elec       q    Type
REMARK                         _______ _______ _______ _____ _____    ______ ____
ROOT
ATOM      1  N   UNL     1       4.517   5.964  18.462  0.00  0.00    +0.000 N 
ATOM      2  C   UNL     1       5.502   5.016  18.675  0.00  0.00    +0.000 C 
ATOM      3  O   UNL     1       5.355   4.087  19.468  0.00  0.00    +0.000 OA
ATOM      4  H   UNL     1       4.673   6.730  17.824  0.00  0.00    +0.000 HD
ENDROOT
BRANCH   1   6
ATOM      5  C   UNL     1       2.382   4.723  18.419  0.00  0.00    +0.000 C 
ATOM      6  C   UNL     1       3.208   5.825  19.091  0.00  0.00    +0.000 C 
BRANCH   6   7
ATOM      7  C   UNL     1       2.405   7.113  19.103  0.00  0.00    +0.000 A 
ATOM      8  C   UNL     1       2.428   7.930  17.958  0.00  0.00    +0.000 A 
ATOM      9  C   UNL     1       1.819   9.185  17.959  0.00  0.00    +0.000 A 
ATOM     10  C   UNL     1       1.168   9.641  19.101  0.00  0.00    +0.000 A 
ATOM     11  C   UNL     1       1.122   8.839  20.240  0.00  0.00    +0.000 A 
ATOM     12  C   UNL     1       1.743   7.587  20.247  0.00  0.00    +0.000 A 
ENDBRANCH   6   7
ENDBRANCH   1   6
BRANCH   2  13
ATOM     13  C   UNL     1       6.779   5.204  17.888  0.00  0.00    +0.000 C 
BRANCH  13  14
ATOM     14  N   UNL     1       6.662   4.841  16.485  0.00  0.00    +0.000 N 
ATOM     15  C   UNL     1       5.895   3.882  15.890  0.00  0.00    +0.000 A 
ATOM     16  N   UNL     1       6.145   3.834  14.601  0.00  0.00    +0.000 NA
ATOM     17  C   UNL     1       7.113   4.794  14.450  0.00  0.00    +0.000 A 
ATOM     18  N   UNL     1       7.735   5.092  13.166  0.00  0.00    +0.000 N 
ATOM     19  O   UNL     1       7.332   4.456  12.180  0.00  0.00    +0.000 OA
ATOM     20  O   UNL     1       8.622   5.959  13.138  0.00  0.00    +0.000 OA
ATOM     21  N   UNL     1       7.466   5.442  15.576  0.00  0.00    +0.000 NA
ENDBRANCH  13  14
ENDBRANCH   2  13
TORSDOF 4
ENDMDL
MODEL 3
REMARK VINA RESULT:      -7.8      0.939      1.486
REMARK  Name = 
REMARK  5 active torsions:
REMARK  status: ('A' for Active; 'I' for Inactive)
REMARK    1  A    between atoms: C_1  and  C_2
REMARK    2  A    between atoms: C_2  and  N_3
REMARK    3  A    between atoms: C_2  and  C_15
REMARK    4  A    between atoms: C_4  and  C_6
REMARK    5  A    between atoms: C_6  and  N_7
REMARK                            x       y       z     vdW  Elec       q    Type
REMARK                         _______ _______ _______ _____ _____    ______ ____
ROOT
ATOM      1  N   UNL     1       3.435   5.123  18.338  0.00  0.00    +0.000 N 
ATOM      2  C   UNL     1       4.508   4.251  18.360  0.00  0.00    +0.000 C 
ATOM      3  O   UNL     1       5.155   4.037  19.384  0.00  0.00    +0.000 OA
ATOM      4  H   UNL     1       2.935   5.300  17.479  0.00  0.00    +0.000 HD
ENDROOT
BRANCH   1   6
ATOM      5  C   UNL     1       1.893   4.864  20.249  0.00  0.00    +0.000 C 
ATOM      6  C   UNL     1       2.954   5.736  19.571  0.00  0.00    +0.000 C 
BRANCH   6   7
ATOM      7  C   UNL     1       2.397   7.134  19.372  0.00  0.00    +0.000 A 
ATOM      8  C   UNL     1       1.732   7.752  20.446  0.00  0.00    +0.000 A 
ATOM      9  C   UNL     1       1.087   8.978  20.282  0.00  0.00    +0.000 A 
ATOM     10  C   UNL     1       1.106   9.613  19.044  0.00  0.00    +0.000 A 
ATOM     11  C   UNL     1       1.773   9.024  17.972  0.00  0.00    +0.000 A 
ATOM     12  C   UNL     1       2.408   7.788  18.130  0.00  0.00    +0.000 A 
ENDBRANCH   6   7
ENDBRANCH   1   6
BRANCH   2  13
ATOM     13  C   UNL     1       4.850   3.592  17.043  0.00  0.00    +0.000 C 
BRANCH  13  14
ATOM     14  N   UNL     1       5.891   4.279  16.295  0.00  0.00    +0.000 N 
ATOM     15  C   UNL     1       6.743   5.270  16.690  0.00  0.00    +0.000 A 
ATOM     16  N   UNL     1       7.481   5.665  15.678  0.00  0.00    +0.000 NA
ATOM     17  C   UNL     1       7.021   4.882  14.650  0.00  0.00    +0.000 A 
ATOM     18  N   UNL     1       7.536   4.982  13.291  0.00  0.00    +0.000 N 
ATOM     19  O   UNL     1       8.447   5.798  13.089  0.00  0.00    +0.000 OA
ATOM     20  O   UNL     1       7.034   4.249  12.424  0.00  0.00    +0.000 OA
ATOM     21  N   UNL     1       6.045   4.014  14.976  0.00  0.00    +0.000 NA
ENDBRANCH  13  14
ENDBRANCH   2  13
TORSDOF 4
ENDMDL
MODEL 4
REMARK VINA RESULT:      -7.7      0.994      1.835
REMARK  Name = 
REMARK  5 active torsions:
REMARK  status: ('A' for Active; 'I' for Inactive)
REMARK    1  A    between atoms: C_1  and  C_2
REMARK    2  A    between atoms: C_2  and  N_3
REMARK    3  A    between atoms: C_2  and  C_15
REMARK    4  A    between atoms: C_4  and  C_6
REMARK    5  A    between atoms: C_6  and  N_7
REMARK                            x       y       z     vdW  Elec       q    Type
REMARK                         _______ _______ _______ _____ _____    ______ ____
ROOT
ATOM      1  N   UNL     1       3.478   5.025  18.510  0.00  0.00    +0.000 N 
ATOM      2  C   UNL     1       4.702   4.382  18.486  0.00  0.00    +0.000 C 
ATOM      3  O   UNL     1       5.487   4.437  19.432  0.00  0.00    +0.000 OA
ATOM      4  H   UNL     1       2.862   4.984  17.711  0.00  0.00    +0.000 HD
ENDROOT
BRANCH   1   6
ATOM      5  C   UNL     1       2.106   4.794  20.550  0.00  0.00    +0.000 C 
ATOM      6  C   UNL     1       3.019   5.701  19.718  0.00  0.00    +0.000 C 
BRANCH   6   7
ATOM      7  C   UNL     1       2.305   7.011  19.443  0.00  0.00    +0.000 A 
ATOM      8  C   UNL     1       2.402   7.572  18.157  0.00  0.00    +0.000 A 
ATOM      9  C   UNL     1       1.879   8.836  17.883  0.00  0.00    +0.000 A 
ATOM     10  C   UNL     1       1.239   9.556  18.888  0.00  0.00    +0.000 A 
ATOM     11  C   UNL     1       1.120   9.010  20.164  0.00  0.00    +0.000 A 
ATOM     12  C   UNL     1       1.656   7.750  20.445  0.00  0.00    +0.000 A 
ENDBRANCH   6   7
ENDBRANCH   1   6
BRANCH   2  13
ATOM     13  C   UNL     1       5.025   3.624  17.219  0.00  0.00    +0.000 C 
BRANCH  13  14
ATOM     14  N   UNL     1       5.967   4.310  16.349  0.00  0.00    +0.000 N 
ATOM     15  C   UNL     1       6.767   5.387  16.601  0.00  0.00    +0.000 A 
ATOM     16  N   UNL     1       7.413   5.738  15.513  0.00  0.00    +0.000 NA
ATOM     17  C   UNL     1       6.950   4.837  14.588  0.00  0.00    +0.000 A 
ATOM     18  N   UNL     1       7.375   4.850  13.194  0.00  0.00    +0.000 N 
ATOM     19  O   UNL     1       8.211   5.703  12.863  0.00  0.00    +0.000 OA
ATOM     20  O   UNL     1       6.876   4.011  12.428  0.00  0.00    +0.000 OA
ATOM     21  N   UNL     1       6.061   3.939  15.050  0.00  0.00    +0.000 NA
ENDBRANCH  13  14
ENDBRANCH   2  13
TORSDOF 4
ENDMDL
MODEL 5
REMARK VINA RESULT:      -7.6      1.368      3.019
REMARK  Name = 
REMARK  5 active torsions:
REMARK  status: ('A' for Active; 'I' for Inactive)
REMARK    1  A    between atoms: C_1  and  C_2
REMARK    2  A    between atoms: C_2  and  N_3
REMARK    3  A    between atoms: C_2  and  C_15
REMARK    4  A    between atoms: C_4  and  C_6
REMARK    5  A    between atoms: C_6  and  N_7
REMARK                            x       y       z     vdW  Elec       q    Type
REMARK                         _______ _______ _______ _____ _____    ______ ____
ROOT
ATOM      1  N   UNL     1       4.130   6.090  17.649  0.00  0.00    +0.000 N 
ATOM      2  C   UNL     1       5.126   5.612  18.482  0.00  0.00    +0.000 C 
ATOM      3  O   UNL     1       4.920   5.357  19.668  0.00  0.00    +0.000 OA
ATOM      4  H   UNL     1       4.331   6.314  16.686  0.00  0.00    +0.000 HD
ENDROOT
BRANCH   1   6
ATOM      5  C   UNL     1       2.616   7.300  19.179  0.00  0.00    +0.000 C 
ATOM      6  C   UNL     1       2.755   6.197  18.125  0.00  0.00    +0.000 C 
BRANCH   6   7
ATOM      7  C   UNL     1       2.208   4.898  18.686  0.00  0.00    +0.000 A 
ATOM      8  C   UNL     1       2.139   3.776  17.841  0.00  0.00    +0.000 A 
ATOM      9  C   UNL     1       1.525   2.596  18.260  0.00  0.00    +0.000 A 
ATOM     10  C   UNL     1       0.979   2.513  19.537  0.00  0.00    +0.000 A 
ATOM     11  C   UNL     1       1.050   3.609  20.395  0.00  0.00    +0.000 A 
ATOM     12  C   UNL     1       1.652   4.798  19.972  0.00  0.00    +0.000 A 
ENDBRANCH   6   7
ENDBRANCH   1   6
BRANCH   2  13
ATOM     13  C   UNL     1       6.489   5.440  17.850  0.00  0.00    +0.000 C 
BRANCH  13  14
ATOM     14  N   UNL     1       6.442   4.992  16.467  0.00  0.00    +0.000 N 
ATOM     15  C   UNL     1       5.717   3.987  15.897  0.00  0.00    +0.000 A 
ATOM     16  N   UNL     1       6.027   3.866  14.627  0.00  0.00    +0.000 NA
ATOM     17  C   UNL     1       6.988   4.831  14.462  0.00  0.00    +0.000 A 
ATOM     18  N   UNL     1       7.664   5.062  13.192  0.00  0.00    +0.000 N 
ATOM     19  O   UNL     1       7.317   4.362  12.229  0.00  0.00    +0.000 OA
ATOM     20  O   UNL     1       8.540   5.940  13.152  0.00  0.00    +0.000 OA
ATOM     21  N   UNL     1       7.279   5.551  15.561  0.00  0.00    +0.000 NA
ENDBRANCH  13  14
ENDBRANCH   2  13
TORSDOF 4
ENDMDL
MODEL 6
REMARK VINA RESULT:      -7.6      1.340      3.000
REMARK  Name = 
REMARK  5 active torsions:
REMARK  status: ('A' for Active; 'I' for Inactive)
REMARK    1  A    between atoms: C_1  and  C_2
REMARK    2  A    between atoms: C_2  and  N_3
REMARK    3  A    between atoms: C_2  and  C_15
REMARK    4  A    between atoms: C_4  and  C_6
REMARK    5  A    between atoms: C_6  and  N_7
REMARK                            x       y       z     vdW  Elec       q    Type
REMARK                         _______ _______ _______ _____ _____    ______ ____
ROOT
ATOM      1  N   UNL     1       4.075   6.200  17.574  0.00  0.00    +0.000 N 
ATOM      2  C   UNL     1       5.126   5.673  18.302  0.00  0.00    +0.000 C 
ATOM      3  O   UNL     1       4.980   5.246  19.446  0.00  0.00    +0.000 OA
ATOM      4  H   UNL     1       4.226   6.566  16.645  0.00  0.00    +0.000 HD
ENDROOT
BRANCH   1   6
ATOM      5  C   UNL     1       2.585   7.002  19.374  0.00  0.00    +0.000 C 
ATOM      6  C   UNL     1       2.715   6.158  18.101  0.00  0.00    +0.000 C 
BRANCH   6   7
ATOM      7  C   UNL     1       2.220   4.751  18.382  0.00  0.00    +0.000 A 
ATOM      8  C   UNL     1       1.589   4.493  19.612  0.00  0.00    +0.000 A 
ATOM      9  C   UNL     1       1.234   3.196  19.979  0.00  0.00    +0.000 A 
ATOM     10  C   UNL     1       1.492   2.134  19.117  0.00  0.00    +0.000 A 
ATOM     11  C   UNL     1       2.102   2.372  17.888  0.00  0.00    +0.000 A 
ATOM     12  C   UNL     1       2.473   3.670  17.523  0.00  0.00    +0.000 A 
ENDBRANCH   6   7
ENDBRANCH   1   6
BRANCH   2  13
ATOM     13  C   UNL     1       6.471   5.673  17.611  0.00  0.00    +0.000 C 
BRANCH  13  14
ATOM     14  N   UNL     1       6.446   5.094  16.277  0.00  0.00    +0.000 N 
ATOM     15  C   UNL     1       5.851   3.950  15.831  0.00  0.00    +0.000 A 
ATOM     16  N   UNL     1       6.136   3.753  14.564  0.00  0.00    +0.000 NA
ATOM     17  C   UNL     1       6.948   4.819  14.273  0.00  0.00    +0.000 A 
ATOM     18  N   UNL     1       7.547   5.018  12.960  0.00  0.00    +0.000 N 
ATOM     19  O   UNL     1       7.272   4.190  12.079  0.00  0.00    +0.000 OA
ATOM     20  O   UNL     1       8.291   5.999  12.804  0.00  0.00    +0.000 OA
ATOM     21  N   UNL     1       7.169   5.673  15.290  0.00  0.00    +0.000 NA
ENDBRANCH  13  14
ENDBRANCH   2  13
TORSDOF 4
ENDMDL
MODEL 7
REMARK VINA RESULT:      -7.4      2.846      4.281
REMARK  Name = 
REMARK  5 active torsions:
REMARK  status: ('A' for Active; 'I' for Inactive)
REMARK    1  A    between atoms: C_1  and  C_2
REMARK    2  A    between atoms: C_2  and  N_3
REMARK    3  A    between atoms: C_2  and  C_15
REMARK    4  A    between atoms: C_4  and  C_6
REMARK    5  A    between atoms: C_6  and  N_7
REMARK                            x       y       z     vdW  Elec       q    Type
REMARK                         _______ _______ _______ _____ _____    ______ ____
ROOT
ATOM      1  N   UNL     1       4.209   5.694  17.608  0.00  0.00    +0.000 N 
ATOM      2  C   UNL     1       4.606   4.615  16.840  0.00  0.00    +0.000 C 
ATOM      3  O   UNL     1       3.807   3.773  16.433  0.00  0.00    +0.000 OA
ATOM      4  H   UNL     1       4.888   6.358  17.950  0.00  0.00    +0.000 HD
ENDROOT
BRANCH   1   6
ATOM      5  C   UNL     1       2.545   7.398  18.264  0.00  0.00    +0.000 C 
ATOM      6  C   UNL     1       2.794   5.939  17.866  0.00  0.00    +0.000 C 
BRANCH   6   7
ATOM      7  C   UNL     1       2.206   5.025  18.925  0.00  0.00    +0.000 A 
ATOM      8  C   UNL     1       2.566   5.235  20.268  0.00  0.00    +0.000 A 
ATOM      9  C   UNL     1       2.164   4.348  21.267  0.00  0.00    +0.000 A 
ATOM     10  C   UNL     1       1.385   3.241  20.941  0.00  0.00    +0.000 A 
ATOM     11  C   UNL     1       1.006   3.025  19.618  0.00  0.00    +0.000 A 
ATOM     12  C   UNL     1       1.420   3.905  18.613  0.00  0.00    +0.000 A 
ENDBRANCH   6   7
ENDBRANCH   1   6
BRANCH   2  13
ATOM     13  C   UNL     1       6.086   4.522  16.548  0.00  0.00    +0.000 C 
BRANCH  13  14
ATOM     14  N   UNL     1       6.900   5.422  17.350  0.00  0.00    +0.000 N 
ATOM     15  C   UNL     1       7.547   5.199  18.530  0.00  0.00    +0.000 A 
ATOM     16  N   UNL     1       8.110   6.307  18.957  0.00  0.00    +0.000 NA
ATOM     17  C   UNL     1       7.754   7.213  17.990  0.00  0.00    +0.000 A 
ATOM     18  N   UNL     1       8.136   8.618  18.046  0.00  0.00    +0.000 N 
ATOM     19  O   UNL     1       8.836   8.977  19.005  0.00  0.00    +0.000 OA
ATOM     20  O   UNL     1       7.740   9.364  17.137  0.00  0.00    +0.000 OA
ATOM     21  N   UNL     1       7.011   6.720  16.981  0.00  0.00    +0.000 NA
ENDBRANCH  13  14
ENDBRANCH   2  13
TORSDOF 4
ENDMDL
MODEL 8
REMARK VINA RESULT:      -7.3      1.134      1.694
REMARK  Name = 
REMARK  5 active torsions:
REMARK  status: ('A' for Active; 'I' for Inactive)
REMARK    1  A    between atoms: C_1  and  C_2
REMARK    2  A    between atoms: C_2  and  N_3
REMARK    3  A    between atoms: C_2  and  C_15
REMARK    4  A    between atoms: C_4  and  C_6
REMARK    5  A    between atoms: C_6  and  N_7
REMARK                            x       y       z     vdW  Elec       q    Type
REMARK                         _______ _______ _______ _____ _____    ______ ____
ROOT
ATOM      1  N   UNL     1       4.182   5.873  19.097  0.00  0.00    +0.000 N 
ATOM      2  C   UNL     1       4.816   4.661  19.304  0.00  0.00    +0.000 C 
ATOM      3  O   UNL     1       4.197   3.644  19.612  0.00  0.00    +0.000 OA
ATOM      4  H   UNL     1       4.715   6.699  18.869  0.00  0.00    +0.000 HD
ENDROOT
BRANCH   1   6
ATOM      5  C   UNL     1       2.102   5.206  17.943  0.00  0.00    +0.000 C 
ATOM      6  C   UNL     1       2.726   5.960  19.122  0.00  0.00    +0.000 C 
BRANCH   6   7
ATOM      7  C   UNL     1       2.207   7.386  19.133  0.00  0.00    +0.000 A 
ATOM      8  C   UNL     1       1.651   7.891  20.321  0.00  0.00    +0.000 A 
ATOM      9  C   UNL     1       1.040   9.144  20.354  0.00  0.00    +0.000 A 
ATOM     10  C   UNL     1       0.985   9.921  19.200  0.00  0.00    +0.000 A 
ATOM     11  C   UNL     1       1.544   9.444  18.016  0.00  0.00    +0.000 A 
ATOM     12  C   UNL     1       2.144   8.182  17.977  0.00  0.00    +0.000 A 
ENDBRANCH   6   7
ENDBRANCH   1   6
BRANCH   2  13
ATOM     13  C   UNL     1       6.320   4.669  19.147  0.00  0.00    +0.000 C 
BRANCH  13  14
ATOM     14  N   UNL     1       6.771   5.115  17.839  0.00  0.00    +0.000 N 
ATOM     15  C   UNL     1       7.381   6.280  17.474  0.00  0.00    +0.000 A 
ATOM     16  N   UNL     1       7.554   6.315  16.173  0.00  0.00    +0.000 NA
ATOM     17  C   UNL     1       7.002   5.127  15.767  0.00  0.00    +0.000 A 
ATOM     18  N   UNL     1       6.936   4.724  14.368  0.00  0.00    +0.000 N 
ATOM     19  O   UNL     1       7.434   5.494  13.533  0.00  0.00    +0.000 OA
ATOM     20  O   UNL     1       6.391   3.642  14.100  0.00  0.00    +0.000 OA
ATOM     21  N   UNL     1       6.507   4.353  16.751  0.00  0.00    +0.000 NA
ENDBRANCH  13  14
ENDBRANCH   2  13
TORSDOF 4
ENDMDL
MODEL 9
REMARK VINA RESULT:      -7.1      3.208      7.241
REMARK  Name = 
REMARK  5 active torsions:
REMARK  status: ('A' for Active; 'I' for Inactive)
REMARK    1  A    between atoms: C_1  and  C_2
REMARK    2  A    between atoms: C_2  and  N_3
REMARK    3  A    between atoms: C_2  and  C_15
REMARK    4  A    between atoms: C_4  and  C_6
REMARK    5  A    between atoms: C_6  and  N_7
REMARK                            x       y       z     vdW  Elec       q    Type
REMARK                         _______ _______ _______ _____ _____    ______ ____
ROOT
ATOM      1  N   UNL     1       6.433   5.170  14.665  0.00  0.00    +0.000 N 
ATOM      2  C   UNL     1       6.858   5.183  15.981  0.00  0.00    +0.000 C 
ATOM      3  O   UNL     1       7.872   4.590  16.346  0.00  0.00    +0.000 OA
ATOM      4  H   UNL     1       5.583   5.645  14.395  0.00  0.00    +0.000 HD
ENDROOT
BRANCH   1   6
ATOM      5  C   UNL     1       8.079   5.583  12.870  0.00  0.00    +0.000 C 
ATOM      6  C   UNL     1       7.247   4.544  13.629  0.00  0.00    +0.000 C 
BRANCH   6   7
ATOM      7  C   UNL     1       6.439   3.729  12.636  0.00  0.00    +0.000 A 
ATOM      8  C   UNL     1       5.074   4.027  12.475  0.00  0.00    +0.000 A 
ATOM      9  C   UNL     1       4.253   3.229  11.678  0.00  0.00    +0.000 A 
ATOM     10  C   UNL     1       4.786   2.126  11.018  0.00  0.00    +0.000 A 
ATOM     11  C   UNL     1       6.139   1.824  11.153  0.00  0.00    +0.000 A 
ATOM     12  C   UNL     1       6.961   2.613  11.963  0.00  0.00    +0.000 A 
ENDBRANCH   6   7
ENDBRANCH   1   6
BRANCH   2  13
ATOM     13  C   UNL     1       5.988   5.954  16.948  0.00  0.00    +0.000 C 
BRANCH  13  14
ATOM     14  N   UNL     1       5.065   5.119  17.700  0.00  0.00    +0.000 N 
ATOM     15  C   UNL     1       5.301   4.284  18.754  0.00  0.00    +0.000 A 
ATOM     16  N   UNL     1       4.197   3.657  19.093  0.00  0.00    +0.000 NA
ATOM     17  C   UNL     1       3.291   4.136  18.182  0.00  0.00    +0.000 A 
ATOM     18  N   UNL     1       1.901   3.698  18.146  0.00  0.00    +0.000 N 
ATOM     19  O   UNL     1       1.543   2.879  19.005  0.00  0.00    +0.000 OA
ATOM     20  O   UNL     1       1.166   4.170  17.265  0.00  0.00    +0.000 OA
ATOM     21  N   UNL     1       3.773   5.037  17.305  0.00  0.00    +0.000 NA
ENDBRANCH  13  14
ENDBRANCH   2  13
TORSDOF 4
ENDMDL
