MODEL 1
REMARK VINA RESULT:      -6.6      0.000      0.000
REMARK  Name = 
REMARK  13 active torsions:
REMARK  status: ('A' for Active; 'I' for Inactive)
REMARK    1  A    between atoms: C_1  and  C_2
REMARK    2  A    between atoms: C_2  and  C_3
REMARK    3  A    between atoms: C_4  and  C_5
REMARK    4  A    between atoms: C_5  and  C_6
REMARK    5  A    between atoms: C_6  and  C_7
REMARK    6  A    between atoms: C_7  and  C_8
REMARK    7  A    between atoms: C_9  and  C_10
REMARK    8  A    between atoms: C_10  and  C_11
REMARK    9  A    between atoms: C_11  and  C_12
REMARK   10  A    between atoms: N_14  and  C_15
REMARK   11  A    between atoms: C_15  and  C_16
REMARK   12  A    between atoms: C_16  and  C_17
REMARK   13  A    between atoms: C_17  and  O_19
REMARK                            x       y       z     vdW  Elec       q    Type
REMARK                         _______ _______ _______ _____ _____    ______ ____
ROOT
ATOM      1  C   UNL     1       6.444   5.077  18.000  0.00  0.00    +0.000 C 
ENDROOT
BRANCH   1   2
ATOM      2  C   UNL     1       6.499   4.836  16.536  0.00  0.00    +0.000 A 
ATOM      3  C   UNL     1       5.655   4.097  15.736  0.00  0.00    +0.000 A 
ATOM      4  N   UNL     1       6.164   4.264  14.485  0.00  0.00    +0.000 N 
ATOM      5  N   UNL     1       7.253   5.050  14.500  0.00  0.00    +0.000 NA
ATOM      6  N   UNL     1       7.470   5.406  15.758  0.00  0.00    +0.000 NA
BRANCH   4   7
ATOM      7  C   UNL     1       5.686   3.699  13.245  0.00  0.00    +0.000 C 
BRANCH   7   8
ATOM      8  C   UNL     1       6.771   3.671  12.179  0.00  0.00    +0.000 C 
BRANCH   8   9
ATOM      9  C   UNL     1       6.787   2.344  11.484  0.00  0.00    +0.000 C 
ATOM     10  O   UNL     1       7.770   1.838  10.962  0.00  0.00    +0.000 OA
BRANCH   9  11
ATOM     11  O   UNL     1       5.572   1.748  11.470  0.00  0.00    +0.000 OA
ATOM     12  H   UNL     1       5.508   0.980  10.868  0.00  0.00    +0.000 HD
ENDBRANCH   9  11
ENDBRANCH   8   9
ENDBRANCH   7   8
ENDBRANCH   4   7
ENDBRANCH   1   2
BRANCH   1  13
ATOM     13  C   UNL     1       5.354   6.092  18.354  0.00  0.00    +0.000 C 
BRANCH  13  16
ATOM     14  C   UNL     1       3.063   5.919  19.437  0.00  0.00    +0.000 C 
ATOM     15  C   UNL     1       2.519   7.005  18.542  0.00  0.00    +0.000 C 
ATOM     16  C   UNL     1       4.350   5.527  19.326  0.00  0.00    +0.000 C 
BRANCH  14  17
ATOM     17  C   UNL     1       2.171   5.268  20.487  0.00  0.00    +0.000 C 
BRANCH  17  18
ATOM     18  C   UNL     1       1.362   4.060  20.003  0.00  0.00    +0.000 C 
BRANCH  18  22
ATOM     19  C   UNL     1       3.561   1.251  18.445  0.00  0.00    +0.000 C 
ATOM     20  C   UNL     1       2.661   2.447  18.558  0.00  0.00    +0.000 C 
ATOM     21  C   UNL     1       2.313   3.176  17.289  0.00  0.00    +0.000 C 
ATOM     22  C   UNL     1       2.189   2.831  19.763  0.00  0.00    +0.000 C 
ENDBRANCH  18  22
ENDBRANCH  17  18
ENDBRANCH  14  17
ENDBRANCH  13  16
ENDBRANCH   1  13
TORSDOF 10
ENDMDL
MODEL 2
REMARK VINA RESULT:      -6.5      1.497      2.045
REMARK  Name = 
REMARK  13 active torsions:
REMARK  status: ('A' for Active; 'I' for Inactive)
REMARK    1  A    between atoms: C_1  and  C_2
REMARK    2  A    between atoms: C_2  and  C_3
REMARK    3  A    between atoms: C_4  and  C_5
REMARK    4  A    between atoms: C_5  and  C_6
REMARK    5  A    between atoms: C_6  and  C_7
REMARK    6  A    between atoms: C_7  and  C_8
REMARK    7  A    between atoms: C_9  and  C_10
REMARK    8  A    between atoms: C_10  and  C_11
REMARK    9  A    between atoms: C_11  and  C_12
REMARK   10  A    between atoms: N_14  and  C_15
REMARK   11  A    between atoms: C_15  and  C_16
REMARK   12  A    between atoms: C_16  and  C_17
REMARK   13  A    between atoms: C_17  and  O_19
REMARK                            x       y       z     vdW  Elec       q    Type
REMARK                         _______ _______ _______ _____ _____    ______ ____
ROOT
ATOM      1  C   UNL     1       6.022   4.193  16.929  0.00  0.00    +0.000 C 
ENDROOT
BRANCH   1   2
ATOM      2  C   UNL     1       6.525   4.428  15.552  0.00  0.00    +0.000 A 
ATOM      3  C   UNL     1       6.130   3.853  14.363  0.00  0.00    +0.000 A 
ATOM      4  N   UNL     1       6.903   4.475  13.431  0.00  0.00    +0.000 N 
ATOM      5  N   UNL     1       7.726   5.373  13.995  0.00  0.00    +0.000 NA
ATOM      6  N   UNL     1       7.504   5.351  15.302  0.00  0.00    +0.000 NA
BRANCH   4   7
ATOM      7  C   UNL     1       6.926   4.255  12.003  0.00  0.00    +0.000 C 
BRANCH   7   8
ATOM      8  C   UNL     1       7.155   2.791  11.658  0.00  0.00    +0.000 C 
BRANCH   8   9
ATOM      9  C   UNL     1       5.846   2.083  11.491  0.00  0.00    +0.000 C 
ATOM     10  O   UNL     1       4.758   2.635  11.401  0.00  0.00    +0.000 OA
BRANCH   9  11
ATOM     11  O   UNL     1       5.980   0.737  11.466  0.00  0.00    +0.000 OA
ATOM     12  H   UNL     1       5.409   0.289  10.812  0.00  0.00    +0.000 HD
ENDBRANCH   9  11
ENDBRANCH   8   9
ENDBRANCH   7   8
ENDBRANCH   4   7
ENDBRANCH   1   2
BRANCH   1  13
ATOM     13  C   UNL     1       4.492   4.228  16.974  0.00  0.00    +0.000 C 
BRANCH  13  16
ATOM     14  C   UNL     1       2.679   5.463  18.255  0.00  0.00    +0.000 C 
ATOM     15  C   UNL     1       1.600   4.665  17.565  0.00  0.00    +0.000 C 
ATOM     16  C   UNL     1       3.979   5.240  17.967  0.00  0.00    +0.000 C 
BRANCH  14  17
ATOM     17  C   UNL     1       2.312   6.540  19.270  0.00  0.00    +0.000 C 
BRANCH  17  18
ATOM     18  C   UNL     1       1.589   6.040  20.524  0.00  0.00    +0.000 C 
BRANCH  18  22
ATOM     19  C   UNL     1       2.611   2.454  21.644  0.00  0.00    +0.000 C 
ATOM     20  C   UNL     1       1.826   3.577  21.031  0.00  0.00    +0.000 C 
ATOM     21  C   UNL     1       0.576   3.218  20.274  0.00  0.00    +0.000 C 
ATOM     22  C   UNL     1       2.242   4.854  21.171  0.00  0.00    +0.000 C 
ENDBRANCH  18  22
ENDBRANCH  17  18
ENDBRANCH  14  17
ENDBRANCH  13  16
ENDBRANCH   1  13
TORSDOF 10
ENDMDL
MODEL 3
REMARK VINA RESULT:      -6.4      1.238      2.054
REMARK  Name = 
REMARK  13 active torsions:
REMARK  status: ('A' for Active; 'I' for Inactive)
REMARK    1  A    between atoms: C_1  and  C_2
REMARK    2  A    between atoms: C_2  and  C_3
REMARK    3  A    between atoms: C_4  and  C_5
REMARK    4  A    between atoms: C_5  and  C_6
REMARK    5  A    between atoms: C_6  and  C_7
REMARK    6  A    between atoms: C_7  and  C_8
REMARK    7  A    between atoms: C_9  and  C_10
REMARK    8  A    between atoms: C_10  and  C_11
REMARK    9  A    between atoms: C_11  and  C_12
REMARK   10  A    between atoms: N_14  and  C_15
REMARK   11  A    between atoms: C_15  and  C_16
REMARK   12  A    between atoms: C_16  and  C_17
REMARK   13  A    between atoms: C_17  and  O_19
REMARK                            x       y       z     vdW  Elec       q    Type
REMARK                         _______ _______ _______ _____ _____    ______ ____
ROOT
ATOM      1  C   UNL     1       7.005   5.292  17.423  0.00  0.00    +0.000 C 
ENDROOT
BRANCH   1   2
ATOM      2  C   UNL     1       7.021   4.959  15.977  0.00  0.00    +0.000 A 
ATOM      3  C   UNL     1       6.360   3.957  15.300  0.00  0.00    +0.000 A 
ATOM      4  N   UNL     1       6.715   4.156  14.001  0.00  0.00    +0.000 N 
ATOM      5  N   UNL     1       7.542   5.205  13.873  0.00  0.00    +0.000 NA
ATOM      6  N   UNL     1       7.740   5.706  15.083  0.00  0.00    +0.000 NA
BRANCH   4   7
ATOM      7  C   UNL     1       6.325   3.384  12.843  0.00  0.00    +0.000 C 
BRANCH   7   8
ATOM      8  C   UNL     1       5.032   3.898  12.228  0.00  0.00    +0.000 C 
BRANCH   8   9
ATOM      9  C   UNL     1       4.438   2.864  11.321  0.00  0.00    +0.000 C 
ATOM     10  O   UNL     1       3.349   2.956  10.772  0.00  0.00    +0.000 OA
BRANCH   9  11
ATOM     11  O   UNL     1       5.234   1.779  11.175  0.00  0.00    +0.000 OA
ATOM     12  H   UNL     1       5.988   1.913  10.567  0.00  0.00    +0.000 HD
ENDBRANCH   9  11
ENDBRANCH   8   9
ENDBRANCH   7   8
ENDBRANCH   4   7
ENDBRANCH   1   2
BRANCH   1  13
ATOM     13  C   UNL     1       6.328   6.642  17.673  0.00  0.00    +0.000 C 
BRANCH  13  16
ATOM     14  C   UNL     1       3.939   6.034  18.289  0.00  0.00    +0.000 C 
ATOM     15  C   UNL     1       4.393   5.425  19.592  0.00  0.00    +0.000 C 
ATOM     16  C   UNL     1       4.840   6.579  17.443  0.00  0.00    +0.000 C 
BRANCH  14  17
ATOM     17  C   UNL     1       2.464   6.024  17.906  0.00  0.00    +0.000 C 
BRANCH  17  18
ATOM     18  C   UNL     1       1.796   4.646  17.903  0.00  0.00    +0.000 C 
BRANCH  18  22
ATOM     19  C   UNL     1       1.205   2.725  21.238  0.00  0.00    +0.000 C 
ATOM     20  C   UNL     1       1.661   3.032  19.841  0.00  0.00    +0.000 C 
ATOM     21  C   UNL     1       2.495   1.993  19.139  0.00  0.00    +0.000 C 
ATOM     22  C   UNL     1       1.319   4.198  19.254  0.00  0.00    +0.000 C 
ENDBRANCH  18  22
ENDBRANCH  17  18
ENDBRANCH  14  17
ENDBRANCH  13  16
ENDBRANCH   1  13
TORSDOF 10
ENDMDL
MODEL 4
REMARK VINA RESULT:      -6.4      1.144      2.372
REMARK  Name = 
REMARK  13 active torsions:
REMARK  status: ('A' for Active; 'I' for Inactive)
REMARK    1  A    between atoms: C_1  and  C_2
REMARK    2  A    between atoms: C_2  and  C_3
REMARK    3  A    between atoms: C_4  and  C_5
REMARK    4  A    between atoms: C_5  and  C_6
REMARK    5  A    between atoms: C_6  and  C_7
REMARK    6  A    between atoms: C_7  and  C_8
REMARK    7  A    between atoms: C_9  and  C_10
REMARK    8  A    between atoms: C_10  and  C_11
REMARK    9  A    between atoms: C_11  and  C_12
REMARK   10  A    between atoms: N_14  and  C_15
REMARK   11  A    between atoms: C_15  and  C_16
REMARK   12  A    between atoms: C_16  and  C_17
REMARK   13  A    between atoms: C_17  and  O_19
REMARK                            x       y       z     vdW  Elec       q    Type
REMARK                         _______ _______ _______ _____ _____    ______ ____
ROOT
ATOM      1  C   UNL     1       7.185   4.524  17.797  0.00  0.00    +0.000 C 
ENDROOT
BRANCH   1   2
ATOM      2  C   UNL     1       6.949   4.601  16.333  0.00  0.00    +0.000 A 
ATOM      3  C   UNL     1       6.145   3.821  15.531  0.00  0.00    +0.000 A 
ATOM      4  N   UNL     1       6.290   4.370  14.295  0.00  0.00    +0.000 N 
ATOM      5  N   UNL     1       7.128   5.418  14.318  0.00  0.00    +0.000 NA
ATOM      6  N   UNL     1       7.543   5.568  15.568  0.00  0.00    +0.000 NA
BRANCH   4   7
ATOM      7  C   UNL     1       5.683   3.945  13.054  0.00  0.00    +0.000 C 
BRANCH   7   8
ATOM      8  C   UNL     1       6.724   3.500  12.037  0.00  0.00    +0.000 C 
BRANCH   8   9
ATOM      9  C   UNL     1       6.370   2.153  11.484  0.00  0.00    +0.000 C 
ATOM     10  O   UNL     1       5.232   1.764  11.262  0.00  0.00    +0.000 OA
BRANCH   9  11
ATOM     11  O   UNL     1       7.457   1.379  11.262  0.00  0.00    +0.000 OA
ATOM     12  H   UNL     1       8.031   1.691  10.535  0.00  0.00    +0.000 HD
ENDBRANCH   9  11
ENDBRANCH   8   9
ENDBRANCH   7   8
ENDBRANCH   4   7
ENDBRANCH   1   2
BRANCH   1  13
ATOM     13  C   UNL     1       5.899   4.800  18.580  0.00  0.00    +0.000 C 
BRANCH  13  16
ATOM     14  C   UNL     1       3.896   3.289  18.182  0.00  0.00    +0.000 C 
ATOM     15  C   UNL     1       3.291   4.286  17.225  0.00  0.00    +0.000 C 
ATOM     16  C   UNL     1       5.079   3.551  18.778  0.00  0.00    +0.000 C 
BRANCH  14  17
ATOM     17  C   UNL     1       3.170   1.987  18.500  0.00  0.00    +0.000 C 
BRANCH  17  18
ATOM     18  C   UNL     1       1.767   2.147  19.094  0.00  0.00    +0.000 C 
BRANCH  18  22
ATOM     19  C   UNL     1       1.298   5.618  20.793  0.00  0.00    +0.000 C 
ATOM     20  C   UNL     1       1.614   4.163  20.608  0.00  0.00    +0.000 C 
ATOM     21  C   UNL     1       2.163   3.415  21.793  0.00  0.00    +0.000 C 
ATOM     22  C   UNL     1       1.400   3.566  19.416  0.00  0.00    +0.000 C 
ENDBRANCH  18  22
ENDBRANCH  17  18
ENDBRANCH  14  17
ENDBRANCH  13  16
ENDBRANCH   1  13
TORSDOF 10
ENDMDL
MODEL 5
REMARK VINA RESULT:      -6.4      1.398      2.345
REMARK  Name = 
REMARK  13 active torsions:
REMARK  status: ('A' for Active; 'I' for Inactive)
REMARK    1  A    between atoms: C_1  and  C_2
REMARK    2  A    between atoms: C_2  and  C_3
REMARK    3  A    between atoms: C_4  and  C_5
REMARK    4  A    between atoms: C_5  and  C_6
REMARK    5  A    between atoms: C_6  and  C_7
REMARK    6  A    between atoms: C_7  and  C_8
REMARK    7  A    between atoms: C_9  and  C_10
REMARK    8  A    between atoms: C_10  and  C_11
REMARK    9  A    between atoms: C_11  and  C_12
REMARK   10  A    between atoms: N_14  and  C_15
REMARK   11  A    between atoms: C_15  and  C_16
REMARK   12  A    between atoms: C_16  and  C_17
REMARK   13  A    between atoms: C_17  and  O_19
REMARK                            x       y       z     vdW  Elec       q    Type
REMARK                         _______ _______ _______ _____ _____    ______ ____
ROOT
ATOM      1  C   UNL     1       4.507   7.289  16.958  0.00  0.00    +0.000 C 
ENDROOT
BRANCH   1   2
ATOM      2  C   UNL     1       5.472   6.429  16.228  0.00  0.00    +0.000 A 
ATOM      3  C   UNL     1       5.249   5.532  15.205  0.00  0.00    +0.000 A 
ATOM      4  N   UNL     1       6.493   5.069  14.904  0.00  0.00    +0.000 N 
ATOM      5  N   UNL     1       7.429   5.632  15.684  0.00  0.00    +0.000 NA
ATOM      6  N   UNL     1       6.812   6.470  16.505  0.00  0.00    +0.000 NA
BRANCH   4   7
ATOM      7  C   UNL     1       6.862   4.087  13.910  0.00  0.00    +0.000 C 
BRANCH   7   8
ATOM      8  C   UNL     1       5.770   3.897  12.868  0.00  0.00    +0.000 C 
BRANCH   8   9
ATOM      9  C   UNL     1       6.171   2.847  11.877  0.00  0.00    +0.000 C 
ATOM     10  O   UNL     1       7.312   2.659  11.479  0.00  0.00    +0.000 OA
BRANCH   9  11
ATOM     11  O   UNL     1       5.121   2.116  11.438  0.00  0.00    +0.000 OA
ATOM     12  H   UNL     1       5.331   1.178  11.260  0.00  0.00    +0.000 HD
ENDBRANCH   9  11
ENDBRANCH   8   9
ENDBRANCH   7   8
ENDBRANCH   4   7
ENDBRANCH   1   2
BRANCH   1  13
ATOM     13  C   UNL     1       3.904   6.552  18.156  0.00  0.00    +0.000 C 
BRANCH  13  16
ATOM     14  C   UNL     1       3.482   4.051  18.002  0.00  0.00    +0.000 C 
ATOM     15  C   UNL     1       4.739   3.756  18.782  0.00  0.00    +0.000 C 
ATOM     16  C   UNL     1       3.131   5.328  17.736  0.00  0.00    +0.000 C 
BRANCH  14  17
ATOM     17  C   UNL     1       2.607   2.913  17.489  0.00  0.00    +0.000 C 
BRANCH  17  18
ATOM     18  C   UNL     1       1.283   2.718  18.233  0.00  0.00    +0.000 C 
BRANCH  18  22
ATOM     19  C   UNL     1       1.426   2.462  22.115  0.00  0.00    +0.000 C 
ATOM     20  C   UNL     1       1.344   3.049  20.736  0.00  0.00    +0.000 C 
ATOM     21  C   UNL     1       1.156   4.538  20.626  0.00  0.00    +0.000 C 
ATOM     22  C   UNL     1       1.444   2.253  19.651  0.00  0.00    +0.000 C 
ENDBRANCH  18  22
ENDBRANCH  17  18
ENDBRANCH  14  17
ENDBRANCH  13  16
ENDBRANCH   1  13
TORSDOF 10
ENDMDL
MODEL 6
REMARK VINA RESULT:      -6.4      1.183      2.023
REMARK  Name = 
REMARK  13 active torsions:
REMARK  status: ('A' for Active; 'I' for Inactive)
REMARK    1  A    between atoms: C_1  and  C_2
REMARK    2  A    between atoms: C_2  and  C_3
REMARK    3  A    between atoms: C_4  and  C_5
REMARK    4  A    between atoms: C_5  and  C_6
REMARK    5  A    between atoms: C_6  and  C_7
REMARK    6  A    between atoms: C_7  and  C_8
REMARK    7  A    between atoms: C_9  and  C_10
REMARK    8  A    between atoms: C_10  and  C_11
REMARK    9  A    between atoms: C_11  and  C_12
REMARK   10  A    between atoms: N_14  and  C_15
REMARK   11  A    between atoms: C_15  and  C_16
REMARK   12  A    between atoms: C_16  and  C_17
REMARK   13  A    between atoms: C_17  and  O_19
REMARK                            x       y       z     vdW  Elec       q    Type
REMARK                         _______ _______ _______ _____ _____    ______ ____
ROOT
ATOM      1  C   UNL     1       7.212   5.234  17.904  0.00  0.00    +0.000 C 
ENDROOT
BRANCH   1   2
ATOM      2  C   UNL     1       6.683   5.175  16.519  0.00  0.00    +0.000 A 
ATOM      3  C   UNL     1       6.504   4.087  15.692  0.00  0.00    +0.000 A 
ATOM      4  N   UNL     1       5.954   4.620  14.568  0.00  0.00    +0.000 N 
ATOM      5  N   UNL     1       5.802   5.950  14.679  0.00  0.00    +0.000 NA
ATOM      6  N   UNL     1       6.250   6.303  15.875  0.00  0.00    +0.000 NA
BRANCH   4   7
ATOM      7  C   UNL     1       5.569   3.938  13.354  0.00  0.00    +0.000 C 
BRANCH   7   8
ATOM      8  C   UNL     1       6.773   3.597  12.488  0.00  0.00    +0.000 C 
BRANCH   8   9
ATOM      9  C   UNL     1       6.478   2.406  11.630  0.00  0.00    +0.000 C 
ATOM     10  O   UNL     1       5.363   1.945  11.429  0.00  0.00    +0.000 OA
BRANCH   9  11
ATOM     11  O   UNL     1       7.595   1.859  11.096  0.00  0.00    +0.000 OA
ATOM     12  H   UNL     1       7.682   0.897  11.246  0.00  0.00    +0.000 HD
ENDBRANCH   9  11
ENDBRANCH   8   9
ENDBRANCH   7   8
ENDBRANCH   4   7
ENDBRANCH   1   2
BRANCH   1  13
ATOM     13  C   UNL     1       6.090   5.072  18.933  0.00  0.00    +0.000 C 
BRANCH  13  16
ATOM     14  C   UNL     1       3.761   4.774  17.963  0.00  0.00    +0.000 C 
ATOM     15  C   UNL     1       3.518   6.262  18.000  0.00  0.00    +0.000 C 
ATOM     16  C   UNL     1       4.938   4.266  18.391  0.00  0.00    +0.000 C 
BRANCH  14  17
ATOM     17  C   UNL     1       2.677   3.827  17.460  0.00  0.00    +0.000 C 
BRANCH  17  18
ATOM     18  C   UNL     1       1.341   3.908  18.203  0.00  0.00    +0.000 C 
BRANCH  18  22
ATOM     19  C   UNL     1       1.350   2.619  21.877  0.00  0.00    +0.000 C 
ATOM     20  C   UNL     1       1.531   3.522  20.692  0.00  0.00    +0.000 C 
ATOM     21  C   UNL     1       2.000   4.928  20.956  0.00  0.00    +0.000 C 
ATOM     22  C   UNL     1       1.283   3.068  19.445  0.00  0.00    +0.000 C 
ENDBRANCH  18  22
ENDBRANCH  17  18
ENDBRANCH  14  17
ENDBRANCH  13  16
ENDBRANCH   1  13
TORSDOF 10
ENDMDL
MODEL 7
REMARK VINA RESULT:      -6.4      3.722      6.671
REMARK  Name = 
REMARK  13 active torsions:
REMARK  status: ('A' for Active; 'I' for Inactive)
REMARK    1  A    between atoms: C_1  and  C_2
REMARK    2  A    between atoms: C_2  and  C_3
REMARK    3  A    between atoms: C_4  and  C_5
REMARK    4  A    between atoms: C_5  and  C_6
REMARK    5  A    between atoms: C_6  and  C_7
REMARK    6  A    between atoms: C_7  and  C_8
REMARK    7  A    between atoms: C_9  and  C_10
REMARK    8  A    between atoms: C_10  and  C_11
REMARK    9  A    between atoms: C_11  and  C_12
REMARK   10  A    between atoms: N_14  and  C_15
REMARK   11  A    between atoms: C_15  and  C_16
REMARK   12  A    between atoms: C_16  and  C_17
REMARK   13  A    between atoms: C_17  and  O_19
REMARK                            x       y       z     vdW  Elec       q    Type
REMARK                         _______ _______ _______ _____ _____    ______ ____
ROOT
ATOM      1  C   UNL     1       3.011   7.368  17.433  0.00  0.00    +0.000 C 
ENDROOT
BRANCH   1   2
ATOM      2  C   UNL     1       2.581   6.347  18.421  0.00  0.00    +0.000 A 
ATOM      3  C   UNL     1       2.196   5.039  18.221  0.00  0.00    +0.000 A 
ATOM      4  N   UNL     1       1.953   4.577  19.477  0.00  0.00    +0.000 N 
ATOM      5  N   UNL     1       2.167   5.528  20.400  0.00  0.00    +0.000 NA
ATOM      6  N   UNL     1       2.551   6.623  19.761  0.00  0.00    +0.000 NA
BRANCH   4   7
ATOM      7  C   UNL     1       1.502   3.262  19.872  0.00  0.00    +0.000 C 
BRANCH   7   8
ATOM      8  C   UNL     1       2.628   2.433  20.473  0.00  0.00    +0.000 C 
BRANCH   8   9
ATOM      9  C   UNL     1       3.603   2.028  19.410  0.00  0.00    +0.000 C 
ATOM     10  O   UNL     1       3.299   1.616  18.300  0.00  0.00    +0.000 OA
BRANCH   9  11
ATOM     11  O   UNL     1       4.890   2.147  19.811  0.00  0.00    +0.000 OA
ATOM     12  H   UNL     1       5.495   2.489  19.123  0.00  0.00    +0.000 HD
ENDBRANCH   9  11
ENDBRANCH   8   9
ENDBRANCH   7   8
ENDBRANCH   4   7
ENDBRANCH   1   2
BRANCH   1  13
ATOM     13  C   UNL     1       4.518   7.289  17.175  0.00  0.00    +0.000 C 
BRANCH  13  16
ATOM     14  C   UNL     1       6.127   5.436  16.517  0.00  0.00    +0.000 C 
ATOM     15  C   UNL     1       7.239   6.072  17.313  0.00  0.00    +0.000 C 
ATOM     16  C   UNL     1       4.905   6.011  16.476  0.00  0.00    +0.000 C 
BRANCH  14  17
ATOM     17  C   UNL     1       6.375   4.151  15.736  0.00  0.00    +0.000 C 
BRANCH  17  18
ATOM     18  C   UNL     1       6.678   4.337  14.246  0.00  0.00    +0.000 C 
BRANCH  18  22
ATOM     19  C   UNL     1       4.241   3.156  11.450  0.00  0.00    +0.000 C 
ATOM     20  C   UNL     1       5.509   3.388  12.220  0.00  0.00    +0.000 C 
ATOM     21  C   UNL     1       6.773   2.780  11.674  0.00  0.00    +0.000 C 
ATOM     22  C   UNL     1       5.493   4.122  13.352  0.00  0.00    +0.000 C 
ENDBRANCH  18  22
ENDBRANCH  17  18
ENDBRANCH  14  17
ENDBRANCH  13  16
ENDBRANCH   1  13
TORSDOF 10
ENDMDL
MODEL 8
REMARK VINA RESULT:      -6.4      4.369      6.992
REMARK  Name = 
REMARK  13 active torsions:
REMARK  status: ('A' for Active; 'I' for Inactive)
REMARK    1  A    between atoms: C_1  and  C_2
REMARK    2  A    between atoms: C_2  and  C_3
REMARK    3  A    between atoms: C_4  and  C_5
REMARK    4  A    between atoms: C_5  and  C_6
REMARK    5  A    between atoms: C_6  and  C_7
REMARK    6  A    between atoms: C_7  and  C_8
REMARK    7  A    between atoms: C_9  and  C_10
REMARK    8  A    between atoms: C_10  and  C_11
REMARK    9  A    between atoms: C_11  and  C_12
REMARK   10  A    between atoms: N_14  and  C_15
REMARK   11  A    between atoms: C_15  and  C_16
REMARK   12  A    between atoms: C_16  and  C_17
REMARK   13  A    between atoms: C_17  and  O_19
REMARK                            x       y       z     vdW  Elec       q    Type
REMARK                         _______ _______ _______ _____ _____    ______ ____
ROOT
ATOM      1  C   UNL     1       6.250   4.747  19.223  0.00  0.00    +0.000 C 
ENDROOT
BRANCH   1   2
ATOM      2  C   UNL     1       5.062   3.857  19.179  0.00  0.00    +0.000 A 
ATOM      3  C   UNL     1       3.884   4.001  18.480  0.00  0.00    +0.000 A 
ATOM      4  N   UNL     1       3.186   2.874  18.786  0.00  0.00    +0.000 N 
ATOM      5  N   UNL     1       3.876   2.081  19.622  0.00  0.00    +0.000 NA
ATOM      6  N   UNL     1       5.032   2.678  19.873  0.00  0.00    +0.000 NA
BRANCH   4   7
ATOM      7  C   UNL     1       1.864   2.495  18.343  0.00  0.00    +0.000 C 
BRANCH   7   8
ATOM      8  C   UNL     1       0.784   3.362  18.974  0.00  0.00    +0.000 C 
BRANCH   8   9
ATOM      9  C   UNL     1       1.053   3.550  20.435  0.00  0.00    +0.000 C 
ATOM     10  O   UNL     1       0.993   2.665  21.278  0.00  0.00    +0.000 OA
BRANCH   9  11
ATOM     11  O   UNL     1       1.360   4.830  20.749  0.00  0.00    +0.000 OA
ATOM     12  H   UNL     1       1.522   5.405  19.975  0.00  0.00    +0.000 HD
ENDBRANCH   9  11
ENDBRANCH   8   9
ENDBRANCH   7   8
ENDBRANCH   4   7
ENDBRANCH   1   2
BRANCH   1  13
ATOM     13  C   UNL     1       6.194   5.802  18.115  0.00  0.00    +0.000 C 
BRANCH  13  16
ATOM     14  C   UNL     1       6.212   5.602  15.582  0.00  0.00    +0.000 C 
ATOM     15  C   UNL     1       5.081   6.593  15.461  0.00  0.00    +0.000 C 
ATOM     16  C   UNL     1       6.695   5.266  16.798  0.00  0.00    +0.000 C 
BRANCH  14  17
ATOM     17  C   UNL     1       6.808   4.957  14.337  0.00  0.00    +0.000 C 
BRANCH  17  18
ATOM     18  C   UNL     1       6.128   3.663  13.879  0.00  0.00    +0.000 C 
BRANCH  18  22
ATOM     19  C   UNL     1       3.781   3.280  10.797  0.00  0.00    +0.000 C 
ATOM     20  C   UNL     1       4.908   3.038  11.759  0.00  0.00    +0.000 C 
ATOM     21  C   UNL     1       5.804   1.857  11.495  0.00  0.00    +0.000 C 
ATOM     22  C   UNL     1       5.095   3.864  12.809  0.00  0.00    +0.000 C 
ENDBRANCH  18  22
ENDBRANCH  17  18
ENDBRANCH  14  17
ENDBRANCH  13  16
ENDBRANCH   1  13
TORSDOF 10
ENDMDL
MODEL 9
REMARK VINA RESULT:      -6.4      1.065      1.459
REMARK  Name = 
REMARK  13 active torsions:
REMARK  status: ('A' for Active; 'I' for Inactive)
REMARK    1  A    between atoms: C_1  and  C_2
REMARK    2  A    between atoms: C_2  and  C_3
REMARK    3  A    between atoms: C_4  and  C_5
REMARK    4  A    between atoms: C_5  and  C_6
REMARK    5  A    between atoms: C_6  and  C_7
REMARK    6  A    between atoms: C_7  and  C_8
REMARK    7  A    between atoms: C_9  and  C_10
REMARK    8  A    between atoms: C_10  and  C_11
REMARK    9  A    between atoms: C_11  and  C_12
REMARK   10  A    between atoms: N_14  and  C_15
REMARK   11  A    between atoms: C_15  and  C_16
REMARK   12  A    between atoms: C_16  and  C_17
REMARK   13  A    between atoms: C_17  and  O_19
REMARK                            x       y       z     vdW  Elec       q    Type
REMARK                         _______ _______ _______ _____ _____    ______ ____
ROOT
ATOM      1  C   UNL     1       6.520   4.482  18.558  0.00  0.00    +0.000 C 
ENDROOT
BRANCH   1   2
ATOM      2  C   UNL     1       6.778   4.737  17.118  0.00  0.00    +0.000 A 
ATOM      3  C   UNL     1       6.297   4.076  16.009  0.00  0.00    +0.000 A 
ATOM      4  N   UNL     1       6.830   4.765  14.964  0.00  0.00    +0.000 N 
ATOM      5  N   UNL     1       7.594   5.785  15.387  0.00  0.00    +0.000 NA
ATOM      6  N   UNL     1       7.571   5.776  16.712  0.00  0.00    +0.000 NA
BRANCH   4   7
ATOM      7  C   UNL     1       6.674   4.504  13.551  0.00  0.00    +0.000 C 
BRANCH   7   8
ATOM      8  C   UNL     1       5.489   3.593  13.270  0.00  0.00    +0.000 C 
BRANCH   8   9
ATOM      9  C   UNL     1       5.684   2.866  11.975  0.00  0.00    +0.000 C 
ATOM     10  O   UNL     1       6.751   2.422  11.575  0.00  0.00    +0.000 OA
BRANCH   9  11
ATOM     11  O   UNL     1       4.541   2.759  11.259  0.00  0.00    +0.000 OA
ATOM     12  H   UNL     1       4.558   3.229  10.402  0.00  0.00    +0.000 HD
ENDBRANCH   9  11
ENDBRANCH   8   9
ENDBRANCH   7   8
ENDBRANCH   4   7
ENDBRANCH   1   2
BRANCH   1  13
ATOM     13  C   UNL     1       5.795   5.662  19.209  0.00  0.00    +0.000 C 
BRANCH  13  16
ATOM     14  C   UNL     1       3.477   6.082  18.256  0.00  0.00    +0.000 C 
ATOM     15  C   UNL     1       4.044   6.973  17.178  0.00  0.00    +0.000 C 
ATOM     16  C   UNL     1       4.297   5.502  19.159  0.00  0.00    +0.000 C 
BRANCH  14  17
ATOM     17  C   UNL     1       1.975   5.843  18.348  0.00  0.00    +0.000 C 
BRANCH  17  18
ATOM     18  C   UNL     1       1.474   4.554  17.690  0.00  0.00    +0.000 C 
BRANCH  18  22
ATOM     19  C   UNL     1       3.600   1.349  18.292  0.00  0.00    +0.000 C 
ATOM     20  C   UNL     1       2.592   2.441  18.503  0.00  0.00    +0.000 C 
ATOM     21  C   UNL     1       1.708   2.344  19.718  0.00  0.00    +0.000 C 
ATOM     22  C   UNL     1       2.503   3.464  17.628  0.00  0.00    +0.000 C 
ENDBRANCH  18  22
ENDBRANCH  17  18
ENDBRANCH  14  17
ENDBRANCH  13  16
ENDBRANCH   1  13
TORSDOF 10
ENDMDL
