MODEL 1
REMARK VINA RESULT:      -6.6      0.000      0.000
REMARK  Name = 
REMARK  5 active torsions:
REMARK  status: ('A' for Active; 'I' for Inactive)
REMARK    1  A    between atoms: C_1  and  O_2
REMARK    2  A    between atoms: O_2  and  C_3
REMARK    3  A    between atoms: C_7  and  C_8
REMARK    4  A    between atoms: C_10  and  C_11
REMARK    5  A    between atoms: N_13  and  C_14
REMARK                            x       y       z     vdW  Elec       q    Type
REMARK                         _______ _______ _______ _____ _____    ______ ____
ROOT
ATOM      1  C   UNL     1       4.317   4.665  17.727  0.00  0.00    +0.000 C 
ATOM      2  C   UNL     1       3.498   5.724  17.796  0.00  0.00    +0.000 C 
ATOM      3  C   UNL     1       2.272   5.763  18.653  0.00  0.00    +0.000 C 
ATOM      4  C   UNL     1       2.371   6.930  19.641  0.00  0.00    +0.000 C 
ATOM      5  C   UNL     1       1.952   4.455  19.410  0.00  0.00    +0.000 C 
ATOM      6  N   UNL     1       2.721   3.247  19.118  0.00  0.00    +0.000 NA
ATOM      7  C   UNL     1       1.933   2.155  18.577  0.00  0.00    +0.000 C 
ATOM      8  C   UNL     1       4.046   3.402  18.510  0.00  0.00    +0.000 C 
ENDROOT
BRANCH   1  13
ATOM      9  C   UNL     1       6.878   4.594  17.241  0.00  0.00    +0.000 A 
ATOM     10  N   UNL     1       7.769   4.584  16.245  0.00  0.00    +0.000 NA
ATOM     11  S   UNL     1       6.855   4.644  14.855  0.00  0.00    +0.000 S 
ATOM     12  N   UNL     1       5.325   4.677  15.509  0.00  0.00    +0.000 NA
ATOM     13  C   UNL     1       5.477   4.634  16.847  0.00  0.00    +0.000 A 
BRANCH   9  15
ATOM     14  C   UNL     1       7.752   5.846  19.025  0.00  0.00    +0.000 C 
ATOM     15  O   UNL     1       7.334   4.575  18.525  0.00  0.00    +0.000 OA
ENDBRANCH   9  15
ENDBRANCH   1  13
TORSDOF 2
ENDMDL
MODEL 2
REMARK VINA RESULT:      -6.3      0.779      2.232
REMARK  Name = 
REMARK  5 active torsions:
REMARK  status: ('A' for Active; 'I' for Inactive)
REMARK    1  A    between atoms: C_1  and  O_2
REMARK    2  A    between atoms: O_2  and  C_3
REMARK    3  A    between atoms: C_7  and  C_8
REMARK    4  A    between atoms: C_10  and  C_11
REMARK    5  A    between atoms: N_13  and  C_14
REMARK                            x       y       z     vdW  Elec       q    Type
REMARK                         _______ _______ _______ _____ _____    ______ ____
ROOT
ATOM      1  C   UNL     1       4.179   4.361  17.689  0.00  0.00    +0.000 C 
ATOM      2  C   UNL     1       3.891   3.283  18.432  0.00  0.00    +0.000 C 
ATOM      3  C   UNL     1       2.683   3.186  19.310  0.00  0.00    +0.000 C 
ATOM      4  C   UNL     1       1.832   1.985  18.884  0.00  0.00    +0.000 C 
ATOM      5  C   UNL     1       1.808   4.458  19.375  0.00  0.00    +0.000 C 
ATOM      6  N   UNL     1       2.284   5.692  18.753  0.00  0.00    +0.000 NA
ATOM      7  C   UNL     1       2.490   6.786  19.683  0.00  0.00    +0.000 C 
ATOM      8  C   UNL     1       3.297   5.588  17.699  0.00  0.00    +0.000 C 
ENDROOT
BRANCH   1  13
ATOM      9  C   UNL     1       6.760   4.546  17.361  0.00  0.00    +0.000 A 
ATOM     10  N   UNL     1       7.706   4.630  16.421  0.00  0.00    +0.000 NA
ATOM     11  S   UNL     1       6.876   4.608  14.978  0.00  0.00    +0.000 S 
ATOM     12  N   UNL     1       5.314   4.485  15.537  0.00  0.00    +0.000 NA
ATOM     13  C   UNL     1       5.388   4.450  16.882  0.00  0.00    +0.000 A 
BRANCH   9  15
ATOM     14  C   UNL     1       7.746   5.785  19.095  0.00  0.00    +0.000 C 
ATOM     15  O   UNL     1       7.136   4.566  18.670  0.00  0.00    +0.000 OA
ENDBRANCH   9  15
ENDBRANCH   1  13
TORSDOF 2
ENDMDL
MODEL 3
REMARK VINA RESULT:      -6.2      2.678      5.060
REMARK  Name = 
REMARK  5 active torsions:
REMARK  status: ('A' for Active; 'I' for Inactive)
REMARK    1  A    between atoms: C_1  and  O_2
REMARK    2  A    between atoms: O_2  and  C_3
REMARK    3  A    between atoms: C_7  and  C_8
REMARK    4  A    between atoms: C_10  and  C_11
REMARK    5  A    between atoms: N_13  and  C_14
REMARK                            x       y       z     vdW  Elec       q    Type
REMARK                         _______ _______ _______ _____ _____    ______ ____
ROOT
ATOM      1  C   UNL     1       4.403   4.051  17.789  0.00  0.00    +0.000 C 
ATOM      2  C   UNL     1       4.562   4.452  16.520  0.00  0.00    +0.000 C 
ATOM      3  C   UNL     1       5.889   4.814  15.930  0.00  0.00    +0.000 C 
ATOM      4  C   UNL     1       6.177   3.920  14.721  0.00  0.00    +0.000 C 
ATOM      5  C   UNL     1       7.082   4.776  16.912  0.00  0.00    +0.000 C 
ATOM      6  N   UNL     1       6.834   4.580  18.339  0.00  0.00    +0.000 NA
ATOM      7  C   UNL     1       7.248   5.691  19.174  0.00  0.00    +0.000 C 
ATOM      8  C   UNL     1       5.572   3.952  18.741  0.00  0.00    +0.000 C 
ENDROOT
BRANCH   1  13
ATOM      9  C   UNL     1       2.370   4.523  19.354  0.00  0.00    +0.000 A 
ATOM     10  N   UNL     1       1.182   4.037  19.725  0.00  0.00    +0.000 NA
ATOM     11  S   UNL     1       1.001   2.636  18.845  0.00  0.00    +0.000 S 
ATOM     12  N   UNL     1       2.425   2.641  17.985  0.00  0.00    +0.000 NA
ATOM     13  C   UNL     1       3.094   3.752  18.353  0.00  0.00    +0.000 A 
BRANCH   9  15
ATOM     14  C   UNL     1       2.510   6.862  19.199  0.00  0.00    +0.000 C 
ATOM     15  O   UNL     1       2.815   5.675  19.931  0.00  0.00    +0.000 OA
ENDBRANCH   9  15
ENDBRANCH   1  13
TORSDOF 2
ENDMDL
MODEL 4
REMARK VINA RESULT:      -6.1      2.699      5.005
REMARK  Name = 
REMARK  5 active torsions:
REMARK  status: ('A' for Active; 'I' for Inactive)
REMARK    1  A    between atoms: C_1  and  O_2
REMARK    2  A    between atoms: O_2  and  C_3
REMARK    3  A    between atoms: C_7  and  C_8
REMARK    4  A    between atoms: C_10  and  C_11
REMARK    5  A    between atoms: N_13  and  C_14
REMARK                            x       y       z     vdW  Elec       q    Type
REMARK                         _______ _______ _______ _____ _____    ______ ____
ROOT
ATOM      1  C   UNL     1       4.987   5.095  18.441  0.00  0.00    +0.000 C 
ATOM      2  C   UNL     1       6.216   5.373  18.898  0.00  0.00    +0.000 C 
ATOM      3  C   UNL     1       7.377   5.683  18.006  0.00  0.00    +0.000 C 
ATOM      4  C   UNL     1       7.932   7.070  18.344  0.00  0.00    +0.000 C 
ATOM      5  C   UNL     1       7.091   5.584  16.489  0.00  0.00    +0.000 C 
ATOM      6  N   UNL     1       5.816   5.037  16.031  0.00  0.00    +0.000 NA
ATOM      7  C   UNL     1       5.935   3.821  15.249  0.00  0.00    +0.000 C 
ATOM      8  C   UNL     1       4.683   5.055  16.961  0.00  0.00    +0.000 C 
ENDROOT
BRANCH   1  13
ATOM      9  C   UNL     1       3.522   3.419  19.799  0.00  0.00    +0.000 A 
ATOM     10  N   UNL     1       2.456   3.351  20.602  0.00  0.00    +0.000 NA
ATOM     11  S   UNL     1       1.925   4.923  20.738  0.00  0.00    +0.000 S 
ATOM     12  N   UNL     1       3.046   5.698  19.785  0.00  0.00    +0.000 NA
ATOM     13  C   UNL     1       3.886   4.748  19.328  0.00  0.00    +0.000 A 
BRANCH   9  15
ATOM     14  C   UNL     1       3.575   1.527  18.409  0.00  0.00    +0.000 C 
ATOM     15  O   UNL     1       4.171   2.265  19.476  0.00  0.00    +0.000 OA
ENDBRANCH   9  15
ENDBRANCH   1  13
TORSDOF 2
ENDMDL
MODEL 5
REMARK VINA RESULT:      -6.1      2.819      5.188
REMARK  Name = 
REMARK  5 active torsions:
REMARK  status: ('A' for Active; 'I' for Inactive)
REMARK    1  A    between atoms: C_1  and  O_2
REMARK    2  A    between atoms: O_2  and  C_3
REMARK    3  A    between atoms: C_7  and  C_8
REMARK    4  A    between atoms: C_10  and  C_11
REMARK    5  A    between atoms: N_13  and  C_14
REMARK                            x       y       z     vdW  Elec       q    Type
REMARK                         _______ _______ _______ _____ _____    ______ ____
ROOT
ATOM      1  C   UNL     1       4.792   4.970  18.222  0.00  0.00    +0.000 C 
ATOM      2  C   UNL     1       4.512   5.194  16.931  0.00  0.00    +0.000 C 
ATOM      3  C   UNL     1       5.556   5.485  15.899  0.00  0.00    +0.000 C 
ATOM      4  C   UNL     1       5.485   4.436  14.784  0.00  0.00    +0.000 C 
ATOM      5  C   UNL     1       7.002   5.593  16.433  0.00  0.00    +0.000 C 
ATOM      6  N   UNL     1       7.239   5.590  17.874  0.00  0.00    +0.000 NA
ATOM      7  C   UNL     1       7.841   6.810  18.381  0.00  0.00    +0.000 C 
ATOM      8  C   UNL     1       6.210   5.012  18.743  0.00  0.00    +0.000 C 
ENDROOT
BRANCH   1  13
ATOM      9  C   UNL     1       3.395   3.469  19.834  0.00  0.00    +0.000 A 
ATOM     10  N   UNL     1       2.392   3.507  20.715  0.00  0.00    +0.000 NA
ATOM     11  S   UNL     1       1.907   5.099  20.741  0.00  0.00    +0.000 S 
ATOM     12  N   UNL     1       2.971   5.750  19.640  0.00  0.00    +0.000 NA
ATOM     13  C   UNL     1       3.753   4.738  19.216  0.00  0.00    +0.000 A 
BRANCH   9  15
ATOM     14  C   UNL     1       3.491   1.595  18.422  0.00  0.00    +0.000 C 
ATOM     15  O   UNL     1       3.993   2.272  19.575  0.00  0.00    +0.000 OA
ENDBRANCH   9  15
ENDBRANCH   1  13
TORSDOF 2
ENDMDL
MODEL 6
REMARK VINA RESULT:      -6.0      1.973      2.334
REMARK  Name = 
REMARK  5 active torsions:
REMARK  status: ('A' for Active; 'I' for Inactive)
REMARK    1  A    between atoms: C_1  and  O_2
REMARK    2  A    between atoms: O_2  and  C_3
REMARK    3  A    between atoms: C_7  and  C_8
REMARK    4  A    between atoms: C_10  and  C_11
REMARK    5  A    between atoms: N_13  and  C_14
REMARK                            x       y       z     vdW  Elec       q    Type
REMARK                         _______ _______ _______ _____ _____    ______ ____
ROOT
ATOM      1  C   UNL     1       4.347   4.634  19.258  0.00  0.00    +0.000 C 
ATOM      2  C   UNL     1       3.405   5.586  19.225  0.00  0.00    +0.000 C 
ATOM      3  C   UNL     1       1.977   5.346  19.603  0.00  0.00    +0.000 C 
ATOM      4  C   UNL     1       1.583   6.280  20.752  0.00  0.00    +0.000 C 
ATOM      5  C   UNL     1       1.624   3.885  19.965  0.00  0.00    +0.000 C 
ATOM      6  N   UNL     1       2.614   2.832  19.749  0.00  0.00    +0.000 NA
ATOM      7  C   UNL     1       2.208   1.821  18.790  0.00  0.00    +0.000 C 
ATOM      8  C   UNL     1       4.026   3.215  19.669  0.00  0.00    +0.000 C 
ENDROOT
BRANCH   1  13
ATOM      9  C   UNL     1       6.291   4.647  17.519  0.00  0.00    +0.000 A 
ATOM     10  N   UNL     1       7.587   4.942  17.379  0.00  0.00    +0.000 NA
ATOM     11  S   UNL     1       8.066   5.481  18.880  0.00  0.00    +0.000 S 
ATOM     12  N   UNL     1       6.632   5.349  19.713  0.00  0.00    +0.000 NA
ATOM     13  C   UNL     1       5.720   4.882  18.838  0.00  0.00    +0.000 A 
BRANCH   9  15
ATOM     14  C   UNL     1       6.379   4.081  15.242  0.00  0.00    +0.000 C 
ATOM     15  O   UNL     1       5.614   4.150  16.446  0.00  0.00    +0.000 OA
ENDBRANCH   9  15
ENDBRANCH   1  13
TORSDOF 2
ENDMDL
MODEL 7
REMARK VINA RESULT:      -6.0      1.654      1.896
REMARK  Name = 
REMARK  5 active torsions:
REMARK  status: ('A' for Active; 'I' for Inactive)
REMARK    1  A    between atoms: C_1  and  O_2
REMARK    2  A    between atoms: O_2  and  C_3
REMARK    3  A    between atoms: C_7  and  C_8
REMARK    4  A    between atoms: C_10  and  C_11
REMARK    5  A    between atoms: N_13  and  C_14
REMARK                            x       y       z     vdW  Elec       q    Type
REMARK                         _______ _______ _______ _____ _____    ______ ____
ROOT
ATOM      1  C   UNL     1       4.611   4.004  17.490  0.00  0.00    +0.000 C 
ATOM      2  C   UNL     1       3.381   3.665  17.079  0.00  0.00    +0.000 C 
ATOM      3  C   UNL     1       2.324   3.133  17.996  0.00  0.00    +0.000 C 
ATOM      4  C   UNL     1       1.094   4.044  17.948  0.00  0.00    +0.000 C 
ATOM      5  C   UNL     1       2.766   2.917  19.461  0.00  0.00    +0.000 C 
ATOM      6  N   UNL     1       4.176   3.061  19.816  0.00  0.00    +0.000 NA
ATOM      7  C   UNL     1       4.789   1.846  20.321  0.00  0.00    +0.000 C 
ATOM      8  C   UNL     1       5.034   3.855  18.933  0.00  0.00    +0.000 C 
ENDROOT
BRANCH   1  13
ATOM      9  C   UNL     1       6.518   5.619  16.743  0.00  0.00    +0.000 A 
ATOM     10  N   UNL     1       7.376   5.858  15.747  0.00  0.00    +0.000 NA
ATOM     11  S   UNL     1       7.057   4.677  14.618  0.00  0.00    +0.000 S 
ATOM     12  N   UNL     1       5.835   3.853  15.389  0.00  0.00    +0.000 NA
ATOM     13  C   UNL     1       5.637   4.473  16.568  0.00  0.00    +0.000 A 
BRANCH   9  15
ATOM     14  C   UNL     1       7.777   6.538  18.500  0.00  0.00    +0.000 C 
ATOM     15  O   UNL     1       6.523   6.450  17.823  0.00  0.00    +0.000 OA
ENDBRANCH   9  15
ENDBRANCH   1  13
TORSDOF 2
ENDMDL
MODEL 8
REMARK VINA RESULT:      -5.9      2.217      2.585
REMARK  Name = 
REMARK  5 active torsions:
REMARK  status: ('A' for Active; 'I' for Inactive)
REMARK    1  A    between atoms: C_1  and  O_2
REMARK    2  A    between atoms: O_2  and  C_3
REMARK    3  A    between atoms: C_7  and  C_8
REMARK    4  A    between atoms: C_10  and  C_11
REMARK    5  A    between atoms: N_13  and  C_14
REMARK                            x       y       z     vdW  Elec       q    Type
REMARK                         _______ _______ _______ _____ _____    ______ ____
ROOT
ATOM      1  C   UNL     1       4.500   4.770  19.139  0.00  0.00    +0.000 C 
ATOM      2  C   UNL     1       3.348   5.448  19.229  0.00  0.00    +0.000 C 
ATOM      3  C   UNL     1       2.026   4.796  19.491  0.00  0.00    +0.000 C 
ATOM      4  C   UNL     1       1.407   5.379  20.766  0.00  0.00    +0.000 C 
ATOM      5  C   UNL     1       2.054   3.253  19.575  0.00  0.00    +0.000 C 
ATOM      6  N   UNL     1       3.278   2.535  19.225  0.00  0.00    +0.000 NA
ATOM      7  C   UNL     1       3.142   1.646  18.086  0.00  0.00    +0.000 C 
ATOM      8  C   UNL     1       4.547   3.266  19.280  0.00  0.00    +0.000 C 
ENDROOT
BRANCH   1  13
ATOM      9  C   UNL     1       6.102   6.166  17.627  0.00  0.00    +0.000 A 
ATOM     10  N   UNL     1       7.340   6.666  17.571  0.00  0.00    +0.000 NA
ATOM     11  S   UNL     1       8.057   6.189  18.996  0.00  0.00    +0.000 S 
ATOM     12  N   UNL     1       6.800   5.352  19.693  0.00  0.00    +0.000 NA
ATOM     13  C   UNL     1       5.765   5.423  18.833  0.00  0.00    +0.000 A 
BRANCH   9  15
ATOM     14  C   UNL     1       5.454   5.476  15.478  0.00  0.00    +0.000 C 
ATOM     15  O   UNL     1       5.265   6.374  16.572  0.00  0.00    +0.000 OA
ENDBRANCH   9  15
ENDBRANCH   1  13
TORSDOF 2
ENDMDL
MODEL 9
REMARK VINA RESULT:      -5.9      2.640      5.225
REMARK  Name = 
REMARK  5 active torsions:
REMARK  status: ('A' for Active; 'I' for Inactive)
REMARK    1  A    between atoms: C_1  and  O_2
REMARK    2  A    between atoms: O_2  and  C_3
REMARK    3  A    between atoms: C_7  and  C_8
REMARK    4  A    between atoms: C_10  and  C_11
REMARK    5  A    between atoms: N_13  and  C_14
REMARK                            x       y       z     vdW  Elec       q    Type
REMARK                         _______ _______ _______ _____ _____    ______ ____
ROOT
ATOM      1  C   UNL     1       5.112   4.374  17.553  0.00  0.00    +0.000 C 
ATOM      2  C   UNL     1       4.823   4.431  16.246  0.00  0.00    +0.000 C 
ATOM      3  C   UNL     1       5.788   4.914  15.209  0.00  0.00    +0.000 C 
ATOM      4  C   UNL     1       6.027   3.810  14.173  0.00  0.00    +0.000 C 
ATOM      5  C   UNL     1       7.140   5.430  15.752  0.00  0.00    +0.000 C 
ATOM      6  N   UNL     1       7.324   5.587  17.193  0.00  0.00    +0.000 NA
ATOM      7  C   UNL     1       7.574   6.952  17.616  0.00  0.00    +0.000 C 
ATOM      8  C   UNL     1       6.453   4.820  18.088  0.00  0.00    +0.000 C 
ENDROOT
BRANCH   1  13
ATOM      9  C   UNL     1       2.839   4.548  18.820  0.00  0.00    +0.000 A 
ATOM     10  N   UNL     1       2.123   3.982  19.797  0.00  0.00    +0.000 NA
ATOM     11  S   UNL     1       3.079   2.743  20.363  0.00  0.00    +0.000 S 
ATOM     12  N   UNL     1       4.402   2.912  19.368  0.00  0.00    +0.000 NA
ATOM     13  C   UNL     1       4.138   3.947  18.548  0.00  0.00    +0.000 A 
BRANCH   9  15
ATOM     14  C   UNL     1       2.635   6.886  18.761  0.00  0.00    +0.000 C 
ATOM     15  O   UNL     1       2.319   5.626  18.169  0.00  0.00    +0.000 OA
ENDBRANCH   9  15
ENDBRANCH   1  13
TORSDOF 2
ENDMDL
