MODEL 1
REMARK VINA RESULT:      -8.5      0.000      0.000
REMARK  Name = 
REMARK  12 active torsions:
REMARK  status: ('A' for Active; 'I' for Inactive)
REMARK    1  A    between atoms: C_2  and  C_3
REMARK    2  A    between atoms: C_3  and  N_4
REMARK    3  A    between atoms: N_4  and  C_5
REMARK    4  A    between atoms: C_7  and  C_8
REMARK    5  A    between atoms: C_9  and  C_10
REMARK    6  A    between atoms: C_10  and  C_12
REMARK    7  A    between atoms: C_15  and  O_16
REMARK    8  A    between atoms: O_16  and  C_17
REMARK    9  A    between atoms: C_21  and  C_22
REMARK   10  A    between atoms: C_21  and  C_23
REMARK   11  A    between atoms: C_28  and  O_29
REMARK   12  A    between atoms: O_29  and  C_30
REMARK                            x       y       z     vdW  Elec       q    Type
REMARK                         _______ _______ _______ _____ _____    ______ ____
ROOT
ATOM      1  C   UNL     1       2.635   7.860  17.838  0.00  0.00    +0.000 C 
ATOM      2  O   UNL     1       3.228   8.498  16.986  0.00  0.00    +0.000 OA
ENDROOT
BRANCH   1   3
ATOM      3  C   UNL     1       2.982   6.387  18.039  0.00  0.00    +0.000 A 
ATOM      4  C   UNL     1       1.845   5.557  18.160  0.00  0.00    +0.000 A 
ATOM      5  C   UNL     1       1.942   4.167  18.028  0.00  0.00    +0.000 A 
ATOM      6  C   UNL     1       3.139   3.610  17.581  0.00  0.00    +0.000 A 
ATOM      7  C   UNL     1       4.201   4.463  17.279  0.00  0.00    +0.000 A 
ATOM      8  C   UNL     1       4.220   5.770  17.809  0.00  0.00    +0.000 A 
ATOM      9  O   UNL     1       5.478   6.301  18.074  0.00  0.00    +0.000 OA
ATOM     10  C   UNL     1       6.626   5.803  17.271  0.00  0.00    +0.000 C 
ATOM     11  C   UNL     1       7.535   4.620  17.756  0.00  0.00    +0.000 C 
ATOM     12  C   UNL     1       7.581   7.016  17.199  0.00  0.00    +0.000 C 
ATOM     13  C   UNL     1       6.005   5.281  15.974  0.00  0.00    +0.000 C 
ATOM     14  C   UNL     1       5.229   4.201  16.210  0.00  0.00    +0.000 C 
BRANCH   6  15
ATOM     15  O   UNL     1       3.126   2.244  17.416  0.00  0.00    +0.000 OA
ATOM     16  C   UNL     1       3.558   1.517  18.570  0.00  0.00    +0.000 C 
ENDBRANCH   6  15
ENDBRANCH   1   3
BRANCH   1  18
ATOM     17  C   UNL     1       1.064   9.690  18.252  0.00  0.00    +0.000 C 
ATOM     18  C   UNL     1       1.605   8.533  18.665  0.00  0.00    +0.000 C 
BRANCH  17  21
ATOM     19  C   UNL     1      -1.340  11.881  20.353  0.00  0.00    +0.000 A 
ATOM     20  C   UNL     1      -0.225  11.070  19.970  0.00  0.00    +0.000 A 
ATOM     21  C   UNL     1      -0.188  10.303  18.778  0.00  0.00    +0.000 A 
ATOM     22  C   UNL     1      -1.328  10.271  17.981  0.00  0.00    +0.000 A 
ATOM     23  C   UNL     1      -2.437  11.035  18.334  0.00  0.00    +0.000 A 
ATOM     24  C   UNL     1      -2.451  11.858  19.476  0.00  0.00    +0.000 A 
BRANCH  19  25
ATOM     25  N   UNL     1      -1.360  12.523  21.621  0.00  0.00    +0.000 N 
ATOM     26  H   UNL     1      -0.512  13.030  21.820  0.00  0.00    +0.000 HD
BRANCH  25  27
ATOM     27  C   UNL     1      -1.779  11.758  22.791  0.00  0.00    +0.000 C 
BRANCH  27  29
ATOM     28  C   UNL     1      -0.178   9.498  23.349  0.00  0.00    +0.000 C 
ATOM     29  C   UNL     1      -0.917  10.541  23.092  0.00  0.00    +0.000 C 
ENDBRANCH  27  29
ENDBRANCH  25  27
ENDBRANCH  19  25
BRANCH  24  30
ATOM     30  O   UNL     1      -3.639  12.538  19.509  0.00  0.00    +0.000 OA
ATOM     31  C   UNL     1      -4.825  12.004  18.969  0.00  0.00    +0.000 C 
ENDBRANCH  24  30
ENDBRANCH  17  21
ENDBRANCH   1  18
TORSDOF 8
ENDMDL
MODEL 2
REMARK VINA RESULT:      -8.3      5.384      7.997
REMARK  Name = 
REMARK  12 active torsions:
REMARK  status: ('A' for Active; 'I' for Inactive)
REMARK    1  A    between atoms: C_2  and  C_3
REMARK    2  A    between atoms: C_3  and  N_4
REMARK    3  A    between atoms: N_4  and  C_5
REMARK    4  A    between atoms: C_7  and  C_8
REMARK    5  A    between atoms: C_9  and  C_10
REMARK    6  A    between atoms: C_10  and  C_12
REMARK    7  A    between atoms: C_15  and  O_16
REMARK    8  A    between atoms: O_16  and  C_17
REMARK    9  A    between atoms: C_21  and  C_22
REMARK   10  A    between atoms: C_21  and  C_23
REMARK   11  A    between atoms: C_28  and  O_29
REMARK   12  A    between atoms: O_29  and  C_30
REMARK                            x       y       z     vdW  Elec       q    Type
REMARK                         _______ _______ _______ _____ _____    ______ ____
ROOT
ATOM      1  C   UNL     1       7.450   6.181  18.795  0.00  0.00    +0.000 C 
ATOM      2  O   UNL     1       7.390   5.451  19.768  0.00  0.00    +0.000 OA
ENDROOT
BRANCH   1   3
ATOM      3  C   UNL     1       6.574   5.875  17.583  0.00  0.00    +0.000 A 
ATOM      4  C   UNL     1       7.302   5.788  16.375  0.00  0.00    +0.000 A 
ATOM      5  C   UNL     1       6.744   5.209  15.230  0.00  0.00    +0.000 A 
ATOM      6  C   UNL     1       5.528   4.537  15.333  0.00  0.00    +0.000 A 
ATOM      7  C   UNL     1       4.908   4.465  16.580  0.00  0.00    +0.000 A 
ATOM      8  C   UNL     1       5.259   5.386  17.590  0.00  0.00    +0.000 A 
ATOM      9  O   UNL     1       4.245   5.734  18.476  0.00  0.00    +0.000 OA
ATOM     10  C   UNL     1       3.158   4.748  18.709  0.00  0.00    +0.000 C 
ATOM     11  C   UNL     1       1.817   4.771  17.893  0.00  0.00    +0.000 C 
ATOM     12  C   UNL     1       2.723   5.015  20.168  0.00  0.00    +0.000 C 
ATOM     13  C   UNL     1       3.774   3.390  18.366  0.00  0.00    +0.000 C 
ATOM     14  C   UNL     1       4.062   3.309  17.048  0.00  0.00    +0.000 C 
BRANCH   6  15
ATOM     15  O   UNL     1       5.085   3.940  14.175  0.00  0.00    +0.000 OA
ATOM     16  C   UNL     1       6.120   3.694  13.218  0.00  0.00    +0.000 C 
ENDBRANCH   6  15
ENDBRANCH   1   3
BRANCH   1  18
ATOM     17  C   UNL     1       8.046   8.456  18.121  0.00  0.00    +0.000 C 
ATOM     18  C   UNL     1       8.357   7.353  18.819  0.00  0.00    +0.000 C 
BRANCH  17  21
ATOM     19  C   UNL     1       8.570  12.291  17.985  0.00  0.00    +0.000 A 
ATOM     20  C   UNL     1       8.181  10.959  17.634  0.00  0.00    +0.000 A 
ATOM     21  C   UNL     1       8.657   9.803  18.303  0.00  0.00    +0.000 A 
ATOM     22  C   UNL     1       9.614   9.967  19.299  0.00  0.00    +0.000 A 
ATOM     23  C   UNL     1      10.027  11.249  19.654  0.00  0.00    +0.000 A 
ATOM     24  C   UNL     1       9.501  12.404  19.044  0.00  0.00    +0.000 A 
BRANCH  19  25
ATOM     25  N   UNL     1       8.153  13.393  17.191  0.00  0.00    +0.000 N 
ATOM     26  H   UNL     1       8.831  13.655  16.492  0.00  0.00    +0.000 HD
BRANCH  25  27
ATOM     27  C   UNL     1       7.627  14.582  17.855  0.00  0.00    +0.000 C 
BRANCH  27  29
ATOM     28  C   UNL     1       4.809  14.782  17.843  0.00  0.00    +0.000 C 
ATOM     29  C   UNL     1       6.110  14.689  17.848  0.00  0.00    +0.000 C 
ENDBRANCH  27  29
ENDBRANCH  25  27
ENDBRANCH  19  25
BRANCH  24  30
ATOM     30  O   UNL     1      10.039  13.504  19.657  0.00  0.00    +0.000 OA
ATOM     31  C   UNL     1      10.079  13.640  21.059  0.00  0.00    +0.000 C 
ENDBRANCH  24  30
ENDBRANCH  17  21
ENDBRANCH   1  18
TORSDOF 8
ENDMDL
MODEL 3
REMARK VINA RESULT:      -8.2      2.823      9.568
REMARK  Name = 
REMARK  12 active torsions:
REMARK  status: ('A' for Active; 'I' for Inactive)
REMARK    1  A    between atoms: C_2  and  C_3
REMARK    2  A    between atoms: C_3  and  N_4
REMARK    3  A    between atoms: N_4  and  C_5
REMARK    4  A    between atoms: C_7  and  C_8
REMARK    5  A    between atoms: C_9  and  C_10
REMARK    6  A    between atoms: C_10  and  C_12
REMARK    7  A    between atoms: C_15  and  O_16
REMARK    8  A    between atoms: O_16  and  C_17
REMARK    9  A    between atoms: C_21  and  C_22
REMARK   10  A    between atoms: C_21  and  C_23
REMARK   11  A    between atoms: C_28  and  O_29
REMARK   12  A    between atoms: O_29  and  C_30
REMARK                            x       y       z     vdW  Elec       q    Type
REMARK                         _______ _______ _______ _____ _____    ______ ____
ROOT
ATOM      1  C   UNL     1       1.632   9.483  18.061  0.00  0.00    +0.000 C 
ATOM      2  O   UNL     1       2.217  10.377  17.474  0.00  0.00    +0.000 OA
ENDROOT
BRANCH   1   3
ATOM      3  C   UNL     1       0.502   9.842  19.023  0.00  0.00    +0.000 A 
ATOM      4  C   UNL     1       0.957  10.180  20.317  0.00  0.00    +0.000 A 
ATOM      5  C   UNL     1       0.125  10.837  21.231  0.00  0.00    +0.000 A 
ATOM      6  C   UNL     1      -1.102  11.336  20.796  0.00  0.00    +0.000 A 
ATOM      7  C   UNL     1      -1.456  11.162  19.458  0.00  0.00    +0.000 A 
ATOM      8  C   UNL     1      -0.823  10.162  18.691  0.00  0.00    +0.000 A 
ATOM      9  O   UNL     1      -1.597   9.576  17.695  0.00  0.00    +0.000 OA
ATOM     10  C   UNL     1      -2.700  10.381  17.108  0.00  0.00    +0.000 C 
ATOM     11  C   UNL     1      -4.171  10.306  17.649  0.00  0.00    +0.000 C 
ATOM     12  C   UNL     1      -2.800   9.868  15.654  0.00  0.00    +0.000 C 
ATOM     13  C   UNL     1      -2.296  11.838  17.344  0.00  0.00    +0.000 C 
ATOM     14  C   UNL     1      -2.292  12.131  18.663  0.00  0.00    +0.000 C 
BRANCH   6  15
ATOM     15  O   UNL     1      -1.825  12.025  21.741  0.00  0.00    +0.000 OA
ATOM     16  C   UNL     1      -1.464  11.712  23.089  0.00  0.00    +0.000 C 
ENDBRANCH   6  15
ENDBRANCH   1   3
BRANCH   1  18
ATOM     17  C   UNL     1       3.264   7.661  18.111  0.00  0.00    +0.000 C 
ATOM     18  C   UNL     1       2.022   8.074  17.815  0.00  0.00    +0.000 C 
BRANCH  17  21
ATOM     19  C   UNL     1       5.539   4.538  18.376  0.00  0.00    +0.000 A 
ATOM     20  C   UNL     1       5.037   5.827  18.007  0.00  0.00    +0.000 A 
ATOM     21  C   UNL     1       3.702   6.243  18.240  0.00  0.00    +0.000 A 
ATOM     22  C   UNL     1       2.811   5.320  18.781  0.00  0.00    +0.000 A 
ATOM     23  C   UNL     1       3.263   4.052  19.135  0.00  0.00    +0.000 A 
ATOM     24  C   UNL     1       4.606   3.660  18.976  0.00  0.00    +0.000 A 
BRANCH  19  25
ATOM     25  N   UNL     1       6.851   4.144  17.999  0.00  0.00    +0.000 N 
ATOM     26  H   UNL     1       7.511   4.189  18.760  0.00  0.00    +0.000 HD
BRANCH  25  27
ATOM     27  C   UNL     1       7.436   4.710  16.787  0.00  0.00    +0.000 C 
BRANCH  27  29
ATOM     28  C   UNL     1       6.155   3.933  14.393  0.00  0.00    +0.000 C 
ATOM     29  C   UNL     1       6.746   4.292  15.498  0.00  0.00    +0.000 C 
ENDBRANCH  27  29
ENDBRANCH  25  27
ENDBRANCH  19  25
BRANCH  24  30
ATOM     30  O   UNL     1       4.755   2.398  19.485  0.00  0.00    +0.000 OA
ATOM     31  C   UNL     1       4.310   2.050  20.776  0.00  0.00    +0.000 C 
ENDBRANCH  24  30
ENDBRANCH  17  21
ENDBRANCH   1  18
TORSDOF 8
ENDMDL
MODEL 4
REMARK VINA RESULT:      -8.1      1.506      2.911
REMARK  Name = 
REMARK  12 active torsions:
REMARK  status: ('A' for Active; 'I' for Inactive)
REMARK    1  A    between atoms: C_2  and  C_3
REMARK    2  A    between atoms: C_3  and  N_4
REMARK    3  A    between atoms: N_4  and  C_5
REMARK    4  A    between atoms: C_7  and  C_8
REMARK    5  A    between atoms: C_9  and  C_10
REMARK    6  A    between atoms: C_10  and  C_12
REMARK    7  A    between atoms: C_15  and  O_16
REMARK    8  A    between atoms: O_16  and  C_17
REMARK    9  A    between atoms: C_21  and  C_22
REMARK   10  A    between atoms: C_21  and  C_23
REMARK   11  A    between atoms: C_28  and  O_29
REMARK   12  A    between atoms: O_29  and  C_30
REMARK                            x       y       z     vdW  Elec       q    Type
REMARK                         _______ _______ _______ _____ _____    ______ ____
ROOT
ATOM      1  C   UNL     1       2.618   8.002  17.765  0.00  0.00    +0.000 C 
ATOM      2  O   UNL     1       3.316   8.621  16.982  0.00  0.00    +0.000 OA
ENDROOT
BRANCH   1   3
ATOM      3  C   UNL     1       2.897   6.518  17.996  0.00  0.00    +0.000 A 
ATOM      4  C   UNL     1       1.723   5.740  18.105  0.00  0.00    +0.000 A 
ATOM      5  C   UNL     1       1.763   4.345  17.997  0.00  0.00    +0.000 A 
ATOM      6  C   UNL     1       2.943   3.730  17.584  0.00  0.00    +0.000 A 
ATOM      7  C   UNL     1       4.047   4.531  17.292  0.00  0.00    +0.000 A 
ATOM      8  C   UNL     1       4.112   5.845  17.802  0.00  0.00    +0.000 A 
ATOM      9  O   UNL     1       5.386   6.326  18.085  0.00  0.00    +0.000 OA
ATOM     10  C   UNL     1       6.527   5.766  17.315  0.00  0.00    +0.000 C 
ATOM     11  C   UNL     1       7.374   4.553  17.838  0.00  0.00    +0.000 C 
ATOM     12  C   UNL     1       7.535   6.936  17.244  0.00  0.00    +0.000 C 
ATOM     13  C   UNL     1       5.911   5.250  16.013  0.00  0.00    +0.000 C 
ATOM     14  C   UNL     1       5.084   4.208  16.248  0.00  0.00    +0.000 C 
BRANCH   6  15
ATOM     15  O   UNL     1       2.875   2.364  17.439  0.00  0.00    +0.000 OA
ATOM     16  C   UNL     1       3.578   1.638  18.453  0.00  0.00    +0.000 C 
ENDBRANCH   6  15
ENDBRANCH   1   3
BRANCH   1  18
ATOM     17  C   UNL     1       1.315  10.012  18.262  0.00  0.00    +0.000 C 
ATOM     18  C   UNL     1       1.529   8.706  18.483  0.00  0.00    +0.000 C 
BRANCH  17  21
ATOM     19  C   UNL     1      -2.414  10.997  18.613  0.00  0.00    +0.000 A 
ATOM     20  C   UNL     1      -1.190  10.474  18.086  0.00  0.00    +0.000 A 
ATOM     21  C   UNL     1       0.086  10.768  18.632  0.00  0.00    +0.000 A 
ATOM     22  C   UNL     1       0.158  11.678  19.682  0.00  0.00    +0.000 A 
ATOM     23  C   UNL     1      -1.013  12.219  20.206  0.00  0.00    +0.000 A 
ATOM     24  C   UNL     1      -2.287  11.872  19.718  0.00  0.00    +0.000 A 
BRANCH  19  25
ATOM     25  N   UNL     1      -3.643  10.763  17.940  0.00  0.00    +0.000 N 
ATOM     26  H   UNL     1      -3.859   9.783  17.843  0.00  0.00    +0.000 HD
BRANCH  25  27
ATOM     27  C   UNL     1      -3.906  11.465  16.687  0.00  0.00    +0.000 C 
BRANCH  27  29
ATOM     28  C   UNL     1      -3.143  10.048  14.366  0.00  0.00    +0.000 C 
ATOM     29  C   UNL     1      -3.495  10.702  15.437  0.00  0.00    +0.000 C 
ENDBRANCH  27  29
ENDBRANCH  25  27
ENDBRANCH  19  25
BRANCH  24  30
ATOM     30  O   UNL     1      -3.233  12.500  20.482  0.00  0.00    +0.000 OA
ATOM     31  C   UNL     1      -3.187  13.883  20.750  0.00  0.00    +0.000 C 
ENDBRANCH  24  30
ENDBRANCH  17  21
ENDBRANCH   1  18
TORSDOF 8
ENDMDL
MODEL 5
REMARK VINA RESULT:      -8.0      0.920      1.356
REMARK  Name = 
REMARK  12 active torsions:
REMARK  status: ('A' for Active; 'I' for Inactive)
REMARK    1  A    between atoms: C_2  and  C_3
REMARK    2  A    between atoms: C_3  and  N_4
REMARK    3  A    between atoms: N_4  and  C_5
REMARK    4  A    between atoms: C_7  and  C_8
REMARK    5  A    between atoms: C_9  and  C_10
REMARK    6  A    between atoms: C_10  and  C_12
REMARK    7  A    between atoms: C_15  and  O_16
REMARK    8  A    between atoms: O_16  and  C_17
REMARK    9  A    between atoms: C_21  and  C_22
REMARK   10  A    between atoms: C_21  and  C_23
REMARK   11  A    between atoms: C_28  and  O_29
REMARK   12  A    between atoms: O_29  and  C_30
REMARK                            x       y       z     vdW  Elec       q    Type
REMARK                         _______ _______ _______ _____ _____    ______ ____
ROOT
ATOM      1  C   UNL     1       2.596   7.833  17.905  0.00  0.00    +0.000 C 
ATOM      2  O   UNL     1       3.131   8.483  17.025  0.00  0.00    +0.000 OA
ENDROOT
BRANCH   1   3
ATOM      3  C   UNL     1       2.955   6.358  18.062  0.00  0.00    +0.000 A 
ATOM      4  C   UNL     1       1.826   5.514  18.158  0.00  0.00    +0.000 A 
ATOM      5  C   UNL     1       1.936   4.130  17.984  0.00  0.00    +0.000 A 
ATOM      6  C   UNL     1       3.137   3.597  17.521  0.00  0.00    +0.000 A 
ATOM      7  C   UNL     1       4.192   4.468  17.246  0.00  0.00    +0.000 A 
ATOM      8  C   UNL     1       4.200   5.759  17.815  0.00  0.00    +0.000 A 
ATOM      9  O   UNL     1       5.453   6.293  18.096  0.00  0.00    +0.000 OA
ATOM     10  C   UNL     1       6.605   5.829  17.280  0.00  0.00    +0.000 C 
ATOM     11  C   UNL     1       7.525   4.640  17.730  0.00  0.00    +0.000 C 
ATOM     12  C   UNL     1       7.549   7.052  17.244  0.00  0.00    +0.000 C 
ATOM     13  C   UNL     1       5.989   5.341  15.967  0.00  0.00    +0.000 C 
ATOM     14  C   UNL     1       5.223   4.247  16.170  0.00  0.00    +0.000 C 
BRANCH   6  15
ATOM     15  O   UNL     1       3.137   2.237  17.315  0.00  0.00    +0.000 OA
ATOM     16  C   UNL     1       3.617   1.482  18.432  0.00  0.00    +0.000 C 
ENDBRANCH   6  15
ENDBRANCH   1   3
BRANCH   1  18
ATOM     17  C   UNL     1       1.300   9.782  18.619  0.00  0.00    +0.000 C 
ATOM     18  C   UNL     1       1.623   8.493  18.808  0.00  0.00    +0.000 C 
BRANCH  17  21
ATOM     19  C   UNL     1      -0.899  11.852  21.043  0.00  0.00    +0.000 A 
ATOM     20  C   UNL     1       0.099  10.958  20.541  0.00  0.00    +0.000 A 
ATOM     21  C   UNL     1       0.122  10.479  19.206  0.00  0.00    +0.000 A 
ATOM     22  C   UNL     1      -0.928  10.833  18.364  0.00  0.00    +0.000 A 
ATOM     23  C   UNL     1      -1.925  11.687  18.826  0.00  0.00    +0.000 A 
ATOM     24  C   UNL     1      -1.911  12.226  20.127  0.00  0.00    +0.000 A 
BRANCH  19  25
ATOM     25  N   UNL     1      -0.932  12.190  22.423  0.00  0.00    +0.000 N 
ATOM     26  H   UNL     1      -0.014  12.255  22.835  0.00  0.00    +0.000 HD
BRANCH  25  27
ATOM     27  C   UNL     1      -1.832  11.455  23.307  0.00  0.00    +0.000 C 
BRANCH  27  29
ATOM     28  C   UNL     1      -4.226  12.817  23.936  0.00  0.00    +0.000 C 
ATOM     29  C   UNL     1      -3.121  12.188  23.646  0.00  0.00    +0.000 C 
ENDBRANCH  27  29
ENDBRANCH  25  27
ENDBRANCH  19  25
BRANCH  24  30
ATOM     30  O   UNL     1      -2.969  13.085  20.255  0.00  0.00    +0.000 OA
ATOM     31  C   UNL     1      -2.803  14.428  20.645  0.00  0.00    +0.000 C 
ENDBRANCH  24  30
ENDBRANCH  17  21
ENDBRANCH   1  18
TORSDOF 8
ENDMDL
MODEL 6
REMARK VINA RESULT:      -8.0      2.702      9.364
REMARK  Name = 
REMARK  12 active torsions:
REMARK  status: ('A' for Active; 'I' for Inactive)
REMARK    1  A    between atoms: C_2  and  C_3
REMARK    2  A    between atoms: C_3  and  N_4
REMARK    3  A    between atoms: N_4  and  C_5
REMARK    4  A    between atoms: C_7  and  C_8
REMARK    5  A    between atoms: C_9  and  C_10
REMARK    6  A    between atoms: C_10  and  C_12
REMARK    7  A    between atoms: C_15  and  O_16
REMARK    8  A    between atoms: O_16  and  C_17
REMARK    9  A    between atoms: C_21  and  C_22
REMARK   10  A    between atoms: C_21  and  C_23
REMARK   11  A    between atoms: C_28  and  O_29
REMARK   12  A    between atoms: O_29  and  C_30
REMARK                            x       y       z     vdW  Elec       q    Type
REMARK                         _______ _______ _______ _____ _____    ______ ____
ROOT
ATOM      1  C   UNL     1       1.602   9.751  18.071  0.00  0.00    +0.000 C 
ATOM      2  O   UNL     1       2.230  10.653  17.546  0.00  0.00    +0.000 OA
ENDROOT
BRANCH   1   3
ATOM      3  C   UNL     1       0.487  10.098  19.056  0.00  0.00    +0.000 A 
ATOM      4  C   UNL     1       0.967  10.534  20.311  0.00  0.00    +0.000 A 
ATOM      5  C   UNL     1       0.131  11.193  21.220  0.00  0.00    +0.000 A 
ATOM      6  C   UNL     1      -1.138  11.595  20.806  0.00  0.00    +0.000 A 
ATOM      7  C   UNL     1      -1.529  11.326  19.495  0.00  0.00    +0.000 A 
ATOM      8  C   UNL     1      -0.865  10.322  18.759  0.00  0.00    +0.000 A 
ATOM      9  O   UNL     1      -1.639   9.637  17.827  0.00  0.00    +0.000 OA
ATOM     10  C   UNL     1      -2.808  10.344  17.241  0.00  0.00    +0.000 C 
ATOM     11  C   UNL     1      -4.251  10.215  17.843  0.00  0.00    +0.000 C 
ATOM     12  C   UNL     1      -2.929   9.744  15.822  0.00  0.00    +0.000 C 
ATOM     13  C   UNL     1      -2.483  11.832  17.382  0.00  0.00    +0.000 C 
ATOM     14  C   UNL     1      -2.449  12.199  18.682  0.00  0.00    +0.000 C 
BRANCH   6  15
ATOM     15  O   UNL     1      -1.867  12.294  21.740  0.00  0.00    +0.000 OA
ATOM     16  C   UNL     1      -1.919  11.665  23.024  0.00  0.00    +0.000 C 
ENDBRANCH   6  15
ENDBRANCH   1   3
BRANCH   1  18
ATOM     17  C   UNL     1       3.116   7.829  18.070  0.00  0.00    +0.000 C 
ATOM     18  C   UNL     1       1.924   8.345  17.731  0.00  0.00    +0.000 C 
BRANCH  17  21
ATOM     19  C   UNL     1       5.150   4.553  18.430  0.00  0.00    +0.000 A 
ATOM     20  C   UNL     1       4.796   5.908  18.132  0.00  0.00    +0.000 A 
ATOM     21  C   UNL     1       3.459   6.380  18.105  0.00  0.00    +0.000 A 
ATOM     22  C   UNL     1       2.433   5.460  18.296  0.00  0.00    +0.000 A 
ATOM     23  C   UNL     1       2.742   4.130  18.571  0.00  0.00    +0.000 A 
ATOM     24  C   UNL     1       4.069   3.672  18.675  0.00  0.00    +0.000 A 
BRANCH  19  25
ATOM     25  N   UNL     1       6.498   4.122  18.315  0.00  0.00    +0.000 N 
ATOM     26  H   UNL     1       6.943   3.976  19.208  0.00  0.00    +0.000 HD
BRANCH  25  27
ATOM     27  C   UNL     1       7.395   4.841  17.415  0.00  0.00    +0.000 C 
BRANCH  27  29
ATOM     28  C   UNL     1       8.009   7.475  18.230  0.00  0.00    +0.000 C 
ATOM     29  C   UNL     1       7.725   6.259  17.854  0.00  0.00    +0.000 C 
ENDBRANCH  27  29
ENDBRANCH  25  27
ENDBRANCH  19  25
BRANCH  24  30
ATOM     30  O   UNL     1       4.048   2.350  19.030  0.00  0.00    +0.000 OA
ATOM     31  C   UNL     1       3.190   1.420  18.412  0.00  0.00    +0.000 C 
ENDBRANCH  24  30
ENDBRANCH  17  21
ENDBRANCH   1  18
TORSDOF 8
ENDMDL
MODEL 7
REMARK VINA RESULT:      -8.0      2.240      3.726
REMARK  Name = 
REMARK  12 active torsions:
REMARK  status: ('A' for Active; 'I' for Inactive)
REMARK    1  A    between atoms: C_2  and  C_3
REMARK    2  A    between atoms: C_3  and  N_4
REMARK    3  A    between atoms: N_4  and  C_5
REMARK    4  A    between atoms: C_7  and  C_8
REMARK    5  A    between atoms: C_9  and  C_10
REMARK    6  A    between atoms: C_10  and  C_12
REMARK    7  A    between atoms: C_15  and  O_16
REMARK    8  A    between atoms: O_16  and  C_17
REMARK    9  A    between atoms: C_21  and  C_22
REMARK   10  A    between atoms: C_21  and  C_23
REMARK   11  A    between atoms: C_28  and  O_29
REMARK   12  A    between atoms: O_29  and  C_30
REMARK                            x       y       z     vdW  Elec       q    Type
REMARK                         _______ _______ _______ _____ _____    ______ ____
ROOT
ATOM      1  C   UNL     1       2.343   7.915  17.944  0.00  0.00    +0.000 C 
ATOM      2  O   UNL     1       3.234   8.725  17.758  0.00  0.00    +0.000 OA
ENDROOT
BRANCH   1   3
ATOM      3  C   UNL     1       2.702   6.439  18.093  0.00  0.00    +0.000 A 
ATOM      4  C   UNL     1       1.572   5.595  18.172  0.00  0.00    +0.000 A 
ATOM      5  C   UNL     1       1.683   4.212  17.990  0.00  0.00    +0.000 A 
ATOM      6  C   UNL     1       2.889   3.682  17.534  0.00  0.00    +0.000 A 
ATOM      7  C   UNL     1       3.946   4.555  17.274  0.00  0.00    +0.000 A 
ATOM      8  C   UNL     1       3.948   5.842  17.852  0.00  0.00    +0.000 A 
ATOM      9  O   UNL     1       5.199   6.374  18.149  0.00  0.00    +0.000 OA
ATOM     10  C   UNL     1       6.358   5.916  17.339  0.00  0.00    +0.000 C 
ATOM     11  C   UNL     1       7.274   4.723  17.789  0.00  0.00    +0.000 C 
ATOM     12  C   UNL     1       7.303   7.139  17.321  0.00  0.00    +0.000 C 
ATOM     13  C   UNL     1       5.754   5.437  16.018  0.00  0.00    +0.000 C 
ATOM     14  C   UNL     1       4.986   4.342  16.205  0.00  0.00    +0.000 C 
BRANCH   6  15
ATOM     15  O   UNL     1       2.890   2.324  17.318  0.00  0.00    +0.000 OA
ATOM     16  C   UNL     1       3.589   1.579  18.320  0.00  0.00    +0.000 C 
ENDBRANCH   6  15
ENDBRANCH   1   3
BRANCH   1  18
ATOM     17  C   UNL     1       0.680   9.688  18.223  0.00  0.00    +0.000 C 
ATOM     18  C   UNL     1       0.940   8.385  18.034  0.00  0.00    +0.000 C 
BRANCH  17  21
ATOM     19  C   UNL     1      -2.854  10.450  16.834  0.00  0.00    +0.000 A 
ATOM     20  C   UNL     1      -1.490  10.025  16.920  0.00  0.00    +0.000 A 
ATOM     21  C   UNL     1      -0.634  10.354  18.003  0.00  0.00    +0.000 A 
ATOM     22  C   UNL     1      -1.122  11.202  18.992  0.00  0.00    +0.000 A 
ATOM     23  C   UNL     1      -2.439  11.648  18.929  0.00  0.00    +0.000 A 
ATOM     24  C   UNL     1      -3.316  11.263  17.897  0.00  0.00    +0.000 A 
BRANCH  19  25
ATOM     25  N   UNL     1      -3.614  10.191  15.662  0.00  0.00    +0.000 N 
ATOM     26  H   UNL     1      -4.289   9.452  15.785  0.00  0.00    +0.000 HD
BRANCH  25  27
ATOM     27  C   UNL     1      -2.916  10.031  14.390  0.00  0.00    +0.000 C 
BRANCH  27  29
ATOM     28  C   UNL     1      -4.612   9.763  12.147  0.00  0.00    +0.000 C 
ATOM     29  C   UNL     1      -3.829   9.886  13.182  0.00  0.00    +0.000 C 
ENDBRANCH  27  29
ENDBRANCH  25  27
ENDBRANCH  19  25
BRANCH  24  30
ATOM     30  O   UNL     1      -4.552  11.793  18.152  0.00  0.00    +0.000 OA
ATOM     31  C   UNL     1      -5.537  11.090  18.873  0.00  0.00    +0.000 C 
ENDBRANCH  24  30
ENDBRANCH  17  21
ENDBRANCH   1  18
TORSDOF 8
ENDMDL
MODEL 8
REMARK VINA RESULT:      -8.0      1.566      1.838
REMARK  Name = 
REMARK  12 active torsions:
REMARK  status: ('A' for Active; 'I' for Inactive)
REMARK    1  A    between atoms: C_2  and  C_3
REMARK    2  A    between atoms: C_3  and  N_4
REMARK    3  A    between atoms: N_4  and  C_5
REMARK    4  A    between atoms: C_7  and  C_8
REMARK    5  A    between atoms: C_9  and  C_10
REMARK    6  A    between atoms: C_10  and  C_12
REMARK    7  A    between atoms: C_15  and  O_16
REMARK    8  A    between atoms: O_16  and  C_17
REMARK    9  A    between atoms: C_21  and  C_22
REMARK   10  A    between atoms: C_21  and  C_23
REMARK   11  A    between atoms: C_28  and  O_29
REMARK   12  A    between atoms: O_29  and  C_30
REMARK                            x       y       z     vdW  Elec       q    Type
REMARK                         _______ _______ _______ _____ _____    ______ ____
ROOT
ATOM      1  C   UNL     1       2.338   8.133  18.275  0.00  0.00    +0.000 C 
ATOM      2  O   UNL     1       2.873   8.464  17.232  0.00  0.00    +0.000 OA
ENDROOT
BRANCH   1   3
ATOM      3  C   UNL     1       2.851   6.898  19.013  0.00  0.00    +0.000 A 
ATOM      4  C   UNL     1       2.005   6.487  20.068  0.00  0.00    +0.000 A 
ATOM      5  C   UNL     1       2.128   5.218  20.645  0.00  0.00    +0.000 A 
ATOM      6  C   UNL     1       2.963   4.277  20.045  0.00  0.00    +0.000 A 
ATOM      7  C   UNL     1       3.650   4.637  18.885  0.00  0.00    +0.000 A 
ATOM      8  C   UNL     1       3.838   6.002  18.579  0.00  0.00    +0.000 A 
ATOM      9  O   UNL     1       5.008   6.317  17.896  0.00  0.00    +0.000 OA
ATOM     10  C   UNL     1       5.614   5.267  17.036  0.00  0.00    +0.000 C 
ATOM     11  C   UNL     1       6.732   4.298  17.560  0.00  0.00    +0.000 C 
ATOM     12  C   UNL     1       6.300   6.067  15.905  0.00  0.00    +0.000 C 
ATOM     13  C   UNL     1       4.458   4.333  16.675  0.00  0.00    +0.000 C 
ATOM     14  C   UNL     1       3.998   3.687  17.769  0.00  0.00    +0.000 C 
BRANCH   6  15
ATOM     15  O   UNL     1       2.972   3.036  20.637  0.00  0.00    +0.000 OA
ATOM     16  C   UNL     1       1.896   2.824  21.556  0.00  0.00    +0.000 C 
ENDBRANCH   6  15
ENDBRANCH   1   3
BRANCH   1  18
ATOM     17  C   UNL     1       0.487   9.704  17.977  0.00  0.00    +0.000 C 
ATOM     18  C   UNL     1       1.216   8.943  18.807  0.00  0.00    +0.000 C 
BRANCH  17  21
ATOM     19  C   UNL     1      -2.234  12.219  19.106  0.00  0.00    +0.000 A 
ATOM     20  C   UNL     1      -1.002  11.495  19.025  0.00  0.00    +0.000 A 
ATOM     21  C   UNL     1      -0.846  10.296  18.283  0.00  0.00    +0.000 A 
ATOM     22  C   UNL     1      -1.970   9.751  17.671  0.00  0.00    +0.000 A 
ATOM     23  C   UNL     1      -3.188  10.421  17.745  0.00  0.00    +0.000 A 
ATOM     24  C   UNL     1      -3.331  11.651  18.416  0.00  0.00    +0.000 A 
BRANCH  19  25
ATOM     25  N   UNL     1      -2.351  13.342  19.968  0.00  0.00    +0.000 N 
ATOM     26  H   UNL     1      -1.488  13.853  20.070  0.00  0.00    +0.000 HD
BRANCH  25  27
ATOM     27  C   UNL     1      -2.993  13.169  21.268  0.00  0.00    +0.000 C 
BRANCH  27  29
ATOM     28  C   UNL     1      -1.604  11.468  23.044  0.00  0.00    +0.000 C 
ATOM     29  C   UNL     1      -2.245  12.253  22.225  0.00  0.00    +0.000 C 
ENDBRANCH  27  29
ENDBRANCH  25  27
ENDBRANCH  19  25
BRANCH  24  30
ATOM     30  O   UNL     1      -4.615  12.094  18.246  0.00  0.00    +0.000 OA
ATOM     31  C   UNL     1      -5.355  11.824  17.078  0.00  0.00    +0.000 C 
ENDBRANCH  24  30
ENDBRANCH  17  21
ENDBRANCH   1  18
TORSDOF 8
ENDMDL
MODEL 9
REMARK VINA RESULT:      -7.9      3.046      9.397
REMARK  Name = 
REMARK  12 active torsions:
REMARK  status: ('A' for Active; 'I' for Inactive)
REMARK    1  A    between atoms: C_2  and  C_3
REMARK    2  A    between atoms: C_3  and  N_4
REMARK    3  A    between atoms: N_4  and  C_5
REMARK    4  A    between atoms: C_7  and  C_8
REMARK    5  A    between atoms: C_9  and  C_10
REMARK    6  A    between atoms: C_10  and  C_12
REMARK    7  A    between atoms: C_15  and  O_16
REMARK    8  A    between atoms: O_16  and  C_17
REMARK    9  A    between atoms: C_21  and  C_22
REMARK   10  A    between atoms: C_21  and  C_23
REMARK   11  A    between atoms: C_28  and  O_29
REMARK   12  A    between atoms: O_29  and  C_30
REMARK                            x       y       z     vdW  Elec       q    Type
REMARK                         _______ _______ _______ _____ _____    ______ ____
ROOT
ATOM      1  C   UNL     1       1.701   9.973  18.256  0.00  0.00    +0.000 C 
ATOM      2  O   UNL     1       2.347  10.795  17.629  0.00  0.00    +0.000 OA
ENDROOT
BRANCH   1   3
ATOM      3  C   UNL     1       0.748  10.454  19.348  0.00  0.00    +0.000 A 
ATOM      4  C   UNL     1       0.370   9.432  20.248  0.00  0.00    +0.000 A 
ATOM      5  C   UNL     1      -0.224   9.732  21.479  0.00  0.00    +0.000 A 
ATOM      6  C   UNL     1      -0.269  11.057  21.907  0.00  0.00    +0.000 A 
ATOM      7  C   UNL     1       0.284  12.042  21.088  0.00  0.00    +0.000 A 
ATOM      8  C   UNL     1       0.482  11.781  19.716  0.00  0.00    +0.000 A 
ATOM      9  O   UNL     1       0.365  12.874  18.864  0.00  0.00    +0.000 OA
ATOM     10  C   UNL     1       0.660  14.221  19.419  0.00  0.00    +0.000 C 
ATOM     11  C   UNL     1      -0.461  15.148  20.007  0.00  0.00    +0.000 C 
ATOM     12  C   UNL     1       1.210  15.008  18.207  0.00  0.00    +0.000 C 
ATOM     13  C   UNL     1       1.587  13.966  20.608  0.00  0.00    +0.000 C 
ATOM     14  C   UNL     1       0.941  13.301  21.591  0.00  0.00    +0.000 C 
BRANCH   6  15
ATOM     15  O   UNL     1      -0.810  11.255  23.156  0.00  0.00    +0.000 OA
ATOM     16  C   UNL     1      -2.163  11.720  23.135  0.00  0.00    +0.000 C 
ENDBRANCH   6  15
ENDBRANCH   1   3
BRANCH   1  18
ATOM     17  C   UNL     1       3.067   7.983  17.860  0.00  0.00    +0.000 C 
ATOM     18  C   UNL     1       1.846   8.534  17.932  0.00  0.00    +0.000 C 
BRANCH  17  21
ATOM     19  C   UNL     1       4.984   4.640  18.251  0.00  0.00    +0.000 A 
ATOM     20  C   UNL     1       4.685   6.010  17.964  0.00  0.00    +0.000 A 
ATOM     21  C   UNL     1       3.366   6.523  17.882  0.00  0.00    +0.000 A 
ATOM     22  C   UNL     1       2.305   5.631  18.004  0.00  0.00    +0.000 A 
ATOM     23  C   UNL     1       2.561   4.288  18.266  0.00  0.00    +0.000 A 
ATOM     24  C   UNL     1       3.868   3.788  18.425  0.00  0.00    +0.000 A 
BRANCH  19  25
ATOM     25  N   UNL     1       6.324   4.170  18.193  0.00  0.00    +0.000 N 
ATOM     26  H   UNL     1       6.814   4.267  19.068  0.00  0.00    +0.000 HD
BRANCH  25  27
ATOM     27  C   UNL     1       7.174   4.599  17.087  0.00  0.00    +0.000 C 
BRANCH  27  29
ATOM     28  C   UNL     1       6.168   3.970  14.523  0.00  0.00    +0.000 C 
ATOM     29  C   UNL     1       6.632   4.260  15.706  0.00  0.00    +0.000 C 
ENDBRANCH  27  29
ENDBRANCH  25  27
ENDBRANCH  19  25
BRANCH  24  30
ATOM     30  O   UNL     1       3.791   2.460  18.750  0.00  0.00    +0.000 OA
ATOM     31  C   UNL     1       2.560   1.786  18.868  0.00  0.00    +0.000 C 
ENDBRANCH  24  30
ENDBRANCH  17  21
ENDBRANCH   1  18
TORSDOF 8
ENDMDL
