MODEL 1
REMARK VINA RESULT:      -7.1      0.000      0.000
REMARK  Name = 
REMARK  15 active torsions:
REMARK  status: ('A' for Active; 'I' for Inactive)
REMARK    1  A    between atoms: C_1  and  C_2
REMARK    2  A    between atoms: C_2  and  O_3
REMARK    3  A    between atoms: O_3  and  C_4
REMARK    4  A    between atoms: C_4  and  C_6
REMARK    5  A    between atoms: C_6  and  N_7
REMARK    6  A    between atoms: N_7  and  C_8
REMARK    7  A    between atoms: N_7  and  S_19
REMARK    8  A    between atoms: C_8  and  C_9
REMARK    9  A    between atoms: C_12  and  O_13
REMARK   10  A    between atoms: O_13  and  C_14
REMARK   11  A    between atoms: C_15  and  O_16
REMARK   12  A    between atoms: O_16  and  C_17
REMARK   13  A    between atoms: S_19  and  C_22
REMARK   14  A    between atoms: C_25  and  O_26
REMARK   15  A    between atoms: O_26  and  C_27
REMARK                            x       y       z     vdW  Elec       q    Type
REMARK                         _______ _______ _______ _____ _____    ______ ____
ROOT
ATOM      1  N   UNL     1       4.047   5.070  17.774  0.00  0.00    +0.000 NA
ENDROOT
BRANCH   1   2
ATOM      2  S   UNL     1       5.652   4.455  17.866  0.00  0.00    +0.000 S 
ATOM      3  O   UNL     1       5.890   3.794  19.127  0.00  0.00    +0.000 OA
ATOM      4  O   UNL     1       5.926   3.780  16.612  0.00  0.00    +0.000 OA
BRANCH   2   5
ATOM      5  C   UNL     1       6.616   5.948  17.917  0.00  0.00    +0.000 A 
ATOM      6  C   UNL     1       6.245   7.017  17.097  0.00  0.00    +0.000 A 
ATOM      7  C   UNL     1       6.969   8.208  17.156  0.00  0.00    +0.000 A 
ATOM      8  C   UNL     1       8.039   8.345  18.046  0.00  0.00    +0.000 A 
ATOM      9  C   UNL     1       8.393   7.275  18.872  0.00  0.00    +0.000 A 
ATOM     10  C   UNL     1       7.680   6.073  18.812  0.00  0.00    +0.000 A 
BRANCH   8  11
ATOM     11  O   UNL     1       8.685   9.550  17.993  0.00  0.00    +0.000 OA
ATOM     12  C   UNL     1       9.190  10.041  19.230  0.00  0.00    +0.000 C 
ENDBRANCH   8  11
ENDBRANCH   2   5
ENDBRANCH   1   2
BRANCH   1  13
ATOM     13  C   UNL     1       3.128   4.102  17.057  0.00  0.00    +0.000 C 
BRANCH  13  14
ATOM     14  C   UNL     1       2.604   2.935  17.871  0.00  0.00    +0.000 C 
ATOM     15  O   UNL     1       3.284   2.029  18.325  0.00  0.00    +0.000 OA
BRANCH  14  16
ATOM     16  O   UNL     1       1.244   3.039  18.024  0.00  0.00    +0.000 OA
BRANCH  16  18
ATOM     17  C   UNL     1       0.902   3.518  20.382  0.00  0.00    +0.000 C 
ATOM     18  C   UNL     1       0.697   2.527  19.252  0.00  0.00    +0.000 C 
ENDBRANCH  16  18
ENDBRANCH  14  16
ENDBRANCH  13  14
ENDBRANCH   1  13
BRANCH   1  19
ATOM     19  C   UNL     1       3.462   5.511  19.071  0.00  0.00    +0.000 C 
BRANCH  19  20
ATOM     20  C   UNL     1       2.683   6.809  19.073  0.00  0.00    +0.000 A 
ATOM     21  C   UNL     1       2.751   7.644  17.953  0.00  0.00    +0.000 A 
ATOM     22  C   UNL     1       2.093   8.871  17.951  0.00  0.00    +0.000 A 
ATOM     23  C   UNL     1       1.367   9.307  19.065  0.00  0.00    +0.000 A 
ATOM     24  C   UNL     1       1.265   8.472  20.194  0.00  0.00    +0.000 A 
ATOM     25  C   UNL     1       1.919   7.222  20.180  0.00  0.00    +0.000 A 
BRANCH  23  26
ATOM     26  O   UNL     1       0.837  10.557  18.864  0.00  0.00    +0.000 OA
ATOM     27  C   UNL     1      -0.506  10.677  18.425  0.00  0.00    +0.000 C 
ENDBRANCH  23  26
BRANCH  24  28
ATOM     28  O   UNL     1       0.531   8.928  21.256  0.00  0.00    +0.000 OA
ATOM     29  C   UNL     1       1.189   9.186  22.487  0.00  0.00    +0.000 C 
ENDBRANCH  24  28
ENDBRANCH  19  20
ENDBRANCH   1  19
TORSDOF 11
ENDMDL
MODEL 2
REMARK VINA RESULT:      -7.1      1.415      5.892
REMARK  Name = 
REMARK  15 active torsions:
REMARK  status: ('A' for Active; 'I' for Inactive)
REMARK    1  A    between atoms: C_1  and  C_2
REMARK    2  A    between atoms: C_2  and  O_3
REMARK    3  A    between atoms: O_3  and  C_4
REMARK    4  A    between atoms: C_4  and  C_6
REMARK    5  A    between atoms: C_6  and  N_7
REMARK    6  A    between atoms: N_7  and  C_8
REMARK    7  A    between atoms: N_7  and  S_19
REMARK    8  A    between atoms: C_8  and  C_9
REMARK    9  A    between atoms: C_12  and  O_13
REMARK   10  A    between atoms: O_13  and  C_14
REMARK   11  A    between atoms: C_15  and  O_16
REMARK   12  A    between atoms: O_16  and  C_17
REMARK   13  A    between atoms: S_19  and  C_22
REMARK   14  A    between atoms: C_25  and  O_26
REMARK   15  A    between atoms: O_26  and  C_27
REMARK                            x       y       z     vdW  Elec       q    Type
REMARK                         _______ _______ _______ _____ _____    ______ ____
ROOT
ATOM      1  N   UNL     1       5.612   6.241  17.382  0.00  0.00    +0.000 NA
ENDROOT
BRANCH   1   2
ATOM      2  S   UNL     1       5.911   4.569  17.106  0.00  0.00    +0.000 S 
ATOM      3  O   UNL     1       5.715   4.221  15.719  0.00  0.00    +0.000 OA
ATOM      4  O   UNL     1       7.147   4.235  17.787  0.00  0.00    +0.000 OA
BRANCH   2   5
ATOM      5  C   UNL     1       4.567   3.805  17.985  0.00  0.00    +0.000 A 
ATOM      6  C   UNL     1       4.681   3.628  19.367  0.00  0.00    +0.000 A 
ATOM      7  C   UNL     1       3.618   3.066  20.075  0.00  0.00    +0.000 A 
ATOM      8  C   UNL     1       2.437   2.708  19.416  0.00  0.00    +0.000 A 
ATOM      9  C   UNL     1       2.328   2.903  18.037  0.00  0.00    +0.000 A 
ATOM     10  C   UNL     1       3.393   3.455  17.317  0.00  0.00    +0.000 A 
BRANCH   8  11
ATOM     11  O   UNL     1       1.478   2.145  20.213  0.00  0.00    +0.000 OA
ATOM     12  C   UNL     1       1.471   2.566  21.573  0.00  0.00    +0.000 C 
ENDBRANCH   8  11
ENDBRANCH   2   5
ENDBRANCH   1   2
BRANCH   1  13
ATOM     13  C   UNL     1       6.756   7.095  16.873  0.00  0.00    +0.000 C 
BRANCH  13  14
ATOM     14  C   UNL     1       7.705   7.650  17.916  0.00  0.00    +0.000 C 
ATOM     15  O   UNL     1       8.287   6.990  18.763  0.00  0.00    +0.000 OA
BRANCH  14  16
ATOM     16  O   UNL     1       7.817   9.010  17.777  0.00  0.00    +0.000 OA
BRANCH  16  18
ATOM     17  C   UNL     1       9.065  11.066  18.124  0.00  0.00    +0.000 C 
ATOM     18  C   UNL     1       8.779   9.663  18.624  0.00  0.00    +0.000 C 
ENDBRANCH  16  18
ENDBRANCH  14  16
ENDBRANCH  13  14
ENDBRANCH   1  13
BRANCH   1  19
ATOM     19  C   UNL     1       4.301   6.742  16.881  0.00  0.00    +0.000 C 
BRANCH  19  20
ATOM     20  C   UNL     1       3.355   7.342  17.899  0.00  0.00    +0.000 A 
ATOM     21  C   UNL     1       3.146   6.674  19.110  0.00  0.00    +0.000 A 
ATOM     22  C   UNL     1       2.238   7.171  20.039  0.00  0.00    +0.000 A 
ATOM     23  C   UNL     1       1.500   8.333  19.783  0.00  0.00    +0.000 A 
ATOM     24  C   UNL     1       1.711   9.035  18.581  0.00  0.00    +0.000 A 
ATOM     25  C   UNL     1       2.648   8.533  17.653  0.00  0.00    +0.000 A 
BRANCH  23  26
ATOM     26  O   UNL     1       0.636   8.618  20.810  0.00  0.00    +0.000 OA
ATOM     27  C   UNL     1       1.143   9.204  21.998  0.00  0.00    +0.000 C 
ENDBRANCH  23  26
BRANCH  24  28
ATOM     28  O   UNL     1       0.982  10.175  18.376  0.00  0.00    +0.000 OA
ATOM     29  C   UNL     1       1.561  11.430  18.701  0.00  0.00    +0.000 C 
ENDBRANCH  24  28
ENDBRANCH  19  20
ENDBRANCH   1  19
TORSDOF 11
ENDMDL
MODEL 3
REMARK VINA RESULT:      -6.8      2.191      3.464
REMARK  Name = 
REMARK  15 active torsions:
REMARK  status: ('A' for Active; 'I' for Inactive)
REMARK    1  A    between atoms: C_1  and  C_2
REMARK    2  A    between atoms: C_2  and  O_3
REMARK    3  A    between atoms: O_3  and  C_4
REMARK    4  A    between atoms: C_4  and  C_6
REMARK    5  A    between atoms: C_6  and  N_7
REMARK    6  A    between atoms: N_7  and  C_8
REMARK    7  A    between atoms: N_7  and  S_19
REMARK    8  A    between atoms: C_8  and  C_9
REMARK    9  A    between atoms: C_12  and  O_13
REMARK   10  A    between atoms: O_13  and  C_14
REMARK   11  A    between atoms: C_15  and  O_16
REMARK   12  A    between atoms: O_16  and  C_17
REMARK   13  A    between atoms: S_19  and  C_22
REMARK   14  A    between atoms: C_25  and  O_26
REMARK   15  A    between atoms: O_26  and  C_27
REMARK                            x       y       z     vdW  Elec       q    Type
REMARK                         _______ _______ _______ _____ _____    ______ ____
ROOT
ATOM      1  N   UNL     1       3.973   5.039  18.412  0.00  0.00    +0.000 NA
ENDROOT
BRANCH   1   2
ATOM      2  S   UNL     1       5.682   5.159  18.249  0.00  0.00    +0.000 S 
ATOM      3  O   UNL     1       6.134   6.518  18.431  0.00  0.00    +0.000 OA
ATOM      4  O   UNL     1       6.264   4.075  19.015  0.00  0.00    +0.000 OA
BRANCH   2   5
ATOM      5  C   UNL     1       5.911   4.806  16.520  0.00  0.00    +0.000 A 
ATOM      6  C   UNL     1       7.145   5.094  15.933  0.00  0.00    +0.000 A 
ATOM      7  C   UNL     1       7.352   4.786  14.588  0.00  0.00    +0.000 A 
ATOM      8  C   UNL     1       6.344   4.169  13.839  0.00  0.00    +0.000 A 
ATOM      9  C   UNL     1       5.118   3.872  14.440  0.00  0.00    +0.000 A 
ATOM     10  C   UNL     1       4.899   4.188  15.785  0.00  0.00    +0.000 A 
BRANCH   8  11
ATOM     11  O   UNL     1       6.657   3.940  12.527  0.00  0.00    +0.000 OA
ATOM     12  C   UNL     1       5.900   2.928  11.872  0.00  0.00    +0.000 C 
ENDBRANCH   8  11
ENDBRANCH   2   5
ENDBRANCH   1   2
BRANCH   1  13
ATOM     13  C   UNL     1       3.514   3.596  18.341  0.00  0.00    +0.000 C 
BRANCH  13  14
ATOM     14  C   UNL     1       2.021   3.363  18.221  0.00  0.00    +0.000 C 
ATOM     15  O   UNL     1       1.290   3.883  17.393  0.00  0.00    +0.000 OA
BRANCH  14  16
ATOM     16  O   UNL     1       1.602   2.482  19.185  0.00  0.00    +0.000 OA
BRANCH  16  18
ATOM     17  C   UNL     1       1.764   2.906  21.573  0.00  0.00    +0.000 C 
ATOM     18  C   UNL     1       0.922   3.049  20.319  0.00  0.00    +0.000 C 
ENDBRANCH  16  18
ENDBRANCH  14  16
ENDBRANCH  13  14
ENDBRANCH   1  13
BRANCH   1  19
ATOM     19  C   UNL     1       3.400   5.728  19.602  0.00  0.00    +0.000 C 
BRANCH  19  20
ATOM     20  C   UNL     1       2.592   6.984  19.353  0.00  0.00    +0.000 A 
ATOM     21  C   UNL     1       2.721   7.642  18.126  0.00  0.00    +0.000 A 
ATOM     22  C   UNL     1       2.036   8.831  17.890  0.00  0.00    +0.000 A 
ATOM     23  C   UNL     1       1.222   9.406  18.873  0.00  0.00    +0.000 A 
ATOM     24  C   UNL     1       1.059   8.748  20.107  0.00  0.00    +0.000 A 
ATOM     25  C   UNL     1       1.742   7.534  20.330  0.00  0.00    +0.000 A 
BRANCH  23  26
ATOM     26  O   UNL     1       0.679  10.591  18.447  0.00  0.00    +0.000 OA
ATOM     27  C   UNL     1       1.335  11.807  18.768  0.00  0.00    +0.000 C 
ENDBRANCH  23  26
BRANCH  24  28
ATOM     28  O   UNL     1       0.241   9.334  21.035  0.00  0.00    +0.000 OA
ATOM     29  C   UNL     1       0.788   9.734  22.282  0.00  0.00    +0.000 C 
ENDBRANCH  24  28
ENDBRANCH  19  20
ENDBRANCH   1  19
TORSDOF 11
ENDMDL
MODEL 4
REMARK VINA RESULT:      -6.8      1.257      1.405
REMARK  Name = 
REMARK  15 active torsions:
REMARK  status: ('A' for Active; 'I' for Inactive)
REMARK    1  A    between atoms: C_1  and  C_2
REMARK    2  A    between atoms: C_2  and  O_3
REMARK    3  A    between atoms: O_3  and  C_4
REMARK    4  A    between atoms: C_4  and  C_6
REMARK    5  A    between atoms: C_6  and  N_7
REMARK    6  A    between atoms: N_7  and  C_8
REMARK    7  A    between atoms: N_7  and  S_19
REMARK    8  A    between atoms: C_8  and  C_9
REMARK    9  A    between atoms: C_12  and  O_13
REMARK   10  A    between atoms: O_13  and  C_14
REMARK   11  A    between atoms: C_15  and  O_16
REMARK   12  A    between atoms: O_16  and  C_17
REMARK   13  A    between atoms: S_19  and  C_22
REMARK   14  A    between atoms: C_25  and  O_26
REMARK   15  A    between atoms: O_26  and  C_27
REMARK                            x       y       z     vdW  Elec       q    Type
REMARK                         _______ _______ _______ _____ _____    ______ ____
ROOT
ATOM      1  N   UNL     1       2.922   5.235  18.365  0.00  0.00    +0.000 NA
ENDROOT
BRANCH   1   2
ATOM      2  S   UNL     1       4.310   4.249  18.114  0.00  0.00    +0.000 S 
ATOM      3  O   UNL     1       4.664   3.524  19.311  0.00  0.00    +0.000 OA
ATOM      4  O   UNL     1       4.121   3.554  16.855  0.00  0.00    +0.000 OA
BRANCH   2   5
ATOM      5  C   UNL     1       5.589   5.464  17.893  0.00  0.00    +0.000 A 
ATOM      6  C   UNL     1       5.343   6.556  17.056  0.00  0.00    +0.000 A 
ATOM      7  C   UNL     1       6.323   7.537  16.904  0.00  0.00    +0.000 A 
ATOM      8  C   UNL     1       7.531   7.447  17.603  0.00  0.00    +0.000 A 
ATOM      9  C   UNL     1       7.762   6.359  18.449  0.00  0.00    +0.000 A 
ATOM     10  C   UNL     1       6.789   5.364  18.598  0.00  0.00    +0.000 A 
BRANCH   8  11
ATOM     11  O   UNL     1       8.421   8.456  17.353  0.00  0.00    +0.000 OA
ATOM     12  C   UNL     1       8.433   9.524  18.293  0.00  0.00    +0.000 C 
ENDBRANCH   8  11
ENDBRANCH   2   5
ENDBRANCH   1   2
BRANCH   1  13
ATOM     13  C   UNL     1       1.649   4.491  18.016  0.00  0.00    +0.000 C 
BRANCH  13  14
ATOM     14  C   UNL     1       1.330   3.265  18.848  0.00  0.00    +0.000 C 
ATOM     15  O   UNL     1       1.531   2.109  18.508  0.00  0.00    +0.000 OA
BRANCH  14  16
ATOM     16  O   UNL     1       0.773   3.638  20.046  0.00  0.00    +0.000 OA
BRANCH  16  18
ATOM     17  C   UNL     1       2.372   3.170  21.815  0.00  0.00    +0.000 C 
ATOM     18  C   UNL     1       1.052   2.789  21.173  0.00  0.00    +0.000 C 
ENDBRANCH  16  18
ENDBRANCH  14  16
ENDBRANCH  13  14
ENDBRANCH   1  13
BRANCH   1  19
ATOM     19  C   UNL     1       2.827   5.864  19.712  0.00  0.00    +0.000 C 
BRANCH  19  20
ATOM     20  C   UNL     1       2.007   7.132  19.828  0.00  0.00    +0.000 A 
ATOM     21  C   UNL     1       2.132   8.114  18.840  0.00  0.00    +0.000 A 
ATOM     22  C   UNL     1       1.436   9.315  18.951  0.00  0.00    +0.000 A 
ATOM     23  C   UNL     1       0.613   9.577  20.052  0.00  0.00    +0.000 A 
ATOM     24  C   UNL     1       0.454   8.593  21.046  0.00  0.00    +0.000 A 
ATOM     25  C   UNL     1       1.149   7.372  20.916  0.00  0.00    +0.000 A 
BRANCH  23  26
ATOM     26  O   UNL     1       0.060  10.830  19.980  0.00  0.00    +0.000 OA
ATOM     27  C   UNL     1       0.292  11.624  18.828  0.00  0.00    +0.000 C 
ENDBRANCH  23  26
BRANCH  24  28
ATOM     28  O   UNL     1      -0.373   8.882  22.099  0.00  0.00    +0.000 OA
ATOM     29  C   UNL     1       0.172   9.503  23.252  0.00  0.00    +0.000 C 
ENDBRANCH  24  28
ENDBRANCH  19  20
ENDBRANCH   1  19
TORSDOF 11
ENDMDL
MODEL 5
REMARK VINA RESULT:      -6.8      2.272      3.037
REMARK  Name = 
REMARK  15 active torsions:
REMARK  status: ('A' for Active; 'I' for Inactive)
REMARK    1  A    between atoms: C_1  and  C_2
REMARK    2  A    between atoms: C_2  and  O_3
REMARK    3  A    between atoms: O_3  and  C_4
REMARK    4  A    between atoms: C_4  and  C_6
REMARK    5  A    between atoms: C_6  and  N_7
REMARK    6  A    between atoms: N_7  and  C_8
REMARK    7  A    between atoms: N_7  and  S_19
REMARK    8  A    between atoms: C_8  and  C_9
REMARK    9  A    between atoms: C_12  and  O_13
REMARK   10  A    between atoms: O_13  and  C_14
REMARK   11  A    between atoms: C_15  and  O_16
REMARK   12  A    between atoms: O_16  and  C_17
REMARK   13  A    between atoms: S_19  and  C_22
REMARK   14  A    between atoms: C_25  and  O_26
REMARK   15  A    between atoms: O_26  and  C_27
REMARK                            x       y       z     vdW  Elec       q    Type
REMARK                         _______ _______ _______ _____ _____    ______ ____
ROOT
ATOM      1  N   UNL     1       3.042   4.796  18.304  0.00  0.00    +0.000 NA
ENDROOT
BRANCH   1   2
ATOM      2  S   UNL     1       4.254   3.575  18.250  0.00  0.00    +0.000 S 
ATOM      3  O   UNL     1       5.065   3.585  19.444  0.00  0.00    +0.000 OA
ATOM      4  O   UNL     1       3.614   2.355  17.799  0.00  0.00    +0.000 OA
BRANCH   2   5
ATOM      5  C   UNL     1       5.312   4.165  16.948  0.00  0.00    +0.000 A 
ATOM      6  C   UNL     1       6.517   4.783  17.289  0.00  0.00    +0.000 A 
ATOM      7  C   UNL     1       7.375   5.215  16.277  0.00  0.00    +0.000 A 
ATOM      8  C   UNL     1       7.048   5.008  14.933  0.00  0.00    +0.000 A 
ATOM      9  C   UNL     1       5.847   4.375  14.603  0.00  0.00    +0.000 A 
ATOM     10  C   UNL     1       4.975   3.948  15.611  0.00  0.00    +0.000 A 
BRANCH   8  11
ATOM     11  O   UNL     1       7.956   5.497  14.034  0.00  0.00    +0.000 OA
ATOM     12  C   UNL     1       7.743   5.137  12.674  0.00  0.00    +0.000 C 
ENDBRANCH   8  11
ENDBRANCH   2   5
ENDBRANCH   1   2
BRANCH   1  13
ATOM     13  C   UNL     1       1.653   4.192  18.305  0.00  0.00    +0.000 C 
BRANCH  13  14
ATOM     14  C   UNL     1       1.054   3.866  19.659  0.00  0.00    +0.000 C 
ATOM     15  O   UNL     1       0.473   4.660  20.383  0.00  0.00    +0.000 OA
BRANCH  14  16
ATOM     16  O   UNL     1       1.264   2.545  19.963  0.00  0.00    +0.000 OA
BRANCH  16  18
ATOM     17  C   UNL     1       2.955   2.557  21.709  0.00  0.00    +0.000 C 
ATOM     18  C   UNL     1       1.517   2.239  21.346  0.00  0.00    +0.000 C 
ENDBRANCH  16  18
ENDBRANCH  14  16
ENDBRANCH  13  14
ENDBRANCH   1  13
BRANCH   1  19
ATOM     19  C   UNL     1       3.197   5.794  19.399  0.00  0.00    +0.000 C 
BRANCH  19  20
ATOM     20  C   UNL     1       2.491   7.123  19.230  0.00  0.00    +0.000 A 
ATOM     21  C   UNL     1       2.595   7.796  18.008  0.00  0.00    +0.000 A 
ATOM     22  C   UNL     1       2.006   9.046  17.842  0.00  0.00    +0.000 A 
ATOM     23  C   UNL     1       1.317   9.668  18.890  0.00  0.00    +0.000 A 
ATOM     24  C   UNL     1       1.179   8.999  20.121  0.00  0.00    +0.000 A 
ATOM     25  C   UNL     1       1.763   7.723  20.273  0.00  0.00    +0.000 A 
BRANCH  23  26
ATOM     26  O   UNL     1       0.856  10.908  18.524  0.00  0.00    +0.000 OA
ATOM     27  C   UNL     1       1.590  12.059  18.906  0.00  0.00    +0.000 C 
ENDBRANCH  23  26
BRANCH  24  28
ATOM     28  O   UNL     1       0.483   9.633  21.114  0.00  0.00    +0.000 OA
ATOM     29  C   UNL     1       0.806   9.355  22.468  0.00  0.00    +0.000 C 
ENDBRANCH  24  28
ENDBRANCH  19  20
ENDBRANCH   1  19
TORSDOF 11
ENDMDL
MODEL 6
REMARK VINA RESULT:      -6.7      1.380      5.950
REMARK  Name = 
REMARK  15 active torsions:
REMARK  status: ('A' for Active; 'I' for Inactive)
REMARK    1  A    between atoms: C_1  and  C_2
REMARK    2  A    between atoms: C_2  and  O_3
REMARK    3  A    between atoms: O_3  and  C_4
REMARK    4  A    between atoms: C_4  and  C_6
REMARK    5  A    between atoms: C_6  and  N_7
REMARK    6  A    between atoms: N_7  and  C_8
REMARK    7  A    between atoms: N_7  and  S_19
REMARK    8  A    between atoms: C_8  and  C_9
REMARK    9  A    between atoms: C_12  and  O_13
REMARK   10  A    between atoms: O_13  and  C_14
REMARK   11  A    between atoms: C_15  and  O_16
REMARK   12  A    between atoms: O_16  and  C_17
REMARK   13  A    between atoms: S_19  and  C_22
REMARK   14  A    between atoms: C_25  and  O_26
REMARK   15  A    between atoms: O_26  and  C_27
REMARK                            x       y       z     vdW  Elec       q    Type
REMARK                         _______ _______ _______ _____ _____    ______ ____
ROOT
ATOM      1  N   UNL     1       5.879   6.292  17.488  0.00  0.00    +0.000 NA
ENDROOT
BRANCH   1   2
ATOM      2  S   UNL     1       6.338   4.643  17.307  0.00  0.00    +0.000 S 
ATOM      3  O   UNL     1       6.404   4.264  15.915  0.00  0.00    +0.000 OA
ATOM      4  O   UNL     1       7.461   4.410  18.193  0.00  0.00    +0.000 OA
BRANCH   2   5
ATOM      5  C   UNL     1       4.922   3.793  17.967  0.00  0.00    +0.000 A 
ATOM      6  C   UNL     1       3.930   3.353  17.087  0.00  0.00    +0.000 A 
ATOM      7  C   UNL     1       2.833   2.651  17.587  0.00  0.00    +0.000 A 
ATOM      8  C   UNL     1       2.737   2.364  18.953  0.00  0.00    +0.000 A 
ATOM      9  C   UNL     1       3.742   2.796  19.823  0.00  0.00    +0.000 A 
ATOM     10  C   UNL     1       4.840   3.510  19.332  0.00  0.00    +0.000 A 
BRANCH   8  11
ATOM     11  O   UNL     1       1.605   1.692  19.325  0.00  0.00    +0.000 OA
ATOM     12  C   UNL     1       0.417   2.470  19.410  0.00  0.00    +0.000 C 
ENDBRANCH   8  11
ENDBRANCH   2   5
ENDBRANCH   1   2
BRANCH   1  13
ATOM     13  C   UNL     1       6.953   7.222  16.961  0.00  0.00    +0.000 C 
BRANCH  13  14
ATOM     14  C   UNL     1       7.907   7.805  17.985  0.00  0.00    +0.000 C 
ATOM     15  O   UNL     1       8.429   7.184  18.897  0.00  0.00    +0.000 OA
BRANCH  14  16
ATOM     16  O   UNL     1       8.101   9.141  17.743  0.00  0.00    +0.000 OA
BRANCH  16  18
ATOM     17  C   UNL     1       9.562  11.044  18.130  0.00  0.00    +0.000 C 
ATOM     18  C   UNL     1       8.817   9.877  18.750  0.00  0.00    +0.000 C 
ENDBRANCH  16  18
ENDBRANCH  14  16
ENDBRANCH  13  14
ENDBRANCH   1  13
BRANCH   1  19
ATOM     19  C   UNL     1       4.542   6.643  16.931  0.00  0.00    +0.000 C 
BRANCH  19  20
ATOM     20  C   UNL     1       3.541   7.271  17.877  0.00  0.00    +0.000 A 
ATOM     21  C   UNL     1       3.254   6.630  19.086  0.00  0.00    +0.000 A 
ATOM     22  C   UNL     1       2.295   7.154  19.949  0.00  0.00    +0.000 A 
ATOM     23  C   UNL     1       1.585   8.315  19.624  0.00  0.00    +0.000 A 
ATOM     24  C   UNL     1       1.874   8.990  18.423  0.00  0.00    +0.000 A 
ATOM     25  C   UNL     1       2.861   8.462  17.564  0.00  0.00    +0.000 A 
BRANCH  23  26
ATOM     26  O   UNL     1       0.663   8.628  20.591  0.00  0.00    +0.000 OA
ATOM     27  C   UNL     1       1.101   8.828  21.925  0.00  0.00    +0.000 C 
ENDBRANCH  23  26
BRANCH  24  28
ATOM     28  O   UNL     1       1.170  10.132  18.151  0.00  0.00    +0.000 OA
ATOM     29  C   UNL     1       1.627  11.367  18.680  0.00  0.00    +0.000 C 
ENDBRANCH  24  28
ENDBRANCH  19  20
ENDBRANCH   1  19
TORSDOF 11
ENDMDL
MODEL 7
REMARK VINA RESULT:      -6.6      2.390      3.622
REMARK  Name = 
REMARK  15 active torsions:
REMARK  status: ('A' for Active; 'I' for Inactive)
REMARK    1  A    between atoms: C_1  and  C_2
REMARK    2  A    between atoms: C_2  and  O_3
REMARK    3  A    between atoms: O_3  and  C_4
REMARK    4  A    between atoms: C_4  and  C_6
REMARK    5  A    between atoms: C_6  and  N_7
REMARK    6  A    between atoms: N_7  and  C_8
REMARK    7  A    between atoms: N_7  and  S_19
REMARK    8  A    between atoms: C_8  and  C_9
REMARK    9  A    between atoms: C_12  and  O_13
REMARK   10  A    between atoms: O_13  and  C_14
REMARK   11  A    between atoms: C_15  and  O_16
REMARK   12  A    between atoms: O_16  and  C_17
REMARK   13  A    between atoms: S_19  and  C_22
REMARK   14  A    between atoms: C_25  and  O_26
REMARK   15  A    between atoms: O_26  and  C_27
REMARK                            x       y       z     vdW  Elec       q    Type
REMARK                         _______ _______ _______ _____ _____    ______ ____
ROOT
ATOM      1  N   UNL     1       4.340   4.815  18.113  0.00  0.00    +0.000 NA
ENDROOT
BRANCH   1   2
ATOM      2  S   UNL     1       5.971   5.260  17.792  0.00  0.00    +0.000 S 
ATOM      3  O   UNL     1       6.140   6.693  17.815  0.00  0.00    +0.000 OA
ATOM      4  O   UNL     1       6.818   4.400  18.596  0.00  0.00    +0.000 OA
BRANCH   2   5
ATOM      5  C   UNL     1       6.153   4.783  16.088  0.00  0.00    +0.000 A 
ATOM      6  C   UNL     1       5.033   4.312  15.398  0.00  0.00    +0.000 A 
ATOM      7  C   UNL     1       5.152   3.972  14.050  0.00  0.00    +0.000 A 
ATOM      8  C   UNL     1       6.373   4.126  13.385  0.00  0.00    +0.000 A 
ATOM      9  C   UNL     1       7.483   4.613  14.080  0.00  0.00    +0.000 A 
ATOM     10  C   UNL     1       7.375   4.946  15.435  0.00  0.00    +0.000 A 
BRANCH   8  11
ATOM     11  O   UNL     1       6.370   3.737  12.073  0.00  0.00    +0.000 OA
ATOM     12  C   UNL     1       5.647   2.547  11.777  0.00  0.00    +0.000 C 
ENDBRANCH   8  11
ENDBRANCH   2   5
ENDBRANCH   1   2
BRANCH   1  13
ATOM     13  C   UNL     1       4.166   3.309  18.085  0.00  0.00    +0.000 C 
BRANCH  13  14
ATOM     14  C   UNL     1       3.980   2.622  19.423  0.00  0.00    +0.000 C 
ATOM     15  O   UNL     1       4.850   2.473  20.267  0.00  0.00    +0.000 OA
BRANCH  14  16
ATOM     16  O   UNL     1       2.687   2.183  19.553  0.00  0.00    +0.000 OA
BRANCH  16  18
ATOM     17  C   UNL     1       0.821   3.541  20.314  0.00  0.00    +0.000 C 
ATOM     18  C   UNL     1       1.971   2.637  20.716  0.00  0.00    +0.000 C 
ENDBRANCH  16  18
ENDBRANCH  14  16
ENDBRANCH  13  14
ENDBRANCH   1  13
BRANCH   1  19
ATOM     19  C   UNL     1       3.755   5.402  19.351  0.00  0.00    +0.000 C 
BRANCH  19  20
ATOM     20  C   UNL     1       2.905   6.644  19.192  0.00  0.00    +0.000 A 
ATOM     21  C   UNL     1       2.844   7.271  17.943  0.00  0.00    +0.000 A 
ATOM     22  C   UNL     1       2.118   8.448  17.782  0.00  0.00    +0.000 A 
ATOM     23  C   UNL     1       1.450   9.041  18.859  0.00  0.00    +0.000 A 
ATOM     24  C   UNL     1       1.477   8.415  20.120  0.00  0.00    +0.000 A 
ATOM     25  C   UNL     1       2.200   7.212  20.269  0.00  0.00    +0.000 A 
BRANCH  23  26
ATOM     26  O   UNL     1       0.836  10.211  18.489  0.00  0.00    +0.000 OA
ATOM     27  C   UNL     1       1.538  11.435  18.630  0.00  0.00    +0.000 C 
ENDBRANCH  23  26
BRANCH  24  28
ATOM     28  O   UNL     1       0.797   9.018  21.144  0.00  0.00    +0.000 OA
ATOM     29  C   UNL     1      -0.377   8.401  21.649  0.00  0.00    +0.000 C 
ENDBRANCH  24  28
ENDBRANCH  19  20
ENDBRANCH   1  19
TORSDOF 11
ENDMDL
MODEL 8
REMARK VINA RESULT:      -6.5      1.436      5.851
REMARK  Name = 
REMARK  15 active torsions:
REMARK  status: ('A' for Active; 'I' for Inactive)
REMARK    1  A    between atoms: C_1  and  C_2
REMARK    2  A    between atoms: C_2  and  O_3
REMARK    3  A    between atoms: O_3  and  C_4
REMARK    4  A    between atoms: C_4  and  C_6
REMARK    5  A    between atoms: C_6  and  N_7
REMARK    6  A    between atoms: N_7  and  C_8
REMARK    7  A    between atoms: N_7  and  S_19
REMARK    8  A    between atoms: C_8  and  C_9
REMARK    9  A    between atoms: C_12  and  O_13
REMARK   10  A    between atoms: O_13  and  C_14
REMARK   11  A    between atoms: C_15  and  O_16
REMARK   12  A    between atoms: O_16  and  C_17
REMARK   13  A    between atoms: S_19  and  C_22
REMARK   14  A    between atoms: C_25  and  O_26
REMARK   15  A    between atoms: O_26  and  C_27
REMARK                            x       y       z     vdW  Elec       q    Type
REMARK                         _______ _______ _______ _____ _____    ______ ____
ROOT
ATOM      1  N   UNL     1       5.934   6.394  17.494  0.00  0.00    +0.000 NA
ENDROOT
BRANCH   1   2
ATOM      2  S   UNL     1       6.457   4.757  17.395  0.00  0.00    +0.000 S 
ATOM      3  O   UNL     1       6.769   4.385  16.036  0.00  0.00    +0.000 OA
ATOM      4  O   UNL     1       7.418   4.548  18.461  0.00  0.00    +0.000 OA
BRANCH   2   5
ATOM      5  C   UNL     1       4.970   3.871  17.804  0.00  0.00    +0.000 A 
ATOM      6  C   UNL     1       4.033   3.628  16.796  0.00  0.00    +0.000 A 
ATOM      7  C   UNL     1       2.880   2.901  17.094  0.00  0.00    +0.000 A 
ATOM      8  C   UNL     1       2.674   2.393  18.381  0.00  0.00    +0.000 A 
ATOM      9  C   UNL     1       3.625   2.629  19.378  0.00  0.00    +0.000 A 
ATOM     10  C   UNL     1       4.778   3.368  19.091  0.00  0.00    +0.000 A 
BRANCH   8  11
ATOM     11  O   UNL     1       1.497   1.718  18.556  0.00  0.00    +0.000 OA
ATOM     12  C   UNL     1       0.463   2.430  19.227  0.00  0.00    +0.000 C 
ENDBRANCH   8  11
ENDBRANCH   2   5
ENDBRANCH   1   2
BRANCH   1  13
ATOM     13  C   UNL     1       7.001   7.343  16.987  0.00  0.00    +0.000 C 
BRANCH  13  14
ATOM     14  C   UNL     1       7.916   7.955  18.029  0.00  0.00    +0.000 C 
ATOM     15  O   UNL     1       8.521   7.334  18.888  0.00  0.00    +0.000 OA
BRANCH  14  16
ATOM     16  O   UNL     1       7.966   9.317  17.872  0.00  0.00    +0.000 OA
BRANCH  16  18
ATOM     17  C   UNL     1       9.210  11.396  18.060  0.00  0.00    +0.000 C 
ATOM     18  C   UNL     1       8.968  10.013  18.634  0.00  0.00    +0.000 C 
ENDBRANCH  16  18
ENDBRANCH  14  16
ENDBRANCH  13  14
ENDBRANCH   1  13
BRANCH   1  19
ATOM     19  C   UNL     1       4.615   6.677  16.861  0.00  0.00    +0.000 C 
BRANCH  19  20
ATOM     20  C   UNL     1       3.537   7.269  17.743  0.00  0.00    +0.000 A 
ATOM     21  C   UNL     1       3.039   8.542  17.446  0.00  0.00    +0.000 A 
ATOM     22  C   UNL     1       2.090   9.136  18.273  0.00  0.00    +0.000 A 
ATOM     23  C   UNL     1       1.625   8.491  19.424  0.00  0.00    +0.000 A 
ATOM     24  C   UNL     1       2.095   7.199  19.730  0.00  0.00    +0.000 A 
ATOM     25  C   UNL     1       3.043   6.597  18.875  0.00  0.00    +0.000 A 
BRANCH  23  26
ATOM     26  O   UNL     1       0.730   9.270  20.112  0.00  0.00    +0.000 OA
ATOM     27  C   UNL     1      -0.142  10.123  19.390  0.00  0.00    +0.000 C 
ENDBRANCH  23  26
BRANCH  24  28
ATOM     28  O   UNL     1       1.603   6.595  20.856  0.00  0.00    +0.000 OA
ATOM     29  C   UNL     1       1.770   5.194  21.015  0.00  0.00    +0.000 C 
ENDBRANCH  24  28
ENDBRANCH  19  20
ENDBRANCH   1  19
TORSDOF 11
ENDMDL
MODEL 9
REMARK VINA RESULT:      -6.5      1.232      2.196
REMARK  Name = 
REMARK  15 active torsions:
REMARK  status: ('A' for Active; 'I' for Inactive)
REMARK    1  A    between atoms: C_1  and  C_2
REMARK    2  A    between atoms: C_2  and  O_3
REMARK    3  A    between atoms: O_3  and  C_4
REMARK    4  A    between atoms: C_4  and  C_6
REMARK    5  A    between atoms: C_6  and  N_7
REMARK    6  A    between atoms: N_7  and  C_8
REMARK    7  A    between atoms: N_7  and  S_19
REMARK    8  A    between atoms: C_8  and  C_9
REMARK    9  A    between atoms: C_12  and  O_13
REMARK   10  A    between atoms: O_13  and  C_14
REMARK   11  A    between atoms: C_15  and  O_16
REMARK   12  A    between atoms: O_16  and  C_17
REMARK   13  A    between atoms: S_19  and  C_22
REMARK   14  A    between atoms: C_25  and  O_26
REMARK   15  A    between atoms: O_26  and  C_27
REMARK                            x       y       z     vdW  Elec       q    Type
REMARK                         _______ _______ _______ _____ _____    ______ ____
ROOT
ATOM      1  N   UNL     1       3.953   4.866  17.175  0.00  0.00    +0.000 NA
ENDROOT
BRANCH   1   2
ATOM      2  S   UNL     1       5.401   4.820  16.245  0.00  0.00    +0.000 S 
ATOM      3  O   UNL     1       6.076   3.552  16.385  0.00  0.00    +0.000 OA
ATOM      4  O   UNL     1       5.087   5.352  14.934  0.00  0.00    +0.000 OA
BRANCH   2   5
ATOM      5  C   UNL     1       6.422   6.002  17.097  0.00  0.00    +0.000 A 
ATOM      6  C   UNL     1       7.265   5.552  18.116  0.00  0.00    +0.000 A 
ATOM      7  C   UNL     1       8.100   6.462  18.765  0.00  0.00    +0.000 A 
ATOM      8  C   UNL     1       8.115   7.808  18.384  0.00  0.00    +0.000 A 
ATOM      9  C   UNL     1       7.279   8.245  17.353  0.00  0.00    +0.000 A 
ATOM     10  C   UNL     1       6.430   7.341  16.704  0.00  0.00    +0.000 A 
BRANCH   8  11
ATOM     11  O   UNL     1       8.956   8.605  19.111  0.00  0.00    +0.000 OA
ATOM     12  C   UNL     1       8.983   9.981  18.746  0.00  0.00    +0.000 C 
ENDBRANCH   8  11
ENDBRANCH   2   5
ENDBRANCH   1   2
BRANCH   1  13
ATOM     13  C   UNL     1       3.298   3.501  17.237  0.00  0.00    +0.000 C 
BRANCH  13  14
ATOM     14  C   UNL     1       1.844   3.465  17.665  0.00  0.00    +0.000 C 
ATOM     15  O   UNL     1       0.978   4.240  17.289  0.00  0.00    +0.000 OA
BRANCH  14  16
ATOM     16  O   UNL     1       1.635   2.434  18.545  0.00  0.00    +0.000 OA
BRANCH  16  18
ATOM     17  C   UNL     1       1.323   2.995  20.889  0.00  0.00    +0.000 C 
ATOM     18  C   UNL     1       2.296   2.537  19.819  0.00  0.00    +0.000 C 
ENDBRANCH  16  18
ENDBRANCH  14  16
ENDBRANCH  13  14
ENDBRANCH   1  13
BRANCH   1  19
ATOM     19  C   UNL     1       4.092   5.460  18.534  0.00  0.00    +0.000 C 
BRANCH  19  20
ATOM     20  C   UNL     1       3.169   6.608  18.884  0.00  0.00    +0.000 A 
ATOM     21  C   UNL     1       2.448   6.559  20.082  0.00  0.00    +0.000 A 
ATOM     22  C   UNL     1       1.549   7.572  20.403  0.00  0.00    +0.000 A 
ATOM     23  C   UNL     1       1.328   8.648  19.535  0.00  0.00    +0.000 A 
ATOM     24  C   UNL     1       2.060   8.730  18.335  0.00  0.00    +0.000 A 
ATOM     25  C   UNL     1       2.984   7.709  18.028  0.00  0.00    +0.000 A 
BRANCH  23  26
ATOM     26  O   UNL     1       0.374   9.504  20.026  0.00  0.00    +0.000 OA
ATOM     27  C   UNL     1       0.763  10.532  20.921  0.00  0.00    +0.000 C 
ENDBRANCH  23  26
BRANCH  24  28
ATOM     28  O   UNL     1       1.828   9.807  17.523  0.00  0.00    +0.000 OA
ATOM     29  C   UNL     1       2.430  11.052  17.840  0.00  0.00    +0.000 C 
ENDBRANCH  24  28
ENDBRANCH  19  20
ENDBRANCH   1  19
TORSDOF 11
ENDMDL
