MODEL 1
REMARK VINA RESULT:      -7.8      0.000      0.000
REMARK  Name = 
REMARK  9 active torsions:
REMARK  status: ('A' for Active; 'I' for Inactive)
REMARK    1  A    between atoms: C_1  and  C_2
REMARK    2  A    between atoms: C_2  and  C_3
REMARK    3  A    between atoms: C_2  and  C_4
REMARK    4  A    between atoms: C_4  and  C_5
REMARK    5  A    between atoms: C_8  and  C_9
REMARK    6  A    between atoms: C_9  and  C_11
REMARK    7  A    between atoms: C_12  and  C_13
REMARK    8  A    between atoms: C_16  and  C_17
REMARK    9  A    between atoms: C_17  and  O_19
REMARK                            x       y       z     vdW  Elec       q    Type
REMARK                         _______ _______ _______ _____ _____    ______ ____
ROOT
ATOM      1  C   UNL     1       7.674   6.849  18.087  0.00  0.00    +0.000 C 
ATOM      2  O   UNL     1       7.859   6.328  19.182  0.00  0.00    +0.000 OA
ENDROOT
BRANCH   1   6
ATOM      3  C   UNL     1       5.772   4.727  14.857  0.00  0.00    +0.000 A 
ATOM      4  C   UNL     1       5.303   5.982  15.272  0.00  0.00    +0.000 A 
ATOM      5  C   UNL     1       5.920   6.661  16.330  0.00  0.00    +0.000 A 
ATOM      6  C   UNL     1       7.020   6.095  16.985  0.00  0.00    +0.000 A 
ATOM      7  C   UNL     1       7.463   4.822  16.604  0.00  0.00    +0.000 A 
ATOM      8  C   UNL     1       6.842   4.145  15.551  0.00  0.00    +0.000 A 
BRANCH   3   9
ATOM      9  C   UNL     1       5.149   4.005  13.679  0.00  0.00    +0.000 C 
BRANCH   9  11
ATOM     10  C   UNL     1       5.496   2.447  11.687  0.00  0.00    +0.000 C 
ATOM     11  C   UNL     1       6.171   3.322  12.746  0.00  0.00    +0.000 C 
ATOM     12  C   UNL     1       7.046   4.370  12.049  0.00  0.00    +0.000 C 
ENDBRANCH   9  11
ENDBRANCH   3   9
ENDBRANCH   1   6
BRANCH   1  13
ATOM     13  C   UNL     1       8.031   8.272  17.817  0.00  0.00    +0.000 C 
ATOM     14  C   UNL     1       8.728   8.987  18.711  0.00  0.00    +0.000 C 
BRANCH  14  15
ATOM     15  C   UNL     1       9.033  10.398  18.465  0.00  0.00    +0.000 A 
ATOM     16  C   UNL     1      10.184  10.962  19.023  0.00  0.00    +0.000 A 
ATOM     17  C   UNL     1      10.467  12.318  18.836  0.00  0.00    +0.000 A 
ATOM     18  C   UNL     1       9.600  13.128  18.090  0.00  0.00    +0.000 A 
ATOM     19  C   UNL     1       8.462  12.558  17.503  0.00  0.00    +0.000 A 
ATOM     20  C   UNL     1       8.177  11.199  17.700  0.00  0.00    +0.000 A 
BRANCH  18  21
ATOM     21  C   UNL     1       9.963  14.560  17.922  0.00  0.00    +0.000 C 
ATOM     22  O   UNL     1      11.065  14.996  18.208  0.00  0.00    +0.000 OA
BRANCH  21  23
ATOM     23  O   UNL     1       8.961  15.342  17.473  0.00  0.00    +0.000 OA
ATOM     24  H   UNL     1       8.620  15.124  16.588  0.00  0.00    +0.000 HD
ENDBRANCH  21  23
ENDBRANCH  18  21
ENDBRANCH  14  15
ENDBRANCH   1  13
TORSDOF 7
ENDMDL
MODEL 2
REMARK VINA RESULT:      -7.8      0.454      1.177
REMARK  Name = 
REMARK  9 active torsions:
REMARK  status: ('A' for Active; 'I' for Inactive)
REMARK    1  A    between atoms: C_1  and  C_2
REMARK    2  A    between atoms: C_2  and  C_3
REMARK    3  A    between atoms: C_2  and  C_4
REMARK    4  A    between atoms: C_4  and  C_5
REMARK    5  A    between atoms: C_8  and  C_9
REMARK    6  A    between atoms: C_9  and  C_11
REMARK    7  A    between atoms: C_12  and  C_13
REMARK    8  A    between atoms: C_16  and  C_17
REMARK    9  A    between atoms: C_17  and  O_19
REMARK                            x       y       z     vdW  Elec       q    Type
REMARK                         _______ _______ _______ _____ _____    ______ ____
ROOT
ATOM      1  C   UNL     1       7.713   6.881  18.178  0.00  0.00    +0.000 C 
ATOM      2  O   UNL     1       7.857   6.384  19.290  0.00  0.00    +0.000 OA
ENDROOT
BRANCH   1   6
ATOM      3  C   UNL     1       5.784   4.751  14.969  0.00  0.00    +0.000 A 
ATOM      4  C   UNL     1       5.361   6.035  15.340  0.00  0.00    +0.000 A 
ATOM      5  C   UNL     1       5.986   6.718  16.391  0.00  0.00    +0.000 A 
ATOM      6  C   UNL     1       7.048   6.124  17.084  0.00  0.00    +0.000 A 
ATOM      7  C   UNL     1       7.444   4.825  16.747  0.00  0.00    +0.000 A 
ATOM      8  C   UNL     1       6.815   4.144  15.700  0.00  0.00    +0.000 A 
BRANCH   3   9
ATOM      9  C   UNL     1       5.154   4.023  13.800  0.00  0.00    +0.000 C 
BRANCH   9  11
ATOM     10  C   UNL     1       5.494   2.577  11.723  0.00  0.00    +0.000 C 
ATOM     11  C   UNL     1       6.173   3.401  12.821  0.00  0.00    +0.000 C 
ATOM     12  C   UNL     1       7.029   4.494  12.172  0.00  0.00    +0.000 C 
ENDBRANCH   9  11
ENDBRANCH   3   9
ENDBRANCH   1   6
BRANCH   1  13
ATOM     13  C   UNL     1       8.132   8.281  17.877  0.00  0.00    +0.000 C 
ATOM     14  C   UNL     1       8.760   9.024  18.800  0.00  0.00    +0.000 C 
BRANCH  14  15
ATOM     15  C   UNL     1       9.125  10.413  18.519  0.00  0.00    +0.000 A 
ATOM     16  C   UNL     1       8.254  11.220  17.781  0.00  0.00    +0.000 A 
ATOM     17  C   UNL     1       8.606  12.535  17.466  0.00  0.00    +0.000 A 
ATOM     18  C   UNL     1       9.838  13.058  17.881  0.00  0.00    +0.000 A 
ATOM     19  C   UNL     1      10.701  12.262  18.646  0.00  0.00    +0.000 A 
ATOM     20  C   UNL     1      10.347  10.941  18.954  0.00  0.00    +0.000 A 
BRANCH  18  21
ATOM     21  C   UNL     1      10.149  14.466  17.517  0.00  0.00    +0.000 C 
ATOM     22  O   UNL     1       9.650  15.419  18.092  0.00  0.00    +0.000 OA
BRANCH  21  23
ATOM     23  O   UNL     1      10.990  14.602  16.472  0.00  0.00    +0.000 OA
ATOM     24  H   UNL     1      11.937  14.642  16.695  0.00  0.00    +0.000 HD
ENDBRANCH  21  23
ENDBRANCH  18  21
ENDBRANCH  14  15
ENDBRANCH   1  13
TORSDOF 7
ENDMDL
MODEL 3
REMARK VINA RESULT:      -7.8      3.227      4.344
REMARK  Name = 
REMARK  9 active torsions:
REMARK  status: ('A' for Active; 'I' for Inactive)
REMARK    1  A    between atoms: C_1  and  C_2
REMARK    2  A    between atoms: C_2  and  C_3
REMARK    3  A    between atoms: C_2  and  C_4
REMARK    4  A    between atoms: C_4  and  C_5
REMARK    5  A    between atoms: C_8  and  C_9
REMARK    6  A    between atoms: C_9  and  C_11
REMARK    7  A    between atoms: C_12  and  C_13
REMARK    8  A    between atoms: C_16  and  C_17
REMARK    9  A    between atoms: C_17  and  O_19
REMARK                            x       y       z     vdW  Elec       q    Type
REMARK                         _______ _______ _______ _____ _____    ______ ____
ROOT
ATOM      1  C   UNL     1       7.105   6.504  17.188  0.00  0.00    +0.000 C 
ATOM      2  O   UNL     1       7.535   5.876  16.226  0.00  0.00    +0.000 OA
ENDROOT
BRANCH   1   6
ATOM      3  C   UNL     1       3.368   5.383  19.014  0.00  0.00    +0.000 A 
ATOM      4  C   UNL     1       3.407   6.297  17.951  0.00  0.00    +0.000 A 
ATOM      5  C   UNL     1       4.626   6.664  17.369  0.00  0.00    +0.000 A 
ATOM      6  C   UNL     1       5.826   6.118  17.841  0.00  0.00    +0.000 A 
ATOM      7  C   UNL     1       5.795   5.240  18.932  0.00  0.00    +0.000 A 
ATOM      8  C   UNL     1       4.577   4.880  19.513  0.00  0.00    +0.000 A 
BRANCH   3   9
ATOM      9  C   UNL     1       2.052   4.936  19.617  0.00  0.00    +0.000 C 
BRANCH   9  11
ATOM     10  C   UNL     1       1.427   3.085  21.262  0.00  0.00    +0.000 C 
ATOM     11  C   UNL     1       1.957   3.415  19.863  0.00  0.00    +0.000 C 
ATOM     12  C   UNL     1       1.052   2.757  18.815  0.00  0.00    +0.000 C 
ENDBRANCH   9  11
ENDBRANCH   3   9
ENDBRANCH   1   6
BRANCH   1  13
ATOM     13  C   UNL     1       7.861   7.638  17.794  0.00  0.00    +0.000 C 
ATOM     14  C   UNL     1       7.537   8.908  17.512  0.00  0.00    +0.000 C 
BRANCH  14  15
ATOM     15  C   UNL     1       8.312  10.019  18.068  0.00  0.00    +0.000 A 
ATOM     16  C   UNL     1       8.177  11.297  17.520  0.00  0.00    +0.000 A 
ATOM     17  C   UNL     1       8.942  12.360  18.009  0.00  0.00    +0.000 A 
ATOM     18  C   UNL     1       9.856  12.155  19.052  0.00  0.00    +0.000 A 
ATOM     19  C   UNL     1       9.972  10.880  19.624  0.00  0.00    +0.000 A 
ATOM     20  C   UNL     1       9.208   9.816  19.125  0.00  0.00    +0.000 A 
BRANCH  18  21
ATOM     21  C   UNL     1      10.634  13.328  19.530  0.00  0.00    +0.000 C 
ATOM     22  O   UNL     1      11.421  13.261  20.459  0.00  0.00    +0.000 OA
BRANCH  21  23
ATOM     23  O   UNL     1      10.362  14.480  18.883  0.00  0.00    +0.000 OA
ATOM     24  H   UNL     1      11.134  15.031  18.664  0.00  0.00    +0.000 HD
ENDBRANCH  21  23
ENDBRANCH  18  21
ENDBRANCH  14  15
ENDBRANCH   1  13
TORSDOF 7
ENDMDL
MODEL 4
REMARK VINA RESULT:      -7.6      3.349      4.333
REMARK  Name = 
REMARK  9 active torsions:
REMARK  status: ('A' for Active; 'I' for Inactive)
REMARK    1  A    between atoms: C_1  and  C_2
REMARK    2  A    between atoms: C_2  and  C_3
REMARK    3  A    between atoms: C_2  and  C_4
REMARK    4  A    between atoms: C_4  and  C_5
REMARK    5  A    between atoms: C_8  and  C_9
REMARK    6  A    between atoms: C_9  and  C_11
REMARK    7  A    between atoms: C_12  and  C_13
REMARK    8  A    between atoms: C_16  and  C_17
REMARK    9  A    between atoms: C_17  and  O_19
REMARK                            x       y       z     vdW  Elec       q    Type
REMARK                         _______ _______ _______ _____ _____    ______ ____
ROOT
ATOM      1  C   UNL     1       7.205   6.063  17.524  0.00  0.00    +0.000 C 
ATOM      2  O   UNL     1       7.787   5.348  16.715  0.00  0.00    +0.000 OA
ENDROOT
BRANCH   1   6
ATOM      3  C   UNL     1       3.266   5.022  18.923  0.00  0.00    +0.000 A 
ATOM      4  C   UNL     1       3.453   6.061  17.999  0.00  0.00    +0.000 A 
ATOM      5  C   UNL     1       4.738   6.400  17.556  0.00  0.00    +0.000 A 
ATOM      6  C   UNL     1       5.855   5.701  18.031  0.00  0.00    +0.000 A 
ATOM      7  C   UNL     1       5.677   4.695  18.987  0.00  0.00    +0.000 A 
ATOM      8  C   UNL     1       4.394   4.362  19.431  0.00  0.00    +0.000 A 
BRANCH   3   9
ATOM      9  C   UNL     1       1.879   4.609  19.370  0.00  0.00    +0.000 C 
BRANCH   9  11
ATOM     10  C   UNL     1       1.330   2.909  21.195  0.00  0.00    +0.000 C 
ATOM     11  C   UNL     1       1.755   3.115  19.738  0.00  0.00    +0.000 C 
ATOM     12  C   UNL     1       0.748   2.417  18.817  0.00  0.00    +0.000 C 
ENDBRANCH   9  11
ENDBRANCH   3   9
ENDBRANCH   1   6
BRANCH   1  13
ATOM     13  C   UNL     1       7.835   7.291  18.091  0.00  0.00    +0.000 C 
ATOM     14  C   UNL     1       7.690   8.480  17.487  0.00  0.00    +0.000 C 
BRANCH  14  15
ATOM     15  C   UNL     1       8.351   9.673  18.018  0.00  0.00    +0.000 A 
ATOM     16  C   UNL     1       9.158   9.567  19.154  0.00  0.00    +0.000 A 
ATOM     17  C   UNL     1       9.761  10.703  19.700  0.00  0.00    +0.000 A 
ATOM     18  C   UNL     1       9.560  11.962  19.119  0.00  0.00    +0.000 A 
ATOM     19  C   UNL     1       8.776  12.068  17.962  0.00  0.00    +0.000 A 
ATOM     20  C   UNL     1       8.167  10.926  17.422  0.00  0.00    +0.000 A 
BRANCH  18  21
ATOM     21  C   UNL     1      10.236  13.129  19.745  0.00  0.00    +0.000 C 
ATOM     22  O   UNL     1       9.972  14.281  19.444  0.00  0.00    +0.000 OA
BRANCH  21  23
ATOM     23  O   UNL     1      11.195  12.808  20.637  0.00  0.00    +0.000 OA
ATOM     24  H   UNL     1      11.654  11.965  20.476  0.00  0.00    +0.000 HD
ENDBRANCH  21  23
ENDBRANCH  18  21
ENDBRANCH  14  15
ENDBRANCH   1  13
TORSDOF 7
ENDMDL
MODEL 5
REMARK VINA RESULT:      -7.6      5.647      6.234
REMARK  Name = 
REMARK  9 active torsions:
REMARK  status: ('A' for Active; 'I' for Inactive)
REMARK    1  A    between atoms: C_1  and  C_2
REMARK    2  A    between atoms: C_2  and  C_3
REMARK    3  A    between atoms: C_2  and  C_4
REMARK    4  A    between atoms: C_4  and  C_5
REMARK    5  A    between atoms: C_8  and  C_9
REMARK    6  A    between atoms: C_9  and  C_11
REMARK    7  A    between atoms: C_12  and  C_13
REMARK    8  A    between atoms: C_16  and  C_17
REMARK    9  A    between atoms: C_17  and  O_19
REMARK                            x       y       z     vdW  Elec       q    Type
REMARK                         _______ _______ _______ _____ _____    ______ ____
ROOT
ATOM      1  C   UNL     1       5.481   4.751  18.410  0.00  0.00    +0.000 C 
ATOM      2  O   UNL     1       5.922   3.963  19.240  0.00  0.00    +0.000 OA
ENDROOT
BRANCH   1   6
ATOM      3  C   UNL     1       6.216   4.120  14.213  0.00  0.00    +0.000 A 
ATOM      4  C   UNL     1       7.111   4.860  15.000  0.00  0.00    +0.000 A 
ATOM      5  C   UNL     1       6.860   5.070  16.362  0.00  0.00    +0.000 A 
ATOM      6  C   UNL     1       5.710   4.537  16.956  0.00  0.00    +0.000 A 
ATOM      7  C   UNL     1       4.792   3.837  16.165  0.00  0.00    +0.000 A 
ATOM      8  C   UNL     1       5.043   3.634  14.805  0.00  0.00    +0.000 A 
BRANCH   3   9
ATOM      9  C   UNL     1       6.502   3.840  12.752  0.00  0.00    +0.000 C 
BRANCH   9  11
ATOM     10  C   UNL     1       4.428   3.319  11.356  0.00  0.00    +0.000 C 
ATOM     11  C   UNL     1       5.611   2.739  12.136  0.00  0.00    +0.000 C 
ATOM     12  C   UNL     1       6.435   1.841  11.207  0.00  0.00    +0.000 C 
ENDBRANCH   9  11
ENDBRANCH   3   9
ENDBRANCH   1   6
BRANCH   1  13
ATOM     13  C   UNL     1       4.644   5.923  18.800  0.00  0.00    +0.000 C 
ATOM     14  C   UNL     1       3.383   6.044  18.360  0.00  0.00    +0.000 C 
BRANCH  14  15
ATOM     15  C   UNL     1       2.582   7.220  18.703  0.00  0.00    +0.000 A 
ATOM     16  C   UNL     1       2.334   8.194  17.731  0.00  0.00    +0.000 A 
ATOM     17  C   UNL     1       1.609   9.344  18.052  0.00  0.00    +0.000 A 
ATOM     18  C   UNL     1       1.125   9.537  19.354  0.00  0.00    +0.000 A 
ATOM     19  C   UNL     1       1.345   8.549  20.323  0.00  0.00    +0.000 A 
ATOM     20  C   UNL     1       2.080   7.400  19.998  0.00  0.00    +0.000 A 
BRANCH  18  21
ATOM     21  C   UNL     1       0.355  10.779  19.628  0.00  0.00    +0.000 C 
ATOM     22  O   UNL     1      -0.327  11.331  18.781  0.00  0.00    +0.000 OA
BRANCH  21  23
ATOM     23  O   UNL     1       0.510  11.269  20.875  0.00  0.00    +0.000 OA
ATOM     24  H   UNL     1       1.379  11.111  21.285  0.00  0.00    +0.000 HD
ENDBRANCH  21  23
ENDBRANCH  18  21
ENDBRANCH  14  15
ENDBRANCH   1  13
TORSDOF 7
ENDMDL
MODEL 6
REMARK VINA RESULT:      -7.6      0.125      1.428
REMARK  Name = 
REMARK  9 active torsions:
REMARK  status: ('A' for Active; 'I' for Inactive)
REMARK    1  A    between atoms: C_1  and  C_2
REMARK    2  A    between atoms: C_2  and  C_3
REMARK    3  A    between atoms: C_2  and  C_4
REMARK    4  A    between atoms: C_4  and  C_5
REMARK    5  A    between atoms: C_8  and  C_9
REMARK    6  A    between atoms: C_9  and  C_11
REMARK    7  A    between atoms: C_12  and  C_13
REMARK    8  A    between atoms: C_16  and  C_17
REMARK    9  A    between atoms: C_17  and  O_19
REMARK                            x       y       z     vdW  Elec       q    Type
REMARK                         _______ _______ _______ _____ _____    ______ ____
ROOT
ATOM      1  C   UNL     1       7.602   6.847  18.109  0.00  0.00    +0.000 C 
ATOM      2  O   UNL     1       7.760   6.284  19.188  0.00  0.00    +0.000 OA
ENDROOT
BRANCH   1   6
ATOM      3  C   UNL     1       5.853   4.709  14.804  0.00  0.00    +0.000 A 
ATOM      4  C   UNL     1       6.997   4.223  15.454  0.00  0.00    +0.000 A 
ATOM      5  C   UNL     1       7.566   4.929  16.521  0.00  0.00    +0.000 A 
ATOM      6  C   UNL     1       6.994   6.131  16.956  0.00  0.00    +0.000 A 
ATOM      7  C   UNL     1       5.880   6.643  16.281  0.00  0.00    +0.000 A 
ATOM      8  C   UNL     1       5.317   5.938  15.213  0.00  0.00    +0.000 A 
BRANCH   3   9
ATOM      9  C   UNL     1       5.195   3.929  13.684  0.00  0.00    +0.000 C 
BRANCH   9  11
ATOM     10  C   UNL     1       5.490   2.439  11.631  0.00  0.00    +0.000 C 
ATOM     11  C   UNL     1       6.190   3.307  12.681  0.00  0.00    +0.000 C 
ATOM     12  C   UNL     1       6.994   4.403  11.972  0.00  0.00    +0.000 C 
ENDBRANCH   9  11
ENDBRANCH   3   9
ENDBRANCH   1   6
BRANCH   1  13
ATOM     13  C   UNL     1       7.946   8.285  17.910  0.00  0.00    +0.000 C 
ATOM     14  C   UNL     1       8.768   8.919  18.758  0.00  0.00    +0.000 C 
BRANCH  14  15
ATOM     15  C   UNL     1       9.063  10.343  18.588  0.00  0.00    +0.000 A 
ATOM     16  C   UNL     1       8.249  11.123  17.762  0.00  0.00    +0.000 A 
ATOM     17  C   UNL     1       8.542  12.473  17.554  0.00  0.00    +0.000 A 
ATOM     18  C   UNL     1       9.658  13.060  18.166  0.00  0.00    +0.000 A 
ATOM     19  C   UNL     1      10.459  12.288  19.019  0.00  0.00    +0.000 A 
ATOM     20  C   UNL     1      10.165  10.932  19.220  0.00  0.00    +0.000 A 
BRANCH  18  21
ATOM     21  C   UNL     1       9.910  14.502  17.908  0.00  0.00    +0.000 C 
ATOM     22  O   UNL     1      10.971  15.042  18.171  0.00  0.00    +0.000 OA
BRANCH  21  23
ATOM     23  O   UNL     1       8.854  15.173  17.404  0.00  0.00    +0.000 OA
ATOM     24  H   UNL     1       8.967  15.520  16.501  0.00  0.00    +0.000 HD
ENDBRANCH  21  23
ENDBRANCH  18  21
ENDBRANCH  14  15
ENDBRANCH   1  13
TORSDOF 7
ENDMDL
MODEL 7
REMARK VINA RESULT:      -7.6      5.664      6.261
REMARK  Name = 
REMARK  9 active torsions:
REMARK  status: ('A' for Active; 'I' for Inactive)
REMARK    1  A    between atoms: C_1  and  C_2
REMARK    2  A    between atoms: C_2  and  C_3
REMARK    3  A    between atoms: C_2  and  C_4
REMARK    4  A    between atoms: C_4  and  C_5
REMARK    5  A    between atoms: C_8  and  C_9
REMARK    6  A    between atoms: C_9  and  C_11
REMARK    7  A    between atoms: C_12  and  C_13
REMARK    8  A    between atoms: C_16  and  C_17
REMARK    9  A    between atoms: C_17  and  O_19
REMARK                            x       y       z     vdW  Elec       q    Type
REMARK                         _______ _______ _______ _____ _____    ______ ____
ROOT
ATOM      1  C   UNL     1       5.195   4.495  18.759  0.00  0.00    +0.000 C 
ATOM      2  O   UNL     1       5.597   3.671  19.574  0.00  0.00    +0.000 OA
ENDROOT
BRANCH   1   6
ATOM      3  C   UNL     1       6.209   4.222  14.582  0.00  0.00    +0.000 A 
ATOM      4  C   UNL     1       4.974   3.757  15.057  0.00  0.00    +0.000 A 
ATOM      5  C   UNL     1       4.655   3.839  16.418  0.00  0.00    +0.000 A 
ATOM      6  C   UNL     1       5.569   4.394  17.323  0.00  0.00    +0.000 A 
ATOM      7  C   UNL     1       6.820   4.817  16.861  0.00  0.00    +0.000 A 
ATOM      8  C   UNL     1       7.137   4.728  15.502  0.00  0.00    +0.000 A 
BRANCH   3   9
ATOM      9  C   UNL     1       6.545   4.188  13.105  0.00  0.00    +0.000 C 
BRANCH   9  11
ATOM     10  C   UNL     1       4.669   3.426  11.550  0.00  0.00    +0.000 C 
ATOM     11  C   UNL     1       5.911   3.006  12.341  0.00  0.00    +0.000 C 
ATOM     12  C   UNL     1       6.929   2.378  11.383  0.00  0.00    +0.000 C 
ENDBRANCH   9  11
ENDBRANCH   3   9
ENDBRANCH   1   6
BRANCH   1  13
ATOM     13  C   UNL     1       4.266   5.598  19.143  0.00  0.00    +0.000 C 
ATOM     14  C   UNL     1       3.608   6.298  18.208  0.00  0.00    +0.000 C 
BRANCH  14  15
ATOM     15  C   UNL     1       2.737   7.413  18.585  0.00  0.00    +0.000 A 
ATOM     16  C   UNL     1       2.193   7.458  19.872  0.00  0.00    +0.000 A 
ATOM     17  C   UNL     1       1.324   8.491  20.235  0.00  0.00    +0.000 A 
ATOM     18  C   UNL     1       0.984   9.490  19.312  0.00  0.00    +0.000 A 
ATOM     19  C   UNL     1       1.552   9.463  18.031  0.00  0.00    +0.000 A 
ATOM     20  C   UNL     1       2.417   8.422  17.669  0.00  0.00    +0.000 A 
BRANCH  18  21
ATOM     21  C   UNL     1       0.060  10.563  19.764  0.00  0.00    +0.000 C 
ATOM     22  O   UNL     1      -0.541  10.511  20.823  0.00  0.00    +0.000 OA
BRANCH  21  23
ATOM     23  O   UNL     1      -0.093  11.576  18.886  0.00  0.00    +0.000 OA
ATOM     24  H   UNL     1       0.718  12.066  18.663  0.00  0.00    +0.000 HD
ENDBRANCH  21  23
ENDBRANCH  18  21
ENDBRANCH  14  15
ENDBRANCH   1  13
TORSDOF 7
ENDMDL
MODEL 8
REMARK VINA RESULT:      -7.5      2.972      3.902
REMARK  Name = 
REMARK  9 active torsions:
REMARK  status: ('A' for Active; 'I' for Inactive)
REMARK    1  A    between atoms: C_1  and  C_2
REMARK    2  A    between atoms: C_2  and  C_3
REMARK    3  A    between atoms: C_2  and  C_4
REMARK    4  A    between atoms: C_4  and  C_5
REMARK    5  A    between atoms: C_8  and  C_9
REMARK    6  A    between atoms: C_9  and  C_11
REMARK    7  A    between atoms: C_12  and  C_13
REMARK    8  A    between atoms: C_16  and  C_17
REMARK    9  A    between atoms: C_17  and  O_19
REMARK                            x       y       z     vdW  Elec       q    Type
REMARK                         _______ _______ _______ _____ _____    ______ ____
ROOT
ATOM      1  C   UNL     1       7.499   5.428  18.246  0.00  0.00    +0.000 C 
ATOM      2  O   UNL     1       8.259   4.480  18.075  0.00  0.00    +0.000 OA
ENDROOT
BRANCH   1   6
ATOM      3  C   UNL     1       3.241   4.855  17.940  0.00  0.00    +0.000 A 
ATOM      4  C   UNL     1       4.072   4.700  16.822  0.00  0.00    +0.000 A 
ATOM      5  C   UNL     1       5.455   4.898  16.926  0.00  0.00    +0.000 A 
ATOM      6  C   UNL     1       6.025   5.250  18.155  0.00  0.00    +0.000 A 
ATOM      7  C   UNL     1       5.194   5.450  19.264  0.00  0.00    +0.000 A 
ATOM      8  C   UNL     1       3.814   5.257  19.155  0.00  0.00    +0.000 A 
BRANCH   3   9
ATOM      9  C   UNL     1       1.751   4.592  17.854  0.00  0.00    +0.000 C 
BRANCH   9  11
ATOM     10  C   UNL     1       2.423   2.144  18.134  0.00  0.00    +0.000 C 
ATOM     11  C   UNL     1       1.329   3.193  18.353  0.00  0.00    +0.000 C 
ATOM     12  C   UNL     1       0.968   3.240  19.842  0.00  0.00    +0.000 C 
ENDBRANCH   9  11
ENDBRANCH   3   9
ENDBRANCH   1   6
BRANCH   1  13
ATOM     13  C   UNL     1       7.997   6.785  18.613  0.00  0.00    +0.000 C 
ATOM     14  C   UNL     1       7.782   7.837  17.810  0.00  0.00    +0.000 C 
BRANCH  14  15
ATOM     15  C   UNL     1       8.316   9.157  18.148  0.00  0.00    +0.000 A 
ATOM     16  C   UNL     1       9.127   9.305  19.277  0.00  0.00    +0.000 A 
ATOM     17  C   UNL     1       9.609  10.565  19.640  0.00  0.00    +0.000 A 
ATOM     18  C   UNL     1       9.281  11.696  18.880  0.00  0.00    +0.000 A 
ATOM     19  C   UNL     1       8.492  11.547  17.731  0.00  0.00    +0.000 A 
ATOM     20  C   UNL     1       8.005  10.282  17.375  0.00  0.00    +0.000 A 
BRANCH  18  21
ATOM     21  C   UNL     1       9.832  13.006  19.317  0.00  0.00    +0.000 C 
ATOM     22  O   UNL     1       9.174  13.821  19.941  0.00  0.00    +0.000 OA
BRANCH  21  23
ATOM     23  O   UNL     1      11.102  13.237  18.925  0.00  0.00    +0.000 OA
ATOM     24  H   UNL     1      11.669  12.450  18.848  0.00  0.00    +0.000 HD
ENDBRANCH  21  23
ENDBRANCH  18  21
ENDBRANCH  14  15
ENDBRANCH   1  13
TORSDOF 7
ENDMDL
MODEL 9
REMARK VINA RESULT:      -7.5      3.334      4.421
REMARK  Name = 
REMARK  9 active torsions:
REMARK  status: ('A' for Active; 'I' for Inactive)
REMARK    1  A    between atoms: C_1  and  C_2
REMARK    2  A    between atoms: C_2  and  C_3
REMARK    3  A    between atoms: C_2  and  C_4
REMARK    4  A    between atoms: C_4  and  C_5
REMARK    5  A    between atoms: C_8  and  C_9
REMARK    6  A    between atoms: C_9  and  C_11
REMARK    7  A    between atoms: C_12  and  C_13
REMARK    8  A    between atoms: C_16  and  C_17
REMARK    9  A    between atoms: C_17  and  O_19
REMARK                            x       y       z     vdW  Elec       q    Type
REMARK                         _______ _______ _______ _____ _____    ______ ____
ROOT
ATOM      1  C   UNL     1       6.782   7.023  17.224  0.00  0.00    +0.000 C 
ATOM      2  O   UNL     1       7.486   6.360  16.470  0.00  0.00    +0.000 OA
ENDROOT
BRANCH   1   6
ATOM      3  C   UNL     1       3.154   5.401  18.886  0.00  0.00    +0.000 A 
ATOM      4  C   UNL     1       4.406   4.871  19.231  0.00  0.00    +0.000 A 
ATOM      5  C   UNL     1       5.581   5.397  18.678  0.00  0.00    +0.000 A 
ATOM      6  C   UNL     1       5.518   6.465  17.775  0.00  0.00    +0.000 A 
ATOM      7  C   UNL     1       4.268   6.966  17.394  0.00  0.00    +0.000 A 
ATOM      8  C   UNL     1       3.097   6.436  17.943  0.00  0.00    +0.000 A 
BRANCH   3   9
ATOM      9  C   UNL     1       1.880   4.877  19.517  0.00  0.00    +0.000 C 
BRANCH   9  11
ATOM     10  C   UNL     1       1.570   3.086  21.309  0.00  0.00    +0.000 C 
ATOM     11  C   UNL     1       1.911   3.369  19.844  0.00  0.00    +0.000 C 
ATOM     12  C   UNL     1       0.936   2.604  18.943  0.00  0.00    +0.000 C 
ENDBRANCH   9  11
ENDBRANCH   3   9
ENDBRANCH   1   6
BRANCH   1  13
ATOM     13  C   UNL     1       7.176   8.388  17.678  0.00  0.00    +0.000 C 
ATOM     14  C   UNL     1       8.445   8.662  18.012  0.00  0.00    +0.000 C 
BRANCH  14  15
ATOM     15  C   UNL     1       8.818   9.989  18.505  0.00  0.00    +0.000 A 
ATOM     16  C   UNL     1       9.316  10.126  19.804  0.00  0.00    +0.000 A 
ATOM     17  C   UNL     1       9.636  11.390  20.308  0.00  0.00    +0.000 A 
ATOM     18  C   UNL     1       9.457  12.535  19.518  0.00  0.00    +0.000 A 
ATOM     19  C   UNL     1       8.988  12.397  18.204  0.00  0.00    +0.000 A 
ATOM     20  C   UNL     1       8.661  11.127  17.706  0.00  0.00    +0.000 A 
BRANCH  18  21
ATOM     21  C   UNL     1       9.823  13.848  20.110  0.00  0.00    +0.000 C 
ATOM     22  O   UNL     1       9.058  14.491  20.808  0.00  0.00    +0.000 OA
BRANCH  21  23
ATOM     23  O   UNL     1      11.053  14.290  19.775  0.00  0.00    +0.000 OA
ATOM     24  H   UNL     1      11.741  14.175  20.453  0.00  0.00    +0.000 HD
ENDBRANCH  21  23
ENDBRANCH  18  21
ENDBRANCH  14  15
ENDBRANCH   1  13
TORSDOF 7
ENDMDL
