MODEL 1
REMARK VINA RESULT:      -7.8      0.000      0.000
REMARK  Name = 
REMARK  13 active torsions:
REMARK  status: ('A' for Active; 'I' for Inactive)
REMARK    1  A    between atoms: C_1  and  O_2
REMARK    2  A    between atoms: O_2  and  C_3
REMARK    3  A    between atoms: C_3  and  C_5
REMARK    4  A    between atoms: C_8  and  N_9
REMARK    5  A    between atoms: C_10  and  C_12
REMARK    6  A    between atoms: C_12  and  S_13
REMARK    7  A    between atoms: S_13  and  C_14
REMARK    8  A    between atoms: C_17  and  C_18
REMARK    9  A    between atoms: C_18  and  N_19
REMARK   10  A    between atoms: N_19  and  C_20
REMARK   11  A    between atoms: C_23  and  O_24
REMARK   12  A    between atoms: O_24  and  C_25
REMARK   13  A    between atoms: N_28  and  C_29
REMARK                            x       y       z     vdW  Elec       q    Type
REMARK                         _______ _______ _______ _____ _____    ______ ____
ROOT
ATOM      1  C   UNL     1       6.071   4.880  18.024  0.00  0.00    +0.000 A 
ATOM      2  N   UNL     1       7.038   4.662  18.880  0.00  0.00    +0.000 NA
ATOM      3  N   UNL     1       7.844   5.777  18.883  0.00  0.00    +0.000 NA
ATOM      4  C   UNL     1       7.347   6.657  18.031  0.00  0.00    +0.000 A 
ATOM      5  N   UNL     1       6.215   6.121  17.463  0.00  0.00    +0.000 N 
ATOM      6  C   UNL     1       5.327   6.741  16.514  0.00  0.00    +0.000 C 
ENDROOT
BRANCH   1   7
ATOM      7  S   UNL     1       4.795   3.791  17.618  0.00  0.00    +0.000 S 
BRANCH   7   8
ATOM      8  C   UNL     1       3.696   3.987  19.053  0.00  0.00    +0.000 C 
BRANCH   8  10
ATOM      9  N   UNL     1       3.012   6.293  19.503  0.00  0.00    +0.000 N 
ATOM     10  C   UNL     1       2.751   5.142  18.764  0.00  0.00    +0.000 C 
ATOM     11  O   UNL     1       1.845   5.014  17.942  0.00  0.00    +0.000 OA
ATOM     12  H   UNL     1       3.880   6.313  20.025  0.00  0.00    +0.000 HD
BRANCH   9  16
ATOM     13  C   UNL     1       0.684   9.822  19.356  0.00  0.00    +0.000 A 
ATOM     14  C   UNL     1       0.790   9.113  20.553  0.00  0.00    +0.000 A 
ATOM     15  C   UNL     1       1.564   7.951  20.621  0.00  0.00    +0.000 A 
ATOM     16  C   UNL     1       2.245   7.478  19.499  0.00  0.00    +0.000 A 
ATOM     17  C   UNL     1       2.176   8.216  18.312  0.00  0.00    +0.000 A 
ATOM     18  C   UNL     1       1.390   9.374  18.235  0.00  0.00    +0.000 A 
BRANCH  13  19
ATOM     19  C   UNL     1      -0.178  11.028  19.333  0.00  0.00    +0.000 C 
ATOM     20  O   UNL     1      -0.256  11.815  20.262  0.00  0.00    +0.000 OA
BRANCH  19  22
ATOM     21  C   UNL     1      -2.060  10.351  18.134  0.00  0.00    +0.000 C 
ATOM     22  O   UNL     1      -0.850  11.110  18.161  0.00  0.00    +0.000 OA
ENDBRANCH  19  22
ENDBRANCH  13  19
ENDBRANCH   9  16
ENDBRANCH   8  10
ENDBRANCH   7   8
ENDBRANCH   1   7
BRANCH   4  23
ATOM     23  C   UNL     1       7.876   8.040  17.794  0.00  0.00    +0.000 C 
BRANCH  23  24
ATOM     24  N   UNL     1       8.713   8.596  18.864  0.00  0.00    +0.000 N 
ATOM     25  H   UNL     1       9.514   8.017  19.089  0.00  0.00    +0.000 HD
BRANCH  24  26
ATOM     26  C   UNL     1       9.021   9.961  18.821  0.00  0.00    +0.000 A 
ATOM     27  C   UNL     1       8.530  10.822  17.833  0.00  0.00    +0.000 A 
ATOM     28  C   UNL     1       8.834  12.187  17.839  0.00  0.00    +0.000 A 
ATOM     29  C   UNL     1       9.602  12.738  18.860  0.00  0.00    +0.000 A 
ATOM     30  C   UNL     1      10.062  11.912  19.880  0.00  0.00    +0.000 A 
ATOM     31  C   UNL     1       9.756  10.539  19.866  0.00  0.00    +0.000 A 
BRANCH  29  32
ATOM     32  O   UNL     1       9.861  14.073  18.733  0.00  0.00    +0.000 OA
ATOM     33  C   UNL     1       9.963  14.807  19.947  0.00  0.00    +0.000 C 
ENDBRANCH  29  32
ENDBRANCH  24  26
ENDBRANCH  23  24
ENDBRANCH   4  23
TORSDOF 10
ENDMDL
MODEL 2
REMARK VINA RESULT:      -7.7      0.694      1.510
REMARK  Name = 
REMARK  13 active torsions:
REMARK  status: ('A' for Active; 'I' for Inactive)
REMARK    1  A    between atoms: C_1  and  O_2
REMARK    2  A    between atoms: O_2  and  C_3
REMARK    3  A    between atoms: C_3  and  C_5
REMARK    4  A    between atoms: C_8  and  N_9
REMARK    5  A    between atoms: C_10  and  C_12
REMARK    6  A    between atoms: C_12  and  S_13
REMARK    7  A    between atoms: S_13  and  C_14
REMARK    8  A    between atoms: C_17  and  C_18
REMARK    9  A    between atoms: C_18  and  N_19
REMARK   10  A    between atoms: N_19  and  C_20
REMARK   11  A    between atoms: C_23  and  O_24
REMARK   12  A    between atoms: O_24  and  C_25
REMARK   13  A    between atoms: N_28  and  C_29
REMARK                            x       y       z     vdW  Elec       q    Type
REMARK                         _______ _______ _______ _____ _____    ______ ____
ROOT
ATOM      1  C   UNL     1       6.237   5.039  17.889  0.00  0.00    +0.000 A 
ATOM      2  N   UNL     1       7.161   4.782  18.781  0.00  0.00    +0.000 NA
ATOM      3  N   UNL     1       7.955   5.899  18.886  0.00  0.00    +0.000 NA
ATOM      4  C   UNL     1       7.496   6.821  18.058  0.00  0.00    +0.000 A 
ATOM      5  N   UNL     1       6.399   6.310  17.403  0.00  0.00    +0.000 N 
ATOM      6  C   UNL     1       5.557   6.975  16.444  0.00  0.00    +0.000 C 
ENDROOT
BRANCH   1   7
ATOM      7  S   UNL     1       4.993   3.967  17.360  0.00  0.00    +0.000 S 
BRANCH   7   8
ATOM      8  C   UNL     1       3.871   3.996  18.789  0.00  0.00    +0.000 C 
BRANCH   8  10
ATOM      9  N   UNL     1       3.184   6.328  19.070  0.00  0.00    +0.000 N 
ATOM     10  C   UNL     1       2.836   5.084  18.550  0.00  0.00    +0.000 C 
ATOM     11  O   UNL     1       1.794   4.830  17.947  0.00  0.00    +0.000 OA
ATOM     12  H   UNL     1       4.136   6.435  19.402  0.00  0.00    +0.000 HD
BRANCH   9  16
ATOM     13  C   UNL     1       0.801   9.821  19.200  0.00  0.00    +0.000 A 
ATOM     14  C   UNL     1       1.411   9.445  18.002  0.00  0.00    +0.000 A 
ATOM     15  C   UNL     1       2.193   8.288  17.940  0.00  0.00    +0.000 A 
ATOM     16  C   UNL     1       2.378   7.487  19.068  0.00  0.00    +0.000 A 
ATOM     17  C   UNL     1       1.727   7.841  20.256  0.00  0.00    +0.000 A 
ATOM     18  C   UNL     1       0.954   9.008  20.327  0.00  0.00    +0.000 A 
BRANCH  13  19
ATOM     19  C   UNL     1       0.012  11.076  19.216  0.00  0.00    +0.000 C 
ATOM     20  O   UNL     1      -1.207  11.102  19.226  0.00  0.00    +0.000 OA
BRANCH  19  22
ATOM     21  C   UNL     1       0.282  13.293  18.544  0.00  0.00    +0.000 C 
ATOM     22  O   UNL     1       0.832  12.154  19.207  0.00  0.00    +0.000 OA
ENDBRANCH  19  22
ENDBRANCH  13  19
ENDBRANCH   9  16
ENDBRANCH   8  10
ENDBRANCH   7   8
ENDBRANCH   1   7
BRANCH   4  23
ATOM     23  C   UNL     1       8.024   8.218  17.923  0.00  0.00    +0.000 C 
BRANCH  23  24
ATOM     24  N   UNL     1       8.849   8.698  19.038  0.00  0.00    +0.000 N 
ATOM     25  H   UNL     1       9.652   8.109  19.228  0.00  0.00    +0.000 HD
BRANCH  24  26
ATOM     26  C   UNL     1       9.149  10.065  19.097  0.00  0.00    +0.000 A 
ATOM     27  C   UNL     1       9.468  10.725  20.289  0.00  0.00    +0.000 A 
ATOM     28  C   UNL     1       9.791  12.086  20.305  0.00  0.00    +0.000 A 
ATOM     29  C   UNL     1       9.847  12.815  19.121  0.00  0.00    +0.000 A 
ATOM     30  C   UNL     1       9.581  12.171  17.918  0.00  0.00    +0.000 A 
ATOM     31  C   UNL     1       9.253  10.803  17.909  0.00  0.00    +0.000 A 
BRANCH  29  32
ATOM     32  O   UNL     1      10.137  14.141  19.272  0.00  0.00    +0.000 OA
ATOM     33  C   UNL     1       9.022  15.008  19.443  0.00  0.00    +0.000 C 
ENDBRANCH  29  32
ENDBRANCH  24  26
ENDBRANCH  23  24
ENDBRANCH   4  23
TORSDOF 10
ENDMDL
MODEL 3
REMARK VINA RESULT:      -7.5      3.952      5.990
REMARK  Name = 
REMARK  13 active torsions:
REMARK  status: ('A' for Active; 'I' for Inactive)
REMARK    1  A    between atoms: C_1  and  O_2
REMARK    2  A    between atoms: O_2  and  C_3
REMARK    3  A    between atoms: C_3  and  C_5
REMARK    4  A    between atoms: C_8  and  N_9
REMARK    5  A    between atoms: C_10  and  C_12
REMARK    6  A    between atoms: C_12  and  S_13
REMARK    7  A    between atoms: S_13  and  C_14
REMARK    8  A    between atoms: C_17  and  C_18
REMARK    9  A    between atoms: C_18  and  N_19
REMARK   10  A    between atoms: N_19  and  C_20
REMARK   11  A    between atoms: C_23  and  O_24
REMARK   12  A    between atoms: O_24  and  C_25
REMARK   13  A    between atoms: N_28  and  C_29
REMARK                            x       y       z     vdW  Elec       q    Type
REMARK                         _______ _______ _______ _____ _____    ______ ____
ROOT
ATOM      1  C   UNL     1       4.680   3.728  19.232  0.00  0.00    +0.000 A 
ATOM      2  N   UNL     1       5.748   4.103  19.889  0.00  0.00    +0.000 NA
ATOM      3  N   UNL     1       6.413   5.018  19.107  0.00  0.00    +0.000 NA
ATOM      4  C   UNL     1       5.732   5.188  17.987  0.00  0.00    +0.000 A 
ATOM      5  N   UNL     1       4.618   4.381  18.029  0.00  0.00    +0.000 N 
ATOM      6  C   UNL     1       3.571   4.273  17.047  0.00  0.00    +0.000 C 
ENDROOT
BRANCH   1   7
ATOM      7  S   UNL     1       3.506   2.575  19.751  0.00  0.00    +0.000 S 
BRANCH   7   8
ATOM      8  C   UNL     1       2.777   3.433  21.179  0.00  0.00    +0.000 C 
BRANCH   8  10
ATOM      9  N   UNL     1       2.674   5.791  20.531  0.00  0.00    +0.000 N 
ATOM     10  C   UNL     1       1.959   4.603  20.654  0.00  0.00    +0.000 C 
ATOM     11  O   UNL     1       0.768   4.456  20.383  0.00  0.00    +0.000 OA
ATOM     12  H   UNL     1       3.680   5.732  20.639  0.00  0.00    +0.000 HD
BRANCH   9  16
ATOM     13  C   UNL     1       1.082   9.501  19.269  0.00  0.00    +0.000 A 
ATOM     14  C   UNL     1       0.897   9.082  20.587  0.00  0.00    +0.000 A 
ATOM     15  C   UNL     1       1.425   7.864  21.022  0.00  0.00    +0.000 A 
ATOM     16  C   UNL     1       2.148   7.045  20.153  0.00  0.00    +0.000 A 
ATOM     17  C   UNL     1       2.373   7.489  18.845  0.00  0.00    +0.000 A 
ATOM     18  C   UNL     1       1.832   8.703  18.399  0.00  0.00    +0.000 A 
BRANCH  13  19
ATOM     19  C   UNL     1       0.469  10.785  18.853  0.00  0.00    +0.000 C 
ATOM     20  O   UNL     1      -0.501  10.860  18.117  0.00  0.00    +0.000 OA
BRANCH  19  22
ATOM     21  C   UNL     1       1.908  12.575  18.446  0.00  0.00    +0.000 C 
ATOM     22  O   UNL     1       1.142  11.830  19.393  0.00  0.00    +0.000 OA
ENDBRANCH  19  22
ENDBRANCH  13  19
ENDBRANCH   9  16
ENDBRANCH   8  10
ENDBRANCH   7   8
ENDBRANCH   1   7
BRANCH   4  23
ATOM     23  C   UNL     1       6.067   6.163  16.898  0.00  0.00    +0.000 C 
BRANCH  23  24
ATOM     24  N   UNL     1       7.110   5.735  15.957  0.00  0.00    +0.000 N 
ATOM     25  H   UNL     1       7.933   5.359  16.414  0.00  0.00    +0.000 HD
BRANCH  24  26
ATOM     26  C   UNL     1       6.722   4.994  14.834  0.00  0.00    +0.000 A 
ATOM     27  C   UNL     1       5.468   4.382  14.720  0.00  0.00    +0.000 A 
ATOM     28  C   UNL     1       5.105   3.676  13.569  0.00  0.00    +0.000 A 
ATOM     29  C   UNL     1       5.969   3.599  12.481  0.00  0.00    +0.000 A 
ATOM     30  C   UNL     1       7.201   4.239  12.551  0.00  0.00    +0.000 A 
ATOM     31  C   UNL     1       7.563   4.945  13.713  0.00  0.00    +0.000 A 
BRANCH  29  32
ATOM     32  O   UNL     1       5.514   2.850  11.433  0.00  0.00    +0.000 OA
ATOM     33  C   UNL     1       4.136   2.998  11.112  0.00  0.00    +0.000 C 
ENDBRANCH  29  32
ENDBRANCH  24  26
ENDBRANCH  23  24
ENDBRANCH   4  23
TORSDOF 10
ENDMDL
MODEL 4
REMARK VINA RESULT:      -7.1      0.973      1.061
REMARK  Name = 
REMARK  13 active torsions:
REMARK  status: ('A' for Active; 'I' for Inactive)
REMARK    1  A    between atoms: C_1  and  O_2
REMARK    2  A    between atoms: O_2  and  C_3
REMARK    3  A    between atoms: C_3  and  C_5
REMARK    4  A    between atoms: C_8  and  N_9
REMARK    5  A    between atoms: C_10  and  C_12
REMARK    6  A    between atoms: C_12  and  S_13
REMARK    7  A    between atoms: S_13  and  C_14
REMARK    8  A    between atoms: C_17  and  C_18
REMARK    9  A    between atoms: C_18  and  N_19
REMARK   10  A    between atoms: N_19  and  C_20
REMARK   11  A    between atoms: C_23  and  O_24
REMARK   12  A    between atoms: O_24  and  C_25
REMARK   13  A    between atoms: N_28  and  C_29
REMARK                            x       y       z     vdW  Elec       q    Type
REMARK                         _______ _______ _______ _____ _____    ______ ____
ROOT
ATOM      1  C   UNL     1       5.958   5.155  18.045  0.00  0.00    +0.000 A 
ATOM      2  N   UNL     1       6.890   5.024  18.955  0.00  0.00    +0.000 NA
ATOM      3  N   UNL     1       7.750   6.089  18.822  0.00  0.00    +0.000 NA
ATOM      4  C   UNL     1       7.321   6.854  17.834  0.00  0.00    +0.000 A 
ATOM      5  N   UNL     1       6.179   6.292  17.313  0.00  0.00    +0.000 N 
ATOM      6  C   UNL     1       5.349   6.804  16.253  0.00  0.00    +0.000 C 
ENDROOT
BRANCH   1   7
ATOM      7  S   UNL     1       4.641   4.078  17.760  0.00  0.00    +0.000 S 
BRANCH   7   8
ATOM      8  C   UNL     1       3.904   3.978  19.419  0.00  0.00    +0.000 C 
BRANCH   8  10
ATOM      9  N   UNL     1       3.168   6.308  19.287  0.00  0.00    +0.000 N 
ATOM     10  C   UNL     1       2.771   4.989  19.489  0.00  0.00    +0.000 C 
ATOM     11  O   UNL     1       1.619   4.619  19.715  0.00  0.00    +0.000 OA
ATOM     12  H   UNL     1       4.114   6.454  18.956  0.00  0.00    +0.000 HD
BRANCH   9  16
ATOM     13  C   UNL     1       0.663   9.713  19.439  0.00  0.00    +0.000 A 
ATOM     14  C   UNL     1       0.889   8.969  20.598  0.00  0.00    +0.000 A 
ATOM     15  C   UNL     1       1.722   7.847  20.566  0.00  0.00    +0.000 A 
ATOM     16  C   UNL     1       2.345   7.450  19.382  0.00  0.00    +0.000 A 
ATOM     17  C   UNL     1       2.154   8.226  18.232  0.00  0.00    +0.000 A 
ATOM     18  C   UNL     1       1.308   9.343  18.255  0.00  0.00    +0.000 A 
BRANCH  13  19
ATOM     19  C   UNL     1      -0.257  10.873  19.524  0.00  0.00    +0.000 C 
ATOM     20  O   UNL     1      -0.584  11.396  20.576  0.00  0.00    +0.000 OA
BRANCH  19  22
ATOM     21  C   UNL     1      -1.093  12.604  18.203  0.00  0.00    +0.000 C 
ATOM     22  O   UNL     1      -0.672  11.242  18.288  0.00  0.00    +0.000 OA
ENDBRANCH  19  22
ENDBRANCH  13  19
ENDBRANCH   9  16
ENDBRANCH   8  10
ENDBRANCH   7   8
ENDBRANCH   1   7
BRANCH   4  23
ATOM     23  C   UNL     1       7.924   8.162  17.414  0.00  0.00    +0.000 C 
BRANCH  23  24
ATOM     24  N   UNL     1       7.704   9.289  18.329  0.00  0.00    +0.000 N 
ATOM     25  H   UNL     1       7.483   9.001  19.275  0.00  0.00    +0.000 HD
BRANCH  24  26
ATOM     26  C   UNL     1       8.601  10.363  18.281  0.00  0.00    +0.000 A 
ATOM     27  C   UNL     1       8.337  11.545  17.580  0.00  0.00    +0.000 A 
ATOM     28  C   UNL     1       9.244  12.610  17.579  0.00  0.00    +0.000 A 
ATOM     29  C   UNL     1      10.423  12.539  18.316  0.00  0.00    +0.000 A 
ATOM     30  C   UNL     1      10.686  11.393  19.058  0.00  0.00    +0.000 A 
ATOM     31  C   UNL     1       9.771  10.324  19.052  0.00  0.00    +0.000 A 
BRANCH  29  32
ATOM     32  O   UNL     1      11.242  13.625  18.203  0.00  0.00    +0.000 OA
ATOM     33  C   UNL     1      12.322  13.500  17.286  0.00  0.00    +0.000 C 
ENDBRANCH  29  32
ENDBRANCH  24  26
ENDBRANCH  23  24
ENDBRANCH   4  23
TORSDOF 10
ENDMDL
MODEL 5
REMARK VINA RESULT:      -7.0      1.284      1.837
REMARK  Name = 
REMARK  13 active torsions:
REMARK  status: ('A' for Active; 'I' for Inactive)
REMARK    1  A    between atoms: C_1  and  O_2
REMARK    2  A    between atoms: O_2  and  C_3
REMARK    3  A    between atoms: C_3  and  C_5
REMARK    4  A    between atoms: C_8  and  N_9
REMARK    5  A    between atoms: C_10  and  C_12
REMARK    6  A    between atoms: C_12  and  S_13
REMARK    7  A    between atoms: S_13  and  C_14
REMARK    8  A    between atoms: C_17  and  C_18
REMARK    9  A    between atoms: C_18  and  N_19
REMARK   10  A    between atoms: N_19  and  C_20
REMARK   11  A    between atoms: C_23  and  O_24
REMARK   12  A    between atoms: O_24  and  C_25
REMARK   13  A    between atoms: N_28  and  C_29
REMARK                            x       y       z     vdW  Elec       q    Type
REMARK                         _______ _______ _______ _____ _____    ______ ____
ROOT
ATOM      1  C   UNL     1       5.952   5.616  17.694  0.00  0.00    +0.000 A 
ATOM      2  N   UNL     1       5.666   6.280  16.603  0.00  0.00    +0.000 NA
ATOM      3  N   UNL     1       6.483   7.385  16.567  0.00  0.00    +0.000 NA
ATOM      4  C   UNL     1       7.257   7.372  17.638  0.00  0.00    +0.000 A 
ATOM      5  N   UNL     1       6.948   6.256  18.383  0.00  0.00    +0.000 N 
ATOM      6  C   UNL     1       7.568   5.814  19.605  0.00  0.00    +0.000 C 
ENDROOT
BRANCH   1   7
ATOM      7  S   UNL     1       5.204   4.159  18.236  0.00  0.00    +0.000 S 
BRANCH   7   8
ATOM      8  C   UNL     1       3.703   4.132  17.212  0.00  0.00    +0.000 C 
BRANCH   8  10
ATOM      9  N   UNL     1       3.100   6.375  17.981  0.00  0.00    +0.000 N 
ATOM     10  C   UNL     1       2.680   5.054  17.855  0.00  0.00    +0.000 C 
ATOM     11  O   UNL     1       1.589   4.616  18.220  0.00  0.00    +0.000 OA
ATOM     12  H   UNL     1       3.954   6.631  17.498  0.00  0.00    +0.000 HD
BRANCH   9  16
ATOM     13  C   UNL     1       0.906   9.522  19.762  0.00  0.00    +0.000 A 
ATOM     14  C   UNL     1       1.382   8.477  20.554  0.00  0.00    +0.000 A 
ATOM     15  C   UNL     1       2.117   7.435  19.983  0.00  0.00    +0.000 A 
ATOM     16  C   UNL     1       2.392   7.419  18.615  0.00  0.00    +0.000 A 
ATOM     17  C   UNL     1       1.954   8.492  17.830  0.00  0.00    +0.000 A 
ATOM     18  C   UNL     1       1.204   9.532  18.396  0.00  0.00    +0.000 A 
BRANCH  13  19
ATOM     19  C   UNL     1       0.102  10.583  20.416  0.00  0.00    +0.000 C 
ATOM     20  O   UNL     1      -1.075  10.784  20.166  0.00  0.00    +0.000 OA
BRANCH  19  22
ATOM     21  C   UNL     1       1.109  12.628  20.908  0.00  0.00    +0.000 C 
ATOM     22  O   UNL     1       0.858  11.277  21.299  0.00  0.00    +0.000 OA
ENDBRANCH  19  22
ENDBRANCH  13  19
ENDBRANCH   9  16
ENDBRANCH   8  10
ENDBRANCH   7   8
ENDBRANCH   1   7
BRANCH   4  23
ATOM     23  C   UNL     1       8.349   8.353  17.943  0.00  0.00    +0.000 C 
BRANCH  23  24
ATOM     24  N   UNL     1       7.917   9.736  18.179  0.00  0.00    +0.000 N 
ATOM     25  H   UNL     1       7.202   9.817  18.893  0.00  0.00    +0.000 HD
BRANCH  24  26
ATOM     26  C   UNL     1       8.900  10.728  18.275  0.00  0.00    +0.000 A 
ATOM     27  C   UNL     1       8.884  11.894  17.502  0.00  0.00    +0.000 A 
ATOM     28  C   UNL     1       9.868  12.878  17.648  0.00  0.00    +0.000 A 
ATOM     29  C   UNL     1      10.872  12.742  18.603  0.00  0.00    +0.000 A 
ATOM     30  C   UNL     1      10.882  11.615  19.416  0.00  0.00    +0.000 A 
ATOM     31  C   UNL     1       9.892  10.627  19.262  0.00  0.00    +0.000 A 
BRANCH  29  32
ATOM     32  O   UNL     1      11.793  13.750  18.621  0.00  0.00    +0.000 OA
ATOM     33  C   UNL     1      11.851  14.521  19.815  0.00  0.00    +0.000 C 
ENDBRANCH  29  32
ENDBRANCH  24  26
ENDBRANCH  23  24
ENDBRANCH   4  23
TORSDOF 10
ENDMDL
MODEL 6
REMARK VINA RESULT:      -7.0      2.434      4.095
REMARK  Name = 
REMARK  13 active torsions:
REMARK  status: ('A' for Active; 'I' for Inactive)
REMARK    1  A    between atoms: C_1  and  O_2
REMARK    2  A    between atoms: O_2  and  C_3
REMARK    3  A    between atoms: C_3  and  C_5
REMARK    4  A    between atoms: C_8  and  N_9
REMARK    5  A    between atoms: C_10  and  C_12
REMARK    6  A    between atoms: C_12  and  S_13
REMARK    7  A    between atoms: S_13  and  C_14
REMARK    8  A    between atoms: C_17  and  C_18
REMARK    9  A    between atoms: C_18  and  N_19
REMARK   10  A    between atoms: N_19  and  C_20
REMARK   11  A    between atoms: C_23  and  O_24
REMARK   12  A    between atoms: O_24  and  C_25
REMARK   13  A    between atoms: N_28  and  C_29
REMARK                            x       y       z     vdW  Elec       q    Type
REMARK                         _______ _______ _______ _____ _____    ______ ____
ROOT
ATOM      1  C   UNL     1       2.402   2.396  18.927  0.00  0.00    +0.000 A 
ATOM      2  N   UNL     1       1.665   2.619  17.868  0.00  0.00    +0.000 NA
ATOM      3  N   UNL     1       2.468   3.216  16.925  0.00  0.00    +0.000 NA
ATOM      4  C   UNL     1       3.684   3.341  17.427  0.00  0.00    +0.000 A 
ATOM      5  N   UNL     1       3.682   2.829  18.703  0.00  0.00    +0.000 N 
ATOM      6  C   UNL     1       4.796   2.716  19.609  0.00  0.00    +0.000 C 
ENDROOT
BRANCH   1   7
ATOM      7  S   UNL     1       1.881   1.684  20.410  0.00  0.00    +0.000 S 
BRANCH   7   8
ATOM      8  C   UNL     1       2.015   3.097  21.545  0.00  0.00    +0.000 C 
BRANCH   8  10
ATOM      9  N   UNL     1       2.405   5.372  20.731  0.00  0.00    +0.000 N 
ATOM     10  C   UNL     1       1.488   4.328  20.825  0.00  0.00    +0.000 C 
ATOM     11  O   UNL     1       0.338   4.348  20.387  0.00  0.00    +0.000 OA
ATOM     12  H   UNL     1       3.361   5.164  20.992  0.00  0.00    +0.000 HD
BRANCH   9  16
ATOM     13  C   UNL     1       1.653   9.154  18.993  0.00  0.00    +0.000 A 
ATOM     14  C   UNL     1       1.238   8.900  20.301  0.00  0.00    +0.000 A 
ATOM     15  C   UNL     1       1.488   7.659  20.893  0.00  0.00    +0.000 A 
ATOM     16  C   UNL     1       2.156   6.653  20.193  0.00  0.00    +0.000 A 
ATOM     17  C   UNL     1       2.613   6.927  18.899  0.00  0.00    +0.000 A 
ATOM     18  C   UNL     1       2.352   8.165  18.295  0.00  0.00    +0.000 A 
BRANCH  13  19
ATOM     19  C   UNL     1       1.331  10.476  18.404  0.00  0.00    +0.000 C 
ATOM     20  O   UNL     1       2.007  11.010  17.541  0.00  0.00    +0.000 OA
BRANCH  19  22
ATOM     21  C   UNL     1      -0.897  11.077  18.066  0.00  0.00    +0.000 C 
ATOM     22  O   UNL     1       0.208  10.986  18.965  0.00  0.00    +0.000 OA
ENDBRANCH  19  22
ENDBRANCH  13  19
ENDBRANCH   9  16
ENDBRANCH   8  10
ENDBRANCH   7   8
ENDBRANCH   1   7
BRANCH   4  23
ATOM     23  C   UNL     1       4.883   3.867  16.695  0.00  0.00    +0.000 C 
BRANCH  23  24
ATOM     24  N   UNL     1       6.089   4.068  17.509  0.00  0.00    +0.000 N 
ATOM     25  H   UNL     1       6.792   3.353  17.369  0.00  0.00    +0.000 HD
BRANCH  24  26
ATOM     26  C   UNL     1       6.627   5.359  17.582  0.00  0.00    +0.000 A 
ATOM     27  C   UNL     1       6.110   6.442  16.863  0.00  0.00    +0.000 A 
ATOM     28  C   UNL     1       6.656   7.724  16.985  0.00  0.00    +0.000 A 
ATOM     29  C   UNL     1       7.708   7.967  17.863  0.00  0.00    +0.000 A 
ATOM     30  C   UNL     1       8.208   6.917  18.625  0.00  0.00    +0.000 A 
ATOM     31  C   UNL     1       7.657   5.628  18.495  0.00  0.00    +0.000 A 
BRANCH  29  32
ATOM     32  O   UNL     1       8.177   9.250  17.863  0.00  0.00    +0.000 OA
ATOM     33  C   UNL     1       8.961   9.628  18.988  0.00  0.00    +0.000 C 
ENDBRANCH  29  32
ENDBRANCH  24  26
ENDBRANCH  23  24
ENDBRANCH   4  23
TORSDOF 10
ENDMDL
MODEL 7
REMARK VINA RESULT:      -7.0      4.942      9.692
REMARK  Name = 
REMARK  13 active torsions:
REMARK  status: ('A' for Active; 'I' for Inactive)
REMARK    1  A    between atoms: C_1  and  O_2
REMARK    2  A    between atoms: O_2  and  C_3
REMARK    3  A    between atoms: C_3  and  C_5
REMARK    4  A    between atoms: C_8  and  N_9
REMARK    5  A    between atoms: C_10  and  C_12
REMARK    6  A    between atoms: C_12  and  S_13
REMARK    7  A    between atoms: S_13  and  C_14
REMARK    8  A    between atoms: C_17  and  C_18
REMARK    9  A    between atoms: C_18  and  N_19
REMARK   10  A    between atoms: N_19  and  C_20
REMARK   11  A    between atoms: C_23  and  O_24
REMARK   12  A    between atoms: O_24  and  C_25
REMARK   13  A    between atoms: N_28  and  C_29
REMARK                            x       y       z     vdW  Elec       q    Type
REMARK                         _______ _______ _______ _____ _____    ______ ____
ROOT
ATOM      1  C   UNL     1       1.296   8.138  20.487  0.00  0.00    +0.000 A 
ATOM      2  N   UNL     1       0.351   8.563  21.287  0.00  0.00    +0.000 NA
ATOM      3  N   UNL     1      -0.271   9.621  20.665  0.00  0.00    +0.000 NA
ATOM      4  C   UNL     1       0.306   9.817  19.493  0.00  0.00    +0.000 A 
ATOM      5  N   UNL     1       1.312   8.890  19.342  0.00  0.00    +0.000 N 
ATOM      6  C   UNL     1       2.174   8.703  18.204  0.00  0.00    +0.000 C 
ENDROOT
BRANCH   1   7
ATOM      7  S   UNL     1       2.394   6.843  20.792  0.00  0.00    +0.000 S 
BRANCH   7   8
ATOM      8  C   UNL     1       1.489   5.438  20.077  0.00  0.00    +0.000 C 
BRANCH   8  10
ATOM      9  N   UNL     1       3.487   5.305  18.670  0.00  0.00    +0.000 N 
ATOM     10  C   UNL     1       2.108   5.122  18.724  0.00  0.00    +0.000 C 
ATOM     11  O   UNL     1       1.402   4.744  17.790  0.00  0.00    +0.000 OA
ATOM     12  H   UNL     1       3.961   5.466  19.551  0.00  0.00    +0.000 HD
BRANCH   9  16
ATOM     13  C   UNL     1       5.880   4.769  15.224  0.00  0.00    +0.000 A 
ATOM     14  C   UNL     1       5.402   6.041  15.542  0.00  0.00    +0.000 A 
ATOM     15  C   UNL     1       4.619   6.236  16.683  0.00  0.00    +0.000 A 
ATOM     16  C   UNL     1       4.301   5.170  17.525  0.00  0.00    +0.000 A 
ATOM     17  C   UNL     1       4.821   3.904  17.229  0.00  0.00    +0.000 A 
ATOM     18  C   UNL     1       5.595   3.700  16.079  0.00  0.00    +0.000 A 
BRANCH  13  19
ATOM     19  C   UNL     1       6.677   4.613  13.983  0.00  0.00    +0.000 C 
ATOM     20  O   UNL     1       6.343   3.896  13.055  0.00  0.00    +0.000 OA
BRANCH  19  22
ATOM     21  C   UNL     1       8.343   5.702  12.767  0.00  0.00    +0.000 C 
ATOM     22  O   UNL     1       7.804   5.362  14.045  0.00  0.00    +0.000 OA
ENDBRANCH  19  22
ENDBRANCH  13  19
ENDBRANCH   9  16
ENDBRANCH   8  10
ENDBRANCH   7   8
ENDBRANCH   1   7
BRANCH   4  23
ATOM     23  C   UNL     1      -0.123  10.819  18.463  0.00  0.00    +0.000 C 
BRANCH  23  24
ATOM     24  N   UNL     1      -0.981  10.303  17.389  0.00  0.00    +0.000 N 
ATOM     25  H   UNL     1      -0.940   9.295  17.291  0.00  0.00    +0.000 HD
BRANCH  24  26
ATOM     26  C   UNL     1      -2.282  10.810  17.282  0.00  0.00    +0.000 A 
ATOM     27  C   UNL     1      -2.946  10.953  16.058  0.00  0.00    +0.000 A 
ATOM     28  C   UNL     1      -4.257  11.435  15.993  0.00  0.00    +0.000 A 
ATOM     29  C   UNL     1      -4.957  11.747  17.155  0.00  0.00    +0.000 A 
ATOM     30  C   UNL     1      -4.336  11.568  18.386  0.00  0.00    +0.000 A 
ATOM     31  C   UNL     1      -3.015  11.086  18.445  0.00  0.00    +0.000 A 
BRANCH  29  32
ATOM     32  O   UNL     1      -6.214  12.243  16.957  0.00  0.00    +0.000 OA
ATOM     33  C   UNL     1      -7.052  12.296  18.106  0.00  0.00    +0.000 C 
ENDBRANCH  29  32
ENDBRANCH  24  26
ENDBRANCH  23  24
ENDBRANCH   4  23
TORSDOF 10
ENDMDL
MODEL 8
REMARK VINA RESULT:      -6.9      2.271      8.450
REMARK  Name = 
REMARK  13 active torsions:
REMARK  status: ('A' for Active; 'I' for Inactive)
REMARK    1  A    between atoms: C_1  and  O_2
REMARK    2  A    between atoms: O_2  and  C_3
REMARK    3  A    between atoms: C_3  and  C_5
REMARK    4  A    between atoms: C_8  and  N_9
REMARK    5  A    between atoms: C_10  and  C_12
REMARK    6  A    between atoms: C_12  and  S_13
REMARK    7  A    between atoms: S_13  and  C_14
REMARK    8  A    between atoms: C_17  and  C_18
REMARK    9  A    between atoms: C_18  and  N_19
REMARK   10  A    between atoms: N_19  and  C_20
REMARK   11  A    between atoms: C_23  and  O_24
REMARK   12  A    between atoms: O_24  and  C_25
REMARK   13  A    between atoms: N_28  and  C_29
REMARK                            x       y       z     vdW  Elec       q    Type
REMARK                         _______ _______ _______ _____ _____    ______ ____
ROOT
ATOM      1  C   UNL     1       6.417   5.203  17.915  0.00  0.00    +0.000 A 
ATOM      2  N   UNL     1       6.483   4.758  19.144  0.00  0.00    +0.000 NA
ATOM      3  N   UNL     1       5.475   3.836  19.302  0.00  0.00    +0.000 NA
ATOM      4  C   UNL     1       4.815   3.733  18.162  0.00  0.00    +0.000 A 
ATOM      5  N   UNL     1       5.388   4.591  17.251  0.00  0.00    +0.000 N 
ATOM      6  C   UNL     1       5.025   4.779  15.869  0.00  0.00    +0.000 C 
ENDROOT
BRANCH   1   7
ATOM      7  S   UNL     1       7.439   6.394  17.198  0.00  0.00    +0.000 S 
BRANCH   7   8
ATOM      8  C   UNL     1       8.160   7.174  18.673  0.00  0.00    +0.000 C 
BRANCH   8  10
ATOM      9  N   UNL     1       9.229   9.308  19.214  0.00  0.00    +0.000 N 
ATOM     10  C   UNL     1       8.312   8.660  18.391  0.00  0.00    +0.000 C 
ATOM     11  O   UNL     1       7.651   9.194  17.501  0.00  0.00    +0.000 OA
ATOM     12  H   UNL     1       9.816   8.720  19.795  0.00  0.00    +0.000 HD
BRANCH   9  16
ATOM     13  C   UNL     1      10.121  13.439  19.377  0.00  0.00    +0.000 A 
ATOM     14  C   UNL     1       9.937  12.821  18.140  0.00  0.00    +0.000 A 
ATOM     15  C   UNL     1       9.631  11.459  18.069  0.00  0.00    +0.000 A 
ATOM     16  C   UNL     1       9.503  10.692  19.229  0.00  0.00    +0.000 A 
ATOM     17  C   UNL     1       9.642  11.325  20.470  0.00  0.00    +0.000 A 
ATOM     18  C   UNL     1       9.962  12.688  20.546  0.00  0.00    +0.000 A 
BRANCH  13  19
ATOM     19  C   UNL     1      10.477  14.879  19.391  0.00  0.00    +0.000 C 
ATOM     20  O   UNL     1      10.655  15.517  20.415  0.00  0.00    +0.000 OA
BRANCH  19  22
ATOM     21  C   UNL     1      11.834  15.926  17.810  0.00  0.00    +0.000 C 
ATOM     22  O   UNL     1      10.562  15.360  18.128  0.00  0.00    +0.000 OA
ENDBRANCH  19  22
ENDBRANCH  13  19
ENDBRANCH   9  16
ENDBRANCH   8  10
ENDBRANCH   7   8
ENDBRANCH   1   7
BRANCH   4  23
ATOM     23  C   UNL     1       3.695   2.777  17.881  0.00  0.00    +0.000 C 
BRANCH  23  24
ATOM     24  N   UNL     1       2.374   3.179  18.380  0.00  0.00    +0.000 N 
ATOM     25  H   UNL     1       1.938   2.480  18.971  0.00  0.00    +0.000 HD
BRANCH  24  26
ATOM     26  C   UNL     1       2.222   4.482  18.872  0.00  0.00    +0.000 A 
ATOM     27  C   UNL     1       2.245   5.614  18.049  0.00  0.00    +0.000 A 
ATOM     28  C   UNL     1       2.060   6.898  18.572  0.00  0.00    +0.000 A 
ATOM     29  C   UNL     1       1.802   7.082  19.927  0.00  0.00    +0.000 A 
ATOM     30  C   UNL     1       1.727   5.969  20.758  0.00  0.00    +0.000 A 
ATOM     31  C   UNL     1       1.918   4.680  20.226  0.00  0.00    +0.000 A 
BRANCH  29  32
ATOM     32  O   UNL     1       1.678   8.384  20.321  0.00  0.00    +0.000 OA
ATOM     33  C   UNL     1       1.168   8.593  21.632  0.00  0.00    +0.000 C 
ENDBRANCH  29  32
ENDBRANCH  24  26
ENDBRANCH  23  24
ENDBRANCH   4  23
TORSDOF 10
ENDMDL
MODEL 9
REMARK VINA RESULT:      -6.9      1.245      1.825
REMARK  Name = 
REMARK  13 active torsions:
REMARK  status: ('A' for Active; 'I' for Inactive)
REMARK    1  A    between atoms: C_1  and  O_2
REMARK    2  A    between atoms: O_2  and  C_3
REMARK    3  A    between atoms: C_3  and  C_5
REMARK    4  A    between atoms: C_8  and  N_9
REMARK    5  A    between atoms: C_10  and  C_12
REMARK    6  A    between atoms: C_12  and  S_13
REMARK    7  A    between atoms: S_13  and  C_14
REMARK    8  A    between atoms: C_17  and  C_18
REMARK    9  A    between atoms: C_18  and  N_19
REMARK   10  A    between atoms: N_19  and  C_20
REMARK   11  A    between atoms: C_23  and  O_24
REMARK   12  A    between atoms: O_24  and  C_25
REMARK   13  A    between atoms: N_28  and  C_29
REMARK                            x       y       z     vdW  Elec       q    Type
REMARK                         _______ _______ _______ _____ _____    ______ ____
ROOT
ATOM      1  C   UNL     1       6.215   5.902  17.325  0.00  0.00    +0.000 A 
ATOM      2  N   UNL     1       5.913   6.834  16.457  0.00  0.00    +0.000 NA
ATOM      3  N   UNL     1       6.711   7.921  16.725  0.00  0.00    +0.000 NA
ATOM      4  C   UNL     1       7.491   7.628  17.751  0.00  0.00    +0.000 A 
ATOM      5  N   UNL     1       7.204   6.347  18.162  0.00  0.00    +0.000 N 
ATOM      6  C   UNL     1       7.837   5.598  19.217  0.00  0.00    +0.000 C 
ENDROOT
BRANCH   1   7
ATOM      7  S   UNL     1       5.493   4.340  17.448  0.00  0.00    +0.000 S 
BRANCH   7   8
ATOM      8  C   UNL     1       4.644   4.470  19.051  0.00  0.00    +0.000 C 
BRANCH   8  10
ATOM      9  N   UNL     1       3.581   6.674  19.029  0.00  0.00    +0.000 N 
ATOM     10  C   UNL     1       3.391   5.307  18.850  0.00  0.00    +0.000 C 
ATOM     11  O   UNL     1       2.323   4.768  18.561  0.00  0.00    +0.000 OA
ATOM     12  H   UNL     1       4.539   6.995  19.109  0.00  0.00    +0.000 HD
BRANCH   9  16
ATOM     13  C   UNL     1       0.599   9.674  19.047  0.00  0.00    +0.000 A 
ATOM     14  C   UNL     1       1.334   9.437  17.885  0.00  0.00    +0.000 A 
ATOM     15  C   UNL     1       2.315   8.442  17.859  0.00  0.00    +0.000 A 
ATOM     16  C   UNL     1       2.580   7.667  18.990  0.00  0.00    +0.000 A 
ATOM     17  C   UNL     1       1.809   7.875  20.140  0.00  0.00    +0.000 A 
ATOM     18  C   UNL     1       0.833   8.881  20.175  0.00  0.00    +0.000 A 
BRANCH  13  19
ATOM     19  C   UNL     1      -0.405  10.764  19.027  0.00  0.00    +0.000 C 
ATOM     20  O   UNL     1      -0.174  11.897  19.415  0.00  0.00    +0.000 OA
BRANCH  19  22
ATOM     21  C   UNL     1      -2.138  11.146  17.514  0.00  0.00    +0.000 C 
ATOM     22  O   UNL     1      -1.585  10.316  18.536  0.00  0.00    +0.000 OA
ENDBRANCH  19  22
ENDBRANCH  13  19
ENDBRANCH   9  16
ENDBRANCH   8  10
ENDBRANCH   7   8
ENDBRANCH   1   7
BRANCH   4  23
ATOM     23  C   UNL     1       8.569   8.507  18.311  0.00  0.00    +0.000 C 
BRANCH  23  24
ATOM     24  N   UNL     1       8.206   9.917  18.503  0.00  0.00    +0.000 N 
ATOM     25  H   UNL     1       7.554  10.065  19.264  0.00  0.00    +0.000 HD
BRANCH  24  26
ATOM     26  C   UNL     1       9.229  10.873  18.465  0.00  0.00    +0.000 A 
ATOM     27  C   UNL     1       9.201  11.987  17.619  0.00  0.00    +0.000 A 
ATOM     28  C   UNL     1      10.227  12.937  17.632  0.00  0.00    +0.000 A 
ATOM     29  C   UNL     1      11.290  12.822  18.522  0.00  0.00    +0.000 A 
ATOM     30  C   UNL     1      11.317  11.750  19.406  0.00  0.00    +0.000 A 
ATOM     31  C   UNL     1      10.283  10.795  19.387  0.00  0.00    +0.000 A 
BRANCH  29  32
ATOM     32  O   UNL     1      12.246  13.791  18.410  0.00  0.00    +0.000 OA
ATOM     33  C   UNL     1      12.016  14.782  17.417  0.00  0.00    +0.000 C 
ENDBRANCH  29  32
ENDBRANCH  24  26
ENDBRANCH  23  24
ENDBRANCH   4  23
TORSDOF 10
ENDMDL
