MODEL 1
REMARK VINA RESULT:      -7.0      0.000      0.000
REMARK  Name = 
REMARK  8 active torsions:
REMARK  status: ('A' for Active; 'I' for Inactive)
REMARK    1  A    between atoms: C_1  and  N_2
REMARK    2  A    between atoms: C_3  and  C_5
REMARK    3  A    between atoms: C_5  and  N_6
REMARK    4  A    between atoms: C_9  and  C_10
REMARK    5  A    between atoms: C_10  and  N_11
REMARK    6  A    between atoms: N_11  and  C_12
REMARK    7  A    between atoms: N_11  and  C_13
REMARK    8  A    between atoms: C_13  and  C_14
REMARK                            x       y       z     vdW  Elec       q    Type
REMARK                         _______ _______ _______ _____ _____    ______ ____
ROOT
ATOM      1  N   UNL     1       6.813   5.998  17.134  0.00  0.00    +0.000 NA
ATOM      2  C   UNL     1       5.830   5.897  18.222  0.00  0.00    +0.000 C 
ATOM      3  C   UNL     1       5.596   4.421  18.520  0.00  0.00    +0.000 C 
ATOM      4  C   UNL     1       4.935   3.706  17.334  0.00  0.00    +0.000 C 
ATOM      5  C   UNL     1       5.919   3.888  16.151  0.00  0.00    +0.000 C 
ATOM      6  C   UNL     1       6.290   5.367  15.906  0.00  0.00    +0.000 C 
ENDROOT
BRANCH   1   7
ATOM      7  C   UNL     1       7.180   7.412  16.890  0.00  0.00    +0.000 C 
BRANCH   7  10
ATOM      8  C   UNL     1       9.077   9.973  18.965  0.00  0.00    +0.000 C 
ATOM      9  N   UNL     1       8.180   9.326  18.042  0.00  0.00    +0.000 N 
ATOM     10  C   UNL     1       8.024   7.957  18.054  0.00  0.00    +0.000 C 
ATOM     11  O   UNL     1       8.508   7.223  18.917  0.00  0.00    +0.000 OA
ATOM     12  H   UNL     1       7.949   9.788  17.167  0.00  0.00    +0.000 HD
ENDBRANCH   7  10
ENDBRANCH   1   7
BRANCH   4  13
ATOM     13  C   UNL     1       3.507   4.175  16.906  0.00  0.00    +0.000 C 
BRANCH  13  14
ATOM     14  N   UNL     1       2.349   3.253  17.061  0.00  0.00    +0.000 NA
ATOM     15  C   UNL     1       2.714   2.014  17.748  0.00  0.00    +0.000 C 
BRANCH  14  16
ATOM     16  C   UNL     1       1.270   3.959  17.815  0.00  0.00    +0.000 C 
BRANCH  16  17
ATOM     17  C   UNL     1       1.471   3.893  19.320  0.00  0.00    +0.000 A 
ATOM     18  C   UNL     1       1.134   2.704  19.990  0.00  0.00    +0.000 A 
ATOM     19  C   UNL     1       1.515   2.542  21.314  0.00  0.00    +0.000 A 
ATOM     20  N   UNL     1       2.191   3.475  22.018  0.00  0.00    +0.000 NA
ATOM     21  C   UNL     1       2.474   4.629  21.370  0.00  0.00    +0.000 A 
ATOM     22  C   UNL     1       2.125   4.895  20.050  0.00  0.00    +0.000 A 
ATOM     23 CL   UNL     1       2.569   6.417  19.375  0.00  0.00    +0.000 Cl
ENDBRANCH  16  17
ENDBRANCH  14  16
ENDBRANCH  13  14
ENDBRANCH   4  13
TORSDOF 6
ENDMDL
MODEL 2
REMARK VINA RESULT:      -6.8      2.704      4.424
REMARK  Name = 
REMARK  8 active torsions:
REMARK  status: ('A' for Active; 'I' for Inactive)
REMARK    1  A    between atoms: C_1  and  N_2
REMARK    2  A    between atoms: C_3  and  C_5
REMARK    3  A    between atoms: C_5  and  N_6
REMARK    4  A    between atoms: C_9  and  C_10
REMARK    5  A    between atoms: C_10  and  N_11
REMARK    6  A    between atoms: N_11  and  C_12
REMARK    7  A    between atoms: N_11  and  C_13
REMARK    8  A    between atoms: C_13  and  C_14
REMARK                            x       y       z     vdW  Elec       q    Type
REMARK                         _______ _______ _______ _____ _____    ______ ____
ROOT
ATOM      1  N   UNL     1       6.718   5.720  15.656  0.00  0.00    +0.000 NA
ATOM      2  C   UNL     1       5.261   5.733  15.468  0.00  0.00    +0.000 C 
ATOM      3  C   UNL     1       4.730   7.083  15.937  0.00  0.00    +0.000 C 
ATOM      4  C   UNL     1       4.926   7.268  17.448  0.00  0.00    +0.000 C 
ATOM      5  C   UNL     1       6.456   7.159  17.675  0.00  0.00    +0.000 C 
ATOM      6  C   UNL     1       7.055   5.864  17.086  0.00  0.00    +0.000 C 
ENDROOT
BRANCH   1   7
ATOM      7  C   UNL     1       7.307   4.482  15.094  0.00  0.00    +0.000 C 
BRANCH   7  10
ATOM      8  C   UNL     1       6.115   3.041  11.783  0.00  0.00    +0.000 C 
ATOM      9  N   UNL     1       6.295   3.341  13.180  0.00  0.00    +0.000 N 
ATOM     10  C   UNL     1       7.064   4.413  13.577  0.00  0.00    +0.000 C 
ATOM     11  O   UNL     1       7.518   5.252  12.798  0.00  0.00    +0.000 OA
ATOM     12  H   UNL     1       6.186   2.599  13.865  0.00  0.00    +0.000 HD
ENDBRANCH   7  10
ENDBRANCH   1   7
BRANCH   4  13
ATOM     13  C   UNL     1       4.182   6.282  18.405  0.00  0.00    +0.000 C 
BRANCH  13  14
ATOM     14  N   UNL     1       2.756   6.526  18.753  0.00  0.00    +0.000 NA
ATOM     15  C   UNL     1       2.358   7.916  18.529  0.00  0.00    +0.000 C 
BRANCH  14  16
ATOM     16  C   UNL     1       1.899   5.611  17.940  0.00  0.00    +0.000 C 
BRANCH  16  17
ATOM     17  C   UNL     1       2.121   4.147  18.280  0.00  0.00    +0.000 A 
ATOM     18  C   UNL     1       2.702   3.314  17.309  0.00  0.00    +0.000 A 
ATOM     19  C   UNL     1       3.118   2.041  17.671  0.00  0.00    +0.000 A 
ATOM     20  N   UNL     1       2.988   1.536  18.916  0.00  0.00    +0.000 NA
ATOM     21  C   UNL     1       2.393   2.337  19.830  0.00  0.00    +0.000 A 
ATOM     22  C   UNL     1       1.929   3.622  19.565  0.00  0.00    +0.000 A 
ATOM     23 CL   UNL     1       1.198   4.511  20.849  0.00  0.00    +0.000 Cl
ENDBRANCH  16  17
ENDBRANCH  14  16
ENDBRANCH  13  14
ENDBRANCH   4  13
TORSDOF 6
ENDMDL
MODEL 3
REMARK VINA RESULT:      -6.8      2.646      4.215
REMARK  Name = 
REMARK  8 active torsions:
REMARK  status: ('A' for Active; 'I' for Inactive)
REMARK    1  A    between atoms: C_1  and  N_2
REMARK    2  A    between atoms: C_3  and  C_5
REMARK    3  A    between atoms: C_5  and  N_6
REMARK    4  A    between atoms: C_9  and  C_10
REMARK    5  A    between atoms: C_10  and  N_11
REMARK    6  A    between atoms: N_11  and  C_12
REMARK    7  A    between atoms: N_11  and  C_13
REMARK    8  A    between atoms: C_13  and  C_14
REMARK                            x       y       z     vdW  Elec       q    Type
REMARK                         _______ _______ _______ _____ _____    ______ ____
ROOT
ATOM      1  N   UNL     1       5.535   5.272  16.271  0.00  0.00    +0.000 NA
ATOM      2  C   UNL     1       4.817   4.175  16.935  0.00  0.00    +0.000 C 
ATOM      3  C   UNL     1       3.370   4.606  17.145  0.00  0.00    +0.000 C 
ATOM      4  C   UNL     1       3.272   5.781  18.128  0.00  0.00    +0.000 C 
ATOM      5  C   UNL     1       4.107   6.918  17.485  0.00  0.00    +0.000 C 
ATOM      6  C   UNL     1       5.542   6.475  17.128  0.00  0.00    +0.000 C 
ENDROOT
BRANCH   1   7
ATOM      7  C   UNL     1       6.914   4.861  15.922  0.00  0.00    +0.000 C 
BRANCH   7  10
ATOM      8  C   UNL     1       6.420   3.486  12.410  0.00  0.00    +0.000 C 
ATOM      9  N   UNL     1       6.270   3.815  13.805  0.00  0.00    +0.000 N 
ATOM     10  C   UNL     1       7.074   4.765  14.396  0.00  0.00    +0.000 C 
ATOM     11  O   UNL     1       7.853   5.484  13.768  0.00  0.00    +0.000 OA
ATOM     12  H   UNL     1       5.860   3.131  14.435  0.00  0.00    +0.000 HD
ENDBRANCH   7  10
ENDBRANCH   1   7
BRANCH   4  13
ATOM     13  C   UNL     1       3.751   5.544  19.596  0.00  0.00    +0.000 C 
BRANCH  13  14
ATOM     14  N   UNL     1       2.803   5.752  20.724  0.00  0.00    +0.000 NA
ATOM     15  C   UNL     1       1.543   6.354  20.289  0.00  0.00    +0.000 C 
BRANCH  14  16
ATOM     16  C   UNL     1       2.542   4.435  21.380  0.00  0.00    +0.000 C 
BRANCH  16  17
ATOM     17  C   UNL     1       2.097   3.369  20.393  0.00  0.00    +0.000 A 
ATOM     18  C   UNL     1       0.799   3.449  19.858  0.00  0.00    +0.000 A 
ATOM     19  C   UNL     1       0.453   2.627  18.797  0.00  0.00    +0.000 A 
ATOM     20  N   UNL     1       1.293   1.728  18.240  0.00  0.00    +0.000 NA
ATOM     21  C   UNL     1       2.526   1.637  18.791  0.00  0.00    +0.000 A 
ATOM     22  C   UNL     1       2.966   2.405  19.864  0.00  0.00    +0.000 A 
ATOM     23 CL   UNL     1       4.573   2.164  20.440  0.00  0.00    +0.000 Cl
ENDBRANCH  16  17
ENDBRANCH  14  16
ENDBRANCH  13  14
ENDBRANCH   4  13
TORSDOF 6
ENDMDL
MODEL 4
REMARK VINA RESULT:      -6.7      2.897      4.501
REMARK  Name = 
REMARK  8 active torsions:
REMARK  status: ('A' for Active; 'I' for Inactive)
REMARK    1  A    between atoms: C_1  and  N_2
REMARK    2  A    between atoms: C_3  and  C_5
REMARK    3  A    between atoms: C_5  and  N_6
REMARK    4  A    between atoms: C_9  and  C_10
REMARK    5  A    between atoms: C_10  and  N_11
REMARK    6  A    between atoms: N_11  and  C_12
REMARK    7  A    between atoms: N_11  and  C_13
REMARK    8  A    between atoms: C_13  and  C_14
REMARK                            x       y       z     vdW  Elec       q    Type
REMARK                         _______ _______ _______ _____ _____    ______ ____
ROOT
ATOM      1  N   UNL     1       6.716   5.439  15.416  0.00  0.00    +0.000 NA
ATOM      2  C   UNL     1       5.271   5.624  15.222  0.00  0.00    +0.000 C 
ATOM      3  C   UNL     1       4.904   7.032  15.675  0.00  0.00    +0.000 C 
ATOM      4  C   UNL     1       5.115   7.208  17.185  0.00  0.00    +0.000 C 
ATOM      5  C   UNL     1       6.620   6.921  17.420  0.00  0.00    +0.000 C 
ATOM      6  C   UNL     1       7.062   5.557  16.847  0.00  0.00    +0.000 C 
ENDROOT
BRANCH   1   7
ATOM      7  C   UNL     1       7.155   4.135  14.870  0.00  0.00    +0.000 C 
BRANCH   7  10
ATOM      8  C   UNL     1       5.660   2.719  11.672  0.00  0.00    +0.000 C 
ATOM      9  N   UNL     1       5.940   3.041  13.048  0.00  0.00    +0.000 N 
ATOM     10  C   UNL     1       6.829   4.044  13.370  0.00  0.00    +0.000 C 
ATOM     11  O   UNL     1       7.322   4.810  12.540  0.00  0.00    +0.000 OA
ATOM     12  H   UNL     1       5.796   2.335  13.763  0.00  0.00    +0.000 HD
ENDBRANCH   7  10
ENDBRANCH   1   7
BRANCH   4  13
ATOM     13  C   UNL     1       4.256   6.328  18.148  0.00  0.00    +0.000 C 
BRANCH  13  14
ATOM     14  N   UNL     1       2.942   6.831  18.635  0.00  0.00    +0.000 NA
ATOM     15  C   UNL     1       2.590   8.124  18.048  0.00  0.00    +0.000 C 
BRANCH  14  16
ATOM     16  C   UNL     1       1.891   5.819  18.313  0.00  0.00    +0.000 C 
BRANCH  16  17
ATOM     17  C   UNL     1       1.991   4.577  19.182  0.00  0.00    +0.000 A 
ATOM     18  C   UNL     1       1.627   4.674  20.536  0.00  0.00    +0.000 A 
ATOM     19  C   UNL     1       1.495   3.516  21.286  0.00  0.00    +0.000 A 
ATOM     20  N   UNL     1       1.709   2.276  20.794  0.00  0.00    +0.000 NA
ATOM     21  C   UNL     1       2.095   2.202  19.499  0.00  0.00    +0.000 A 
ATOM     22  C   UNL     1       2.269   3.304  18.667  0.00  0.00    +0.000 A 
ATOM     23 CL   UNL     1       2.761   3.030  17.038  0.00  0.00    +0.000 Cl
ENDBRANCH  16  17
ENDBRANCH  14  16
ENDBRANCH  13  14
ENDBRANCH   4  13
TORSDOF 6
ENDMDL
MODEL 5
REMARK VINA RESULT:      -6.7      2.624      4.392
REMARK  Name = 
REMARK  8 active torsions:
REMARK  status: ('A' for Active; 'I' for Inactive)
REMARK    1  A    between atoms: C_1  and  N_2
REMARK    2  A    between atoms: C_3  and  C_5
REMARK    3  A    between atoms: C_5  and  N_6
REMARK    4  A    between atoms: C_9  and  C_10
REMARK    5  A    between atoms: C_10  and  N_11
REMARK    6  A    between atoms: N_11  and  C_12
REMARK    7  A    between atoms: N_11  and  C_13
REMARK    8  A    between atoms: C_13  and  C_14
REMARK                            x       y       z     vdW  Elec       q    Type
REMARK                         _______ _______ _______ _____ _____    ______ ____
ROOT
ATOM      1  N   UNL     1       6.201   4.911  16.537  0.00  0.00    +0.000 NA
ATOM      2  C   UNL     1       4.857   5.498  16.429  0.00  0.00    +0.000 C 
ATOM      3  C   UNL     1       4.819   6.765  17.276  0.00  0.00    +0.000 C 
ATOM      4  C   UNL     1       4.984   6.448  18.768  0.00  0.00    +0.000 C 
ATOM      5  C   UNL     1       6.358   5.740  18.884  0.00  0.00    +0.000 C 
ATOM      6  C   UNL     1       6.486   4.530  17.934  0.00  0.00    +0.000 C 
ENDROOT
BRANCH   1   7
ATOM      7  C   UNL     1       6.338   3.749  15.630  0.00  0.00    +0.000 C 
BRANCH   7  10
ATOM      8  C   UNL     1       6.677   3.570  11.846  0.00  0.00    +0.000 C 
ATOM      9  N   UNL     1       6.276   3.362  13.214  0.00  0.00    +0.000 N 
ATOM     10  C   UNL     1       6.698   4.216  14.209  0.00  0.00    +0.000 C 
ATOM     11  O   UNL     1       7.306   5.266  13.995  0.00  0.00    +0.000 OA
ATOM     12  H   UNL     1       6.009   2.430  13.517  0.00  0.00    +0.000 HD
ENDBRANCH   7  10
ENDBRANCH   1   7
BRANCH   4  13
ATOM     13  C   UNL     1       3.884   5.574  19.452  0.00  0.00    +0.000 C 
BRANCH  13  14
ATOM     14  N   UNL     1       2.738   6.232  20.137  0.00  0.00    +0.000 NA
ATOM     15  C   UNL     1       2.280   7.427  19.430  0.00  0.00    +0.000 C 
BRANCH  14  16
ATOM     16  C   UNL     1       1.620   5.247  20.256  0.00  0.00    +0.000 C 
BRANCH  16  17
ATOM     17  C   UNL     1       1.862   3.988  19.441  0.00  0.00    +0.000 A 
ATOM     18  C   UNL     1       1.766   4.067  18.041  0.00  0.00    +0.000 A 
ATOM     19  C   UNL     1       2.198   2.997  17.272  0.00  0.00    +0.000 A 
ATOM     20  N   UNL     1       2.705   1.858  17.790  0.00  0.00    +0.000 NA
ATOM     21  C   UNL     1       2.756   1.783  19.141  0.00  0.00    +0.000 A 
ATOM     22  C   UNL     1       2.334   2.793  20.000  0.00  0.00    +0.000 A 
ATOM     23 CL   UNL     1       2.474   2.535  21.699  0.00  0.00    +0.000 Cl
ENDBRANCH  16  17
ENDBRANCH  14  16
ENDBRANCH  13  14
ENDBRANCH   4  13
TORSDOF 6
ENDMDL
MODEL 6
REMARK VINA RESULT:      -6.7      1.923      2.589
REMARK  Name = 
REMARK  8 active torsions:
REMARK  status: ('A' for Active; 'I' for Inactive)
REMARK    1  A    between atoms: C_1  and  N_2
REMARK    2  A    between atoms: C_3  and  C_5
REMARK    3  A    between atoms: C_5  and  N_6
REMARK    4  A    between atoms: C_9  and  C_10
REMARK    5  A    between atoms: C_10  and  N_11
REMARK    6  A    between atoms: N_11  and  C_12
REMARK    7  A    between atoms: N_11  and  C_13
REMARK    8  A    between atoms: C_13  and  C_14
REMARK                            x       y       z     vdW  Elec       q    Type
REMARK                         _______ _______ _______ _____ _____    ______ ____
ROOT
ATOM      1  N   UNL     1       7.254   6.500  17.119  0.00  0.00    +0.000 NA
ATOM      2  C   UNL     1       7.575   5.081  16.915  0.00  0.00    +0.000 C 
ATOM      3  C   UNL     1       6.945   4.631  15.602  0.00  0.00    +0.000 C 
ATOM      4  C   UNL     1       5.412   4.674  15.672  0.00  0.00    +0.000 C 
ATOM      5  C   UNL     1       5.062   6.152  15.982  0.00  0.00    +0.000 C 
ATOM      6  C   UNL     1       5.794   6.688  17.231  0.00  0.00    +0.000 C 
ENDROOT
BRANCH   1   7
ATOM      7  C   UNL     1       7.951   7.029  18.313  0.00  0.00    +0.000 C 
BRANCH   7  10
ATOM      8  C   UNL     1       9.261  10.483  19.217  0.00  0.00    +0.000 C 
ATOM      9  N   UNL     1       9.033   9.063  19.140  0.00  0.00    +0.000 N 
ATOM     10  C   UNL     1       8.246   8.528  18.143  0.00  0.00    +0.000 C 
ATOM     11  O   UNL     1       7.814   9.181  17.192  0.00  0.00    +0.000 OA
ATOM     12  H   UNL     1       9.122   8.499  19.981  0.00  0.00    +0.000 HD
ENDBRANCH   7  10
ENDBRANCH   1   7
BRANCH   4  13
ATOM     13  C   UNL     1       4.703   3.739  16.703  0.00  0.00    +0.000 C 
BRANCH  13  14
ATOM     14  N   UNL     1       3.492   4.218  17.424  0.00  0.00    +0.000 NA
ATOM     15  C   UNL     1       2.337   3.346  17.211  0.00  0.00    +0.000 C 
BRANCH  14  16
ATOM     16  C   UNL     1       3.804   4.308  18.882  0.00  0.00    +0.000 C 
BRANCH  16  17
ATOM     17  C   UNL     1       3.041   5.424  19.575  0.00  0.00    +0.000 A 
ATOM     18  C   UNL     1       3.024   6.696  18.978  0.00  0.00    +0.000 A 
ATOM     19  C   UNL     1       2.158   7.662  19.469  0.00  0.00    +0.000 A 
ATOM     20  N   UNL     1       1.322   7.460  20.510  0.00  0.00    +0.000 NA
ATOM     21  C   UNL     1       1.378   6.242  21.097  0.00  0.00    +0.000 A 
ATOM     22  C   UNL     1       2.220   5.212  20.691  0.00  0.00    +0.000 A 
ATOM     23 CL   UNL     1       2.159   3.718  21.548  0.00  0.00    +0.000 Cl
ENDBRANCH  16  17
ENDBRANCH  14  16
ENDBRANCH  13  14
ENDBRANCH   4  13
TORSDOF 6
ENDMDL
MODEL 7
REMARK VINA RESULT:      -6.7      3.548      4.756
REMARK  Name = 
REMARK  8 active torsions:
REMARK  status: ('A' for Active; 'I' for Inactive)
REMARK    1  A    between atoms: C_1  and  N_2
REMARK    2  A    between atoms: C_3  and  C_5
REMARK    3  A    between atoms: C_5  and  N_6
REMARK    4  A    between atoms: C_9  and  C_10
REMARK    5  A    between atoms: C_10  and  N_11
REMARK    6  A    between atoms: N_11  and  C_12
REMARK    7  A    between atoms: N_11  and  C_13
REMARK    8  A    between atoms: C_13  and  C_14
REMARK                            x       y       z     vdW  Elec       q    Type
REMARK                         _______ _______ _______ _____ _____    ______ ____
ROOT
ATOM      1  N   UNL     1       6.071   5.050  15.760  0.00  0.00    +0.000 NA
ATOM      2  C   UNL     1       5.059   6.044  16.145  0.00  0.00    +0.000 C 
ATOM      3  C   UNL     1       5.587   6.825  17.343  0.00  0.00    +0.000 C 
ATOM      4  C   UNL     1       5.734   5.926  18.578  0.00  0.00    +0.000 C 
ATOM      5  C   UNL     1       6.727   4.814  18.155  0.00  0.00    +0.000 C 
ATOM      6  C   UNL     1       6.296   4.091  16.861  0.00  0.00    +0.000 C 
ENDROOT
BRANCH   1   7
ATOM      7  C   UNL     1       5.670   4.349  14.519  0.00  0.00    +0.000 C 
BRANCH   7  10
ATOM      8  C   UNL     1       8.677   5.868  12.752  0.00  0.00    +0.000 C 
ATOM      9  N   UNL     1       7.698   5.472  13.733  0.00  0.00    +0.000 N 
ATOM     10  C   UNL     1       6.748   4.519  13.435  0.00  0.00    +0.000 C 
ATOM     11  O   UNL     1       6.753   3.852  12.400  0.00  0.00    +0.000 OA
ATOM     12  H   UNL     1       7.458   6.114  14.482  0.00  0.00    +0.000 HD
ENDBRANCH   7  10
ENDBRANCH   1   7
BRANCH   4  13
ATOM     13  C   UNL     1       4.439   5.277  19.165  0.00  0.00    +0.000 C 
BRANCH  13  14
ATOM     14  N   UNL     1       3.106   5.689  18.647  0.00  0.00    +0.000 NA
ATOM     15  C   UNL     1       2.328   4.555  18.150  0.00  0.00    +0.000 C 
BRANCH  14  16
ATOM     16  C   UNL     1       2.360   6.384  19.739  0.00  0.00    +0.000 C 
BRANCH  16  17
ATOM     17  C   UNL     1       2.047   7.832  19.403  0.00  0.00    +0.000 A 
ATOM     18  C   UNL     1       2.320   8.294  18.104  0.00  0.00    +0.000 A 
ATOM     19  C   UNL     1       1.840   9.535  17.712  0.00  0.00    +0.000 A 
ATOM     20  N   UNL     1       1.123  10.349  18.516  0.00  0.00    +0.000 NA
ATOM     21  C   UNL     1       0.902   9.906  19.776  0.00  0.00    +0.000 A 
ATOM     22  C   UNL     1       1.351   8.686  20.270  0.00  0.00    +0.000 A 
ATOM     23 CL   UNL     1       0.975   8.273  21.901  0.00  0.00    +0.000 Cl
ENDBRANCH  16  17
ENDBRANCH  14  16
ENDBRANCH  13  14
ENDBRANCH   4  13
TORSDOF 6
ENDMDL
MODEL 8
REMARK VINA RESULT:      -6.7      3.572      4.798
REMARK  Name = 
REMARK  8 active torsions:
REMARK  status: ('A' for Active; 'I' for Inactive)
REMARK    1  A    between atoms: C_1  and  N_2
REMARK    2  A    between atoms: C_3  and  C_5
REMARK    3  A    between atoms: C_5  and  N_6
REMARK    4  A    between atoms: C_9  and  C_10
REMARK    5  A    between atoms: C_10  and  N_11
REMARK    6  A    between atoms: N_11  and  C_12
REMARK    7  A    between atoms: N_11  and  C_13
REMARK    8  A    between atoms: C_13  and  C_14
REMARK                            x       y       z     vdW  Elec       q    Type
REMARK                         _______ _______ _______ _____ _____    ______ ____
ROOT
ATOM      1  N   UNL     1       5.843   4.495  17.019  0.00  0.00    +0.000 NA
ATOM      2  C   UNL     1       6.109   4.555  18.463  0.00  0.00    +0.000 C 
ATOM      3  C   UNL     1       5.124   3.630  19.170  0.00  0.00    +0.000 C 
ATOM      4  C   UNL     1       3.681   4.130  19.022  0.00  0.00    +0.000 C 
ATOM      5  C   UNL     1       3.417   4.165  17.495  0.00  0.00    +0.000 C 
ATOM      6  C   UNL     1       4.479   4.980  16.726  0.00  0.00    +0.000 C 
ENDROOT
BRANCH   1   7
ATOM      7  C   UNL     1       6.855   5.272  16.267  0.00  0.00    +0.000 C 
BRANCH   7  10
ATOM      8  C   UNL     1       7.874   5.235  12.603  0.00  0.00    +0.000 C 
ATOM      9  N   UNL     1       7.785   5.506  14.015  0.00  0.00    +0.000 N 
ATOM     10  C   UNL     1       6.984   4.737  14.831  0.00  0.00    +0.000 C 
ATOM     11  O   UNL     1       6.419   3.708  14.458  0.00  0.00    +0.000 OA
ATOM     12  H   UNL     1       7.992   6.441  14.356  0.00  0.00    +0.000 HD
ENDBRANCH   7  10
ENDBRANCH   1   7
BRANCH   4  13
ATOM     13  C   UNL     1       3.323   5.516  19.648  0.00  0.00    +0.000 C 
BRANCH  13  14
ATOM     14  N   UNL     1       1.900   5.861  19.917  0.00  0.00    +0.000 NA
ATOM     15  C   UNL     1       1.160   4.745  20.507  0.00  0.00    +0.000 C 
BRANCH  14  16
ATOM     16  C   UNL     1       1.856   7.043  20.829  0.00  0.00    +0.000 C 
BRANCH  16  17
ATOM     17  C   UNL     1       1.450   8.319  20.111  0.00  0.00    +0.000 A 
ATOM     18  C   UNL     1       1.861   8.500  18.779  0.00  0.00    +0.000 A 
ATOM     19  C   UNL     1       1.319   9.540  18.039  0.00  0.00    +0.000 A 
ATOM     20  N   UNL     1       0.414  10.415  18.527  0.00  0.00    +0.000 NA
ATOM     21  C   UNL     1       0.058  10.250  19.822  0.00  0.00    +0.000 A 
ATOM     22  C   UNL     1       0.552   9.249  20.652  0.00  0.00    +0.000 A 
ATOM     23 CL   UNL     1      -0.014   9.180  22.279  0.00  0.00    +0.000 Cl
ENDBRANCH  16  17
ENDBRANCH  14  16
ENDBRANCH  13  14
ENDBRANCH   4  13
TORSDOF 6
ENDMDL
MODEL 9
REMARK VINA RESULT:      -6.6      3.749      5.244
REMARK  Name = 
REMARK  8 active torsions:
REMARK  status: ('A' for Active; 'I' for Inactive)
REMARK    1  A    between atoms: C_1  and  N_2
REMARK    2  A    between atoms: C_3  and  C_5
REMARK    3  A    between atoms: C_5  and  N_6
REMARK    4  A    between atoms: C_9  and  C_10
REMARK    5  A    between atoms: C_10  and  N_11
REMARK    6  A    between atoms: N_11  and  C_12
REMARK    7  A    between atoms: N_11  and  C_13
REMARK    8  A    between atoms: C_13  and  C_14
REMARK                            x       y       z     vdW  Elec       q    Type
REMARK                         _______ _______ _______ _____ _____    ______ ____
ROOT
ATOM      1  N   UNL     1       5.752   4.738  16.760  0.00  0.00    +0.000 NA
ATOM      2  C   UNL     1       4.771   5.717  16.273  0.00  0.00    +0.000 C 
ATOM      3  C   UNL     1       4.688   6.855  17.284  0.00  0.00    +0.000 C 
ATOM      4  C   UNL     1       4.119   6.373  18.626  0.00  0.00    +0.000 C 
ATOM      5  C   UNL     1       5.094   5.268  19.107  0.00  0.00    +0.000 C 
ATOM      6  C   UNL     1       5.313   4.166  18.049  0.00  0.00    +0.000 C 
ENDROOT
BRANCH   1   7
ATOM      7  C   UNL     1       5.974   3.674  15.754  0.00  0.00    +0.000 C 
BRANCH   7  10
ATOM      8  C   UNL     1       6.996   3.912  12.099  0.00  0.00    +0.000 C 
ATOM      9  N   UNL     1       6.321   3.599  13.333  0.00  0.00    +0.000 N 
ATOM     10  C   UNL     1       6.649   4.253  14.501  0.00  0.00    +0.000 C 
ATOM     11  O   UNL     1       7.411   5.220  14.549  0.00  0.00    +0.000 OA
ATOM     12  H   UNL     1       5.890   2.687  13.446  0.00  0.00    +0.000 HD
ENDBRANCH   7  10
ENDBRANCH   1   7
BRANCH   4  13
ATOM     13  C   UNL     1       2.656   5.825  18.641  0.00  0.00    +0.000 C 
BRANCH  13  14
ATOM     14  N   UNL     1       1.752   6.164  19.774  0.00  0.00    +0.000 NA
ATOM     15  C   UNL     1       1.735   5.123  20.802  0.00  0.00    +0.000 C 
BRANCH  14  16
ATOM     16  C   UNL     1       2.191   7.463  20.367  0.00  0.00    +0.000 C 
BRANCH  16  17
ATOM     17  C   UNL     1       1.359   8.638  19.880  0.00  0.00    +0.000 A 
ATOM     18  C   UNL     1       1.480   9.034  18.537  0.00  0.00    +0.000 A 
ATOM     19  C   UNL     1       0.576   9.949  18.018  0.00  0.00    +0.000 A 
ATOM     20  N   UNL     1      -0.426  10.502  18.735  0.00  0.00    +0.000 NA
ATOM     21  C   UNL     1      -0.505  10.137  20.036  0.00  0.00    +0.000 A 
ATOM     22  C   UNL     1       0.360   9.241  20.655  0.00  0.00    +0.000 A 
ATOM     23 CL   UNL     1       0.113   8.883  22.323  0.00  0.00    +0.000 Cl
ENDBRANCH  16  17
ENDBRANCH  14  16
ENDBRANCH  13  14
ENDBRANCH   4  13
TORSDOF 6
ENDMDL
