MODEL 1
REMARK VINA RESULT:      -7.8      0.000      0.000
REMARK  Name = 
REMARK  10 active torsions:
REMARK  status: ('A' for Active; 'I' for Inactive)
REMARK    1  A    between atoms: C_1  and  O_2
REMARK    2  A    between atoms: O_2  and  C_3
REMARK    3  A    between atoms: N_7  and  C_8
REMARK    4  A    between atoms: C_13  and  O_14
REMARK    5  A    between atoms: C_15  and  C_16
REMARK    6  A    between atoms: C_22  and  O_23
REMARK    7  A    between atoms: O_23  and  C_24
REMARK    8  A    between atoms: C_24  and  C_25
REMARK    9  A    between atoms: C_25  and  N_26
REMARK   10  A    between atoms: C_30  and  C_31
REMARK                            x       y       z     vdW  Elec       q    Type
REMARK                         _______ _______ _______ _____ _____    ______ ____
ROOT
ATOM      1  C   UNL     1       3.774   7.039  17.485  0.00  0.00    +0.000 A 
ATOM      2  C   UNL     1       3.030   8.181  17.791  0.00  0.00    +0.000 A 
ATOM      3  C   UNL     1       2.204   8.230  18.936  0.00  0.00    +0.000 A 
ATOM      4  C   UNL     1       1.291   9.259  19.209  0.00  0.00    +0.000 A 
ATOM      5  N   UNL     1       1.070  10.257  18.222  0.00  0.00    +0.000 N 
ATOM      6  N   UNL     1       0.557   9.279  20.335  0.00  0.00    +0.000 NA
ATOM      7  C   UNL     1       0.738   8.268  21.186  0.00  0.00    +0.000 A 
ATOM      8  N   UNL     1       1.548   7.217  21.005  0.00  0.00    +0.000 NA
ATOM      9  C   UNL     1       2.260   7.202  19.876  0.00  0.00    +0.000 A 
ATOM     10  C   UNL     1       3.069   6.109  19.607  0.00  0.00    +0.000 A 
ATOM     11  C   UNL     1       3.780   5.972  18.400  0.00  0.00    +0.000 A 
ATOM     12  H   UNL     1       0.757   9.814  17.369  0.00  0.00    +0.000 HD
ENDROOT
BRANCH   5  13
ATOM     13  C   UNL     1       0.480  11.520  18.461  0.00  0.00    +0.000 A 
ATOM     14  C   UNL     1      -0.913  11.623  18.656  0.00  0.00    +0.000 A 
ATOM     15  F   UNL     1      -1.682  10.520  18.647  0.00  0.00    +0.000 F 
ATOM     16  C   UNL     1      -1.533  12.838  18.910  0.00  0.00    +0.000 A 
ATOM     17  C   UNL     1      -0.766  13.992  18.996  0.00  0.00    +0.000 A 
ATOM     18  C   UNL     1       0.616  13.915  18.818  0.00  0.00    +0.000 A 
ATOM     19  C   UNL     1       1.262  12.698  18.539  0.00  0.00    +0.000 A 
ATOM     20  C   UNL     1       2.747  12.669  18.277  0.00  0.00    +0.000 C 
BRANCH  18  21
ATOM     21  O   UNL     1       1.365  15.057  18.914  0.00  0.00    +0.000 OA
ATOM     22  H   UNL     1       1.937  14.996  19.696  0.00  0.00    +0.000 HD
ENDBRANCH  18  21
ENDBRANCH   5  13
BRANCH   1  24
ATOM     23  C   UNL     1       5.899   6.898  16.416  0.00  0.00    +0.000 C 
ATOM     24  O   UNL     1       4.473   6.902  16.312  0.00  0.00    +0.000 OA
ENDBRANCH   1  24
BRANCH  11  25
ATOM     25  O   UNL     1       4.469   4.820  18.069  0.00  0.00    +0.000 OA
BRANCH  25  26
ATOM     26  C   UNL     1       3.649   3.757  17.557  0.00  0.00    +0.000 C 
BRANCH  26  27
ATOM     27  C   UNL     1       3.727   2.460  18.386  0.00  0.00    +0.000 C 
BRANCH  27  28
ATOM     28  N   UNL     1       2.642   2.091  19.303  0.00  0.00    +0.000 NA
ATOM     29  C   UNL     1       1.487   1.434  18.702  0.00  0.00    +0.000 C 
ATOM     30  C   UNL     1       0.457   2.525  18.517  0.00  0.00    +0.000 C 
ATOM     31  C   UNL     1       0.697   3.457  19.691  0.00  0.00    +0.000 C 
ATOM     32  C   UNL     1       2.146   3.213  20.144  0.00  0.00    +0.000 C 
BRANCH  32  33
ATOM     33  C   UNL     1       2.277   2.967  21.677  0.00  0.00    +0.000 C 
ATOM     34  F   UNL     1       2.505   4.110  22.369  0.00  0.00    +0.000 F 
ATOM     35  F   UNL     1       1.132   2.433  22.170  0.00  0.00    +0.000 F 
ATOM     36  F   UNL     1       3.276   2.112  21.993  0.00  0.00    +0.000 F 
ENDBRANCH  32  33
ENDBRANCH  27  28
ENDBRANCH  26  27
ENDBRANCH  25  26
ENDBRANCH  11  25
TORSDOF 8
ENDMDL
MODEL 2
REMARK VINA RESULT:      -7.8      1.206      1.792
REMARK  Name = 
REMARK  10 active torsions:
REMARK  status: ('A' for Active; 'I' for Inactive)
REMARK    1  A    between atoms: C_1  and  O_2
REMARK    2  A    between atoms: O_2  and  C_3
REMARK    3  A    between atoms: N_7  and  C_8
REMARK    4  A    between atoms: C_13  and  O_14
REMARK    5  A    between atoms: C_15  and  C_16
REMARK    6  A    between atoms: C_22  and  O_23
REMARK    7  A    between atoms: O_23  and  C_24
REMARK    8  A    between atoms: C_24  and  C_25
REMARK    9  A    between atoms: C_25  and  N_26
REMARK   10  A    between atoms: C_30  and  C_31
REMARK                            x       y       z     vdW  Elec       q    Type
REMARK                         _______ _______ _______ _____ _____    ______ ____
ROOT
ATOM      1  C   UNL     1       3.931   6.800  17.315  0.00  0.00    +0.000 A 
ATOM      2  C   UNL     1       3.198   7.937  17.663  0.00  0.00    +0.000 A 
ATOM      3  C   UNL     1       2.402   7.965  18.829  0.00  0.00    +0.000 A 
ATOM      4  C   UNL     1       1.498   8.989  19.146  0.00  0.00    +0.000 A 
ATOM      5  N   UNL     1       1.253  10.006  18.185  0.00  0.00    +0.000 N 
ATOM      6  N   UNL     1       0.794   8.988  20.291  0.00  0.00    +0.000 NA
ATOM      7  C   UNL     1       0.995   7.960  21.117  0.00  0.00    +0.000 A 
ATOM      8  N   UNL     1       1.799   6.912  20.895  0.00  0.00    +0.000 NA
ATOM      9  C   UNL     1       2.481   6.918  19.748  0.00  0.00    +0.000 A 
ATOM     10  C   UNL     1       3.280   5.830  19.436  0.00  0.00    +0.000 A 
ATOM     11  C   UNL     1       3.959   5.716  18.208  0.00  0.00    +0.000 A 
ATOM     12  H   UNL     1       0.917   9.580  17.332  0.00  0.00    +0.000 HD
ENDROOT
BRANCH   5  13
ATOM     13  C   UNL     1       0.671  11.265  18.463  0.00  0.00    +0.000 A 
ATOM     14  C   UNL     1       1.490  12.401  18.625  0.00  0.00    +0.000 A 
ATOM     15  F   UNL     1       2.824  12.300  18.485  0.00  0.00    +0.000 F 
ATOM     16  C   UNL     1       0.964  13.658  18.883  0.00  0.00    +0.000 A 
ATOM     17  C   UNL     1      -0.414  13.819  18.966  0.00  0.00    +0.000 A 
ATOM     18  C   UNL     1      -1.247  12.712  18.798  0.00  0.00    +0.000 A 
ATOM     19  C   UNL     1      -0.733  11.425  18.557  0.00  0.00    +0.000 A 
ATOM     20  C   UNL     1      -1.663  10.242  18.458  0.00  0.00    +0.000 C 
BRANCH  18  21
ATOM     21  O   UNL     1      -2.603  12.881  18.873  0.00  0.00    +0.000 OA
ATOM     22  H   UNL     1      -3.040  12.147  18.414  0.00  0.00    +0.000 HD
ENDBRANCH  18  21
ENDBRANCH   5  13
BRANCH   1  24
ATOM     23  C   UNL     1       6.026   6.737  16.182  0.00  0.00    +0.000 C 
ATOM     24  O   UNL     1       4.599   6.685  16.121  0.00  0.00    +0.000 OA
ENDBRANCH   1  24
BRANCH  11  25
ATOM     25  O   UNL     1       4.638   4.570  17.837  0.00  0.00    +0.000 OA
BRANCH  25  26
ATOM     26  C   UNL     1       3.795   3.452  17.514  0.00  0.00    +0.000 C 
BRANCH  26  27
ATOM     27  C   UNL     1       3.833   2.324  18.563  0.00  0.00    +0.000 C 
BRANCH  27  28
ATOM     28  N   UNL     1       2.658   2.032  19.394  0.00  0.00    +0.000 NA
ATOM     29  C   UNL     1       1.504   1.471  18.700  0.00  0.00    +0.000 C 
ATOM     30  C   UNL     1       0.577   2.641  18.456  0.00  0.00    +0.000 C 
ATOM     31  C   UNL     1       0.801   3.542  19.657  0.00  0.00    +0.000 C 
ATOM     32  C   UNL     1       2.189   3.181  20.212  0.00  0.00    +0.000 C 
BRANCH  32  33
ATOM     33  C   UNL     1       2.187   2.913  21.746  0.00  0.00    +0.000 C 
ATOM     34  F   UNL     1       0.996   2.443  22.191  0.00  0.00    +0.000 F 
ATOM     35  F   UNL     1       3.119   1.978  22.064  0.00  0.00    +0.000 F 
ATOM     36  F   UNL     1       2.472   4.014  22.478  0.00  0.00    +0.000 F 
ENDBRANCH  32  33
ENDBRANCH  27  28
ENDBRANCH  26  27
ENDBRANCH  25  26
ENDBRANCH  11  25
TORSDOF 8
ENDMDL
MODEL 3
REMARK VINA RESULT:      -7.8      3.660      5.096
REMARK  Name = 
REMARK  10 active torsions:
REMARK  status: ('A' for Active; 'I' for Inactive)
REMARK    1  A    between atoms: C_1  and  O_2
REMARK    2  A    between atoms: O_2  and  C_3
REMARK    3  A    between atoms: N_7  and  C_8
REMARK    4  A    between atoms: C_13  and  O_14
REMARK    5  A    between atoms: C_15  and  C_16
REMARK    6  A    between atoms: C_22  and  O_23
REMARK    7  A    between atoms: O_23  and  C_24
REMARK    8  A    between atoms: C_24  and  C_25
REMARK    9  A    between atoms: C_25  and  N_26
REMARK   10  A    between atoms: C_30  and  C_31
REMARK                            x       y       z     vdW  Elec       q    Type
REMARK                         _______ _______ _______ _____ _____    ______ ____
ROOT
ATOM      1  C   UNL     1       1.223  11.401  19.010  0.00  0.00    +0.000 A 
ATOM      2  C   UNL     1       0.489  11.999  20.037  0.00  0.00    +0.000 A 
ATOM      3  C   UNL     1      -0.023  11.236  21.109  0.00  0.00    +0.000 A 
ATOM      4  C   UNL     1      -0.919  11.725  22.071  0.00  0.00    +0.000 A 
ATOM      5  N   UNL     1      -1.463  13.027  21.899  0.00  0.00    +0.000 N 
ATOM      6  N   UNL     1      -1.344  10.968  23.097  0.00  0.00    +0.000 NA
ATOM      7  C   UNL     1      -0.872   9.723  23.158  0.00  0.00    +0.000 A 
ATOM      8  N   UNL     1      -0.051   9.143  22.274  0.00  0.00    +0.000 NA
ATOM      9  C   UNL     1       0.352   9.901  21.252  0.00  0.00    +0.000 A 
ATOM     10  C   UNL     1       1.154   9.336  20.273  0.00  0.00    +0.000 A 
ATOM     11  C   UNL     1       1.547  10.038  19.117  0.00  0.00    +0.000 A 
ATOM     12  H   UNL     1      -1.943  13.070  21.011  0.00  0.00    +0.000 HD
ENDROOT
BRANCH   5  13
ATOM     13  C   UNL     1      -2.076  13.793  22.919  0.00  0.00    +0.000 A 
ATOM     14  C   UNL     1      -1.301  14.671  23.704  0.00  0.00    +0.000 A 
ATOM     15  F   UNL     1       0.016  14.808  23.469  0.00  0.00    +0.000 F 
ATOM     16  C   UNL     1      -1.861  15.454  24.704  0.00  0.00    +0.000 A 
ATOM     17  C   UNL     1      -3.230  15.394  24.932  0.00  0.00    +0.000 A 
ATOM     18  C   UNL     1      -4.020  14.541  24.160  0.00  0.00    +0.000 A 
ATOM     19  C   UNL     1      -3.470  13.723  23.157  0.00  0.00    +0.000 A 
ATOM     20  C   UNL     1      -4.346  12.759  22.398  0.00  0.00    +0.000 C 
BRANCH  18  21
ATOM     21  O   UNL     1      -5.369  14.495  24.387  0.00  0.00    +0.000 OA
ATOM     22  H   UNL     1      -5.527  14.283  25.321  0.00  0.00    +0.000 HD
ENDBRANCH  18  21
ENDBRANCH   5  13
BRANCH   1  24
ATOM     23  C   UNL     1       2.348  13.289  18.091  0.00  0.00    +0.000 C 
ATOM     24  O   UNL     1       1.612  12.081  17.883  0.00  0.00    +0.000 OA
ENDBRANCH   1  24
BRANCH  11  25
ATOM     25  O   UNL     1       2.223   9.434  18.073  0.00  0.00    +0.000 OA
BRANCH  25  26
ATOM     26  C   UNL     1       2.040   8.011  17.985  0.00  0.00    +0.000 C 
BRANCH  26  27
ATOM     27  C   UNL     1       3.360   7.216  17.979  0.00  0.00    +0.000 C 
BRANCH  27  28
ATOM     28  N   UNL     1       3.447   5.904  18.631  0.00  0.00    +0.000 NA
ATOM     29  C   UNL     1       4.388   4.955  18.044  0.00  0.00    +0.000 C 
ATOM     30  C   UNL     1       3.550   4.049  17.171  0.00  0.00    +0.000 C 
ATOM     31  C   UNL     1       2.222   3.964  17.900  0.00  0.00    +0.000 C 
ATOM     32  C   UNL     1       2.140   5.214  18.792  0.00  0.00    +0.000 C 
BRANCH  32  33
ATOM     33  C   UNL     1       1.767   4.891  20.269  0.00  0.00    +0.000 C 
ATOM     34  F   UNL     1       1.806   5.986  21.067  0.00  0.00    +0.000 F 
ATOM     35  F   UNL     1       0.504   4.401  20.342  0.00  0.00    +0.000 F 
ATOM     36  F   UNL     1       2.579   3.968  20.832  0.00  0.00    +0.000 F 
ENDBRANCH  32  33
ENDBRANCH  27  28
ENDBRANCH  26  27
ENDBRANCH  25  26
ENDBRANCH  11  25
TORSDOF 8
ENDMDL
MODEL 4
REMARK VINA RESULT:      -7.7      2.921      8.485
REMARK  Name = 
REMARK  10 active torsions:
REMARK  status: ('A' for Active; 'I' for Inactive)
REMARK    1  A    between atoms: C_1  and  O_2
REMARK    2  A    between atoms: O_2  and  C_3
REMARK    3  A    between atoms: N_7  and  C_8
REMARK    4  A    between atoms: C_13  and  O_14
REMARK    5  A    between atoms: C_15  and  C_16
REMARK    6  A    between atoms: C_22  and  O_23
REMARK    7  A    between atoms: O_23  and  C_24
REMARK    8  A    between atoms: C_24  and  C_25
REMARK    9  A    between atoms: C_25  and  N_26
REMARK   10  A    between atoms: C_30  and  C_31
REMARK                            x       y       z     vdW  Elec       q    Type
REMARK                         _______ _______ _______ _____ _____    ______ ____
ROOT
ATOM      1  C   UNL     1       1.412  10.573  18.541  0.00  0.00    +0.000 A 
ATOM      2  C   UNL     1       2.082   9.393  18.209  0.00  0.00    +0.000 A 
ATOM      3  C   UNL     1       2.078   8.281  19.079  0.00  0.00    +0.000 A 
ATOM      4  C   UNL     1       2.873   7.139  18.907  0.00  0.00    +0.000 A 
ATOM      5  N   UNL     1       3.849   7.134  17.873  0.00  0.00    +0.000 N 
ATOM      6  N   UNL     1       2.801   6.088  19.742  0.00  0.00    +0.000 NA
ATOM      7  C   UNL     1       1.933   6.184  20.750  0.00  0.00    +0.000 A 
ATOM      8  N   UNL     1       1.159   7.240  21.032  0.00  0.00    +0.000 NA
ATOM      9  C   UNL     1       1.252   8.282  20.202  0.00  0.00    +0.000 A 
ATOM     10  C   UNL     1       0.521   9.426  20.478  0.00  0.00    +0.000 A 
ATOM     11  C   UNL     1       0.631  10.600  19.708  0.00  0.00    +0.000 A 
ATOM     12  H   UNL     1       4.484   7.908  18.015  0.00  0.00    +0.000 HD
ENDROOT
BRANCH   5  13
ATOM     13  C   UNL     1       4.466   5.977  17.342  0.00  0.00    +0.000 A 
ATOM     14  C   UNL     1       3.698   4.824  17.083  0.00  0.00    +0.000 A 
ATOM     15  F   UNL     1       2.372   4.827  17.308  0.00  0.00    +0.000 F 
ATOM     16  C   UNL     1       4.256   3.672  16.548  0.00  0.00    +0.000 A 
ATOM     17  C   UNL     1       5.610   3.650  16.235  0.00  0.00    +0.000 A 
ATOM     18  C   UNL     1       6.389   4.783  16.472  0.00  0.00    +0.000 A 
ATOM     19  C   UNL     1       5.847   5.953  17.033  0.00  0.00    +0.000 A 
ATOM     20  C   UNL     1       6.739   7.129  17.345  0.00  0.00    +0.000 C 
BRANCH  18  21
ATOM     21  O   UNL     1       7.720   4.755  16.152  0.00  0.00    +0.000 OA
ATOM     22  H   UNL     1       7.911   3.939  15.664  0.00  0.00    +0.000 HD
ENDBRANCH  18  21
ENDBRANCH   5  13
BRANCH   1  24
ATOM     23  C   UNL     1       2.651  12.545  18.039  0.00  0.00    +0.000 C 
ATOM     24  O   UNL     1       1.512  11.718  17.791  0.00  0.00    +0.000 OA
ENDBRANCH   1  24
BRANCH  11  25
ATOM     25  O   UNL     1       0.015  11.785  20.066  0.00  0.00    +0.000 OA
BRANCH  25  26
ATOM     26  C   UNL     1      -1.407  11.690  20.249  0.00  0.00    +0.000 C 
BRANCH  26  27
ATOM     27  C   UNL     1      -2.217  11.985  18.971  0.00  0.00    +0.000 C 
BRANCH  27  28
ATOM     28  N   UNL     1      -3.169  11.001  18.443  0.00  0.00    +0.000 NA
ATOM     29  C   UNL     1      -2.605   9.936  17.622  0.00  0.00    +0.000 C 
ATOM     30  C   UNL     1      -2.832  10.370  16.191  0.00  0.00    +0.000 C 
ATOM     31  C   UNL     1      -4.144  11.132  16.244  0.00  0.00    +0.000 C 
ATOM     32  C   UNL     1      -4.312  11.596  17.700  0.00  0.00    +0.000 C 
BRANCH  32  33
ATOM     33  C   UNL     1      -5.709  11.251  18.298  0.00  0.00    +0.000 C 
ATOM     34  F   UNL     1      -5.861   9.926  18.535  0.00  0.00    +0.000 F 
ATOM     35  F   UNL     1      -5.884  11.883  19.486  0.00  0.00    +0.000 F 
ATOM     36  F   UNL     1      -6.734  11.626  17.499  0.00  0.00    +0.000 F 
ENDBRANCH  32  33
ENDBRANCH  27  28
ENDBRANCH  26  27
ENDBRANCH  25  26
ENDBRANCH  11  25
TORSDOF 8
ENDMDL
MODEL 5
REMARK VINA RESULT:      -7.6      3.470      5.129
REMARK  Name = 
REMARK  10 active torsions:
REMARK  status: ('A' for Active; 'I' for Inactive)
REMARK    1  A    between atoms: C_1  and  O_2
REMARK    2  A    between atoms: O_2  and  C_3
REMARK    3  A    between atoms: N_7  and  C_8
REMARK    4  A    between atoms: C_13  and  O_14
REMARK    5  A    between atoms: C_15  and  C_16
REMARK    6  A    between atoms: C_22  and  O_23
REMARK    7  A    between atoms: O_23  and  C_24
REMARK    8  A    between atoms: C_24  and  C_25
REMARK    9  A    between atoms: C_25  and  N_26
REMARK   10  A    between atoms: C_30  and  C_31
REMARK                            x       y       z     vdW  Elec       q    Type
REMARK                         _______ _______ _______ _____ _____    ______ ____
ROOT
ATOM      1  C   UNL     1       2.292   5.522  20.295  0.00  0.00    +0.000 A 
ATOM      2  C   UNL     1       1.758   6.780  20.586  0.00  0.00    +0.000 A 
ATOM      3  C   UNL     1       1.767   7.817  19.628  0.00  0.00    +0.000 A 
ATOM      4  C   UNL     1       1.424   9.149  19.900  0.00  0.00    +0.000 A 
ATOM      5  N   UNL     1       1.178   9.530  21.247  0.00  0.00    +0.000 N 
ATOM      6  N   UNL     1       1.409  10.090  18.941  0.00  0.00    +0.000 NA
ATOM      7  C   UNL     1       1.737   9.697  17.710  0.00  0.00    +0.000 A 
ATOM      8  N   UNL     1       2.120   8.465  17.348  0.00  0.00    +0.000 NA
ATOM      9  C   UNL     1       2.145   7.543  18.314  0.00  0.00    +0.000 A 
ATOM     10  C   UNL     1       2.592   6.267  18.011  0.00  0.00    +0.000 A 
ATOM     11  C   UNL     1       2.737   5.264  18.988  0.00  0.00    +0.000 A 
ATOM     12  H   UNL     1       1.997   9.324  21.803  0.00  0.00    +0.000 HD
ENDROOT
BRANCH   5  13
ATOM     13  C   UNL     1       0.493  10.701  21.649  0.00  0.00    +0.000 A 
ATOM     14  C   UNL     1       0.919  11.962  21.184  0.00  0.00    +0.000 A 
ATOM     15  F   UNL     1       1.956  12.056  20.333  0.00  0.00    +0.000 F 
ATOM     16  C   UNL     1       0.268  13.135  21.538  0.00  0.00    +0.000 A 
ATOM     17  C   UNL     1      -0.851  13.075  22.358  0.00  0.00    +0.000 A 
ATOM     18  C   UNL     1      -1.299  11.837  22.823  0.00  0.00    +0.000 A 
ATOM     19  C   UNL     1      -0.642  10.639  22.493  0.00  0.00    +0.000 A 
ATOM     20  C   UNL     1      -1.111   9.330  23.077  0.00  0.00    +0.000 C 
BRANCH  18  21
ATOM     21  O   UNL     1      -2.408  11.788  23.623  0.00  0.00    +0.000 OA
ATOM     22  H   UNL     1      -2.847  10.931  23.504  0.00  0.00    +0.000 HD
ENDBRANCH  18  21
ENDBRANCH   5  13
BRANCH   1  24
ATOM     23  C   UNL     1       1.404   3.545  21.284  0.00  0.00    +0.000 C 
ATOM     24  O   UNL     1       2.430   4.538  21.243  0.00  0.00    +0.000 OA
ENDBRANCH   1  24
BRANCH  11  25
ATOM     25  O   UNL     1       3.318   4.039  18.716  0.00  0.00    +0.000 OA
BRANCH  25  26
ATOM     26  C   UNL     1       4.560   3.800  19.398  0.00  0.00    +0.000 C 
BRANCH  26  27
ATOM     27  C   UNL     1       5.541   4.986  19.332  0.00  0.00    +0.000 C 
BRANCH  27  28
ATOM     28  N   UNL     1       6.398   5.186  18.158  0.00  0.00    +0.000 NA
ATOM     29  C   UNL     1       7.813   5.421  18.426  0.00  0.00    +0.000 C 
ATOM     30  C   UNL     1       7.991   6.920  18.347  0.00  0.00    +0.000 C 
ATOM     31  C   UNL     1       6.992   7.353  17.291  0.00  0.00    +0.000 C 
ATOM     32  C   UNL     1       5.924   6.248  17.231  0.00  0.00    +0.000 C 
BRANCH  32  33
ATOM     33  C   UNL     1       5.637   5.749  15.783  0.00  0.00    +0.000 C 
ATOM     34  F   UNL     1       4.874   4.629  15.761  0.00  0.00    +0.000 F 
ATOM     35  F   UNL     1       4.963   6.695  15.081  0.00  0.00    +0.000 F 
ATOM     36  F   UNL     1       6.761   5.470  15.085  0.00  0.00    +0.000 F 
ENDBRANCH  32  33
ENDBRANCH  27  28
ENDBRANCH  26  27
ENDBRANCH  25  26
ENDBRANCH  11  25
TORSDOF 8
ENDMDL
MODEL 6
REMARK VINA RESULT:      -7.6      3.159      4.751
REMARK  Name = 
REMARK  10 active torsions:
REMARK  status: ('A' for Active; 'I' for Inactive)
REMARK    1  A    between atoms: C_1  and  O_2
REMARK    2  A    between atoms: O_2  and  C_3
REMARK    3  A    between atoms: N_7  and  C_8
REMARK    4  A    between atoms: C_13  and  O_14
REMARK    5  A    between atoms: C_15  and  C_16
REMARK    6  A    between atoms: C_22  and  O_23
REMARK    7  A    between atoms: O_23  and  C_24
REMARK    8  A    between atoms: C_24  and  C_25
REMARK    9  A    between atoms: C_25  and  N_26
REMARK   10  A    between atoms: C_30  and  C_31
REMARK                            x       y       z     vdW  Elec       q    Type
REMARK                         _______ _______ _______ _____ _____    ______ ____
ROOT
ATOM      1  C   UNL     1       2.329   5.661  20.405  0.00  0.00    +0.000 A 
ATOM      2  C   UNL     1       1.780   6.918  20.671  0.00  0.00    +0.000 A 
ATOM      3  C   UNL     1       1.785   7.938  19.694  0.00  0.00    +0.000 A 
ATOM      4  C   UNL     1       1.428   9.272  19.941  0.00  0.00    +0.000 A 
ATOM      5  N   UNL     1       1.169   9.674  21.280  0.00  0.00    +0.000 N 
ATOM      6  N   UNL     1       1.408  10.196  18.965  0.00  0.00    +0.000 NA
ATOM      7  C   UNL     1       1.749   9.784  17.744  0.00  0.00    +0.000 A 
ATOM      8  N   UNL     1       2.146   8.550  17.406  0.00  0.00    +0.000 NA
ATOM      9  C   UNL     1       2.174   7.646  18.388  0.00  0.00    +0.000 A 
ATOM     10  C   UNL     1       2.636   6.369  18.111  0.00  0.00    +0.000 A 
ATOM     11  C   UNL     1       2.784   5.384  19.106  0.00  0.00    +0.000 A 
ATOM     12  H   UNL     1       1.986   9.486  21.844  0.00  0.00    +0.000 HD
ENDROOT
BRANCH   5  13
ATOM     13  C   UNL     1       0.470  10.844  21.657  0.00  0.00    +0.000 A 
ATOM     14  C   UNL     1       0.890  12.102  21.178  0.00  0.00    +0.000 A 
ATOM     15  F   UNL     1       1.936  12.193  20.338  0.00  0.00    +0.000 F 
ATOM     16  C   UNL     1       0.226  13.275  21.507  0.00  0.00    +0.000 A 
ATOM     17  C   UNL     1      -0.902  13.217  22.316  0.00  0.00    +0.000 A 
ATOM     18  C   UNL     1      -1.345  11.983  22.794  0.00  0.00    +0.000 A 
ATOM     19  C   UNL     1      -0.673  10.785  22.489  0.00  0.00    +0.000 A 
ATOM     20  C   UNL     1      -1.139   9.481  23.087  0.00  0.00    +0.000 C 
BRANCH  18  21
ATOM     21  O   UNL     1      -2.462  11.935  23.583  0.00  0.00    +0.000 OA
ATOM     22  H   UNL     1      -2.646  11.012  23.816  0.00  0.00    +0.000 HD
ENDBRANCH  18  21
ENDBRANCH   5  13
BRANCH   1  24
ATOM     23  C   UNL     1       1.559   3.597  21.313  0.00  0.00    +0.000 C 
ATOM     24  O   UNL     1       2.471   4.696  21.371  0.00  0.00    +0.000 OA
ENDBRANCH   1  24
BRANCH  11  25
ATOM     25  O   UNL     1       3.379   4.161  18.859  0.00  0.00    +0.000 OA
BRANCH  25  26
ATOM     26  C   UNL     1       3.097   3.608  17.563  0.00  0.00    +0.000 C 
BRANCH  26  27
ATOM     27  C   UNL     1       4.321   3.565  16.628  0.00  0.00    +0.000 C 
BRANCH  27  28
ATOM     28  N   UNL     1       5.156   4.757  16.431  0.00  0.00    +0.000 NA
ATOM     29  C   UNL     1       5.447   5.117  15.047  0.00  0.00    +0.000 C 
ATOM     30  C   UNL     1       6.826   4.562  14.771  0.00  0.00    +0.000 C 
ATOM     31  C   UNL     1       7.541   4.678  16.105  0.00  0.00    +0.000 C 
ATOM     32  C   UNL     1       6.441   4.731  17.179  0.00  0.00    +0.000 C 
BRANCH  32  33
ATOM     33  C   UNL     1       6.618   5.910  18.182  0.00  0.00    +0.000 C 
ATOM     34  F   UNL     1       7.914   6.275  18.332  0.00  0.00    +0.000 F 
ATOM     35  F   UNL     1       5.951   7.008  17.743  0.00  0.00    +0.000 F 
ATOM     36  F   UNL     1       6.143   5.631  19.417  0.00  0.00    +0.000 F 
ENDBRANCH  32  33
ENDBRANCH  27  28
ENDBRANCH  26  27
ENDBRANCH  25  26
ENDBRANCH  11  25
TORSDOF 8
ENDMDL
MODEL 7
REMARK VINA RESULT:      -7.5      3.444      4.677
REMARK  Name = 
REMARK  10 active torsions:
REMARK  status: ('A' for Active; 'I' for Inactive)
REMARK    1  A    between atoms: C_1  and  O_2
REMARK    2  A    between atoms: O_2  and  C_3
REMARK    3  A    between atoms: N_7  and  C_8
REMARK    4  A    between atoms: C_13  and  O_14
REMARK    5  A    between atoms: C_15  and  C_16
REMARK    6  A    between atoms: C_22  and  O_23
REMARK    7  A    between atoms: O_23  and  C_24
REMARK    8  A    between atoms: C_24  and  C_25
REMARK    9  A    between atoms: C_25  and  N_26
REMARK   10  A    between atoms: C_30  and  C_31
REMARK                            x       y       z     vdW  Elec       q    Type
REMARK                         _______ _______ _______ _____ _____    ______ ____
ROOT
ATOM      1  C   UNL     1       1.375  10.560  19.042  0.00  0.00    +0.000 A 
ATOM      2  C   UNL     1       0.676  11.351  19.957  0.00  0.00    +0.000 A 
ATOM      3  C   UNL     1       0.170  10.806  21.157  0.00  0.00    +0.000 A 
ATOM      4  C   UNL     1      -0.695  11.481  22.030  0.00  0.00    +0.000 A 
ATOM      5  N   UNL     1      -1.214  12.745  21.637  0.00  0.00    +0.000 N 
ATOM      6  N   UNL     1      -1.115  10.931  23.183  0.00  0.00    +0.000 NA
ATOM      7  C   UNL     1      -0.670   9.705  23.458  0.00  0.00    +0.000 A 
ATOM      8  N   UNL     1       0.121   8.956  22.679  0.00  0.00    +0.000 NA
ATOM      9  C   UNL     1       0.519   9.508  21.531  0.00  0.00    +0.000 A 
ATOM     10  C   UNL     1       1.287   8.757  20.656  0.00  0.00    +0.000 A 
ATOM     11  C   UNL     1       1.671   9.231  19.387  0.00  0.00    +0.000 A 
ATOM     12  H   UNL     1      -1.711  12.640  20.764  0.00  0.00    +0.000 HD
ENDROOT
BRANCH   5  13
ATOM     13  C   UNL     1      -1.788  13.696  22.513  0.00  0.00    +0.000 A 
ATOM     14  C   UNL     1      -0.970  14.646  23.157  0.00  0.00    +0.000 A 
ATOM     15  F   UNL     1       0.353  14.674  22.919  0.00  0.00    +0.000 F 
ATOM     16  C   UNL     1      -1.491  15.608  24.011  0.00  0.00    +0.000 A 
ATOM     17  C   UNL     1      -2.862  15.658  24.229  0.00  0.00    +0.000 A 
ATOM     18  C   UNL     1      -3.694  14.735  23.594  0.00  0.00    +0.000 A 
ATOM     19  C   UNL     1      -3.185  13.739  22.742  0.00  0.00    +0.000 A 
ATOM     20  C   UNL     1      -4.109  12.713  22.136  0.00  0.00    +0.000 C 
BRANCH  18  21
ATOM     21  O   UNL     1      -5.044  14.798  23.808  0.00  0.00    +0.000 OA
ATOM     22  H   UNL     1      -5.208  15.001  24.743  0.00  0.00    +0.000 HD
ENDBRANCH  18  21
ENDBRANCH   5  13
BRANCH   1  24
ATOM     23  C   UNL     1       2.609  12.165  17.785  0.00  0.00    +0.000 C 
ATOM     24  O   UNL     1       1.756  11.018  17.805  0.00  0.00    +0.000 OA
ENDBRANCH   1  24
BRANCH  11  25
ATOM     25  O   UNL     1       2.312   8.433  18.457  0.00  0.00    +0.000 OA
BRANCH  25  26
ATOM     26  C   UNL     1       2.066   7.025  18.606  0.00  0.00    +0.000 C 
BRANCH  26  27
ATOM     27  C   UNL     1       3.343   6.195  18.842  0.00  0.00    +0.000 C 
BRANCH  27  28
ATOM     28  N   UNL     1       3.264   4.748  19.076  0.00  0.00    +0.000 NA
ATOM     29  C   UNL     1       4.422   3.965  18.659  0.00  0.00    +0.000 C 
ATOM     30  C   UNL     1       4.052   3.391  17.310  0.00  0.00    +0.000 C 
ATOM     31  C   UNL     1       2.555   3.162  17.408  0.00  0.00    +0.000 C 
ATOM     32  C   UNL     1       2.048   4.104  18.512  0.00  0.00    +0.000 C 
BRANCH  32  33
ATOM     33  C   UNL     1       1.157   3.388  19.571  0.00  0.00    +0.000 C 
ATOM     34  F   UNL     1       0.249   2.553  19.008  0.00  0.00    +0.000 F 
ATOM     35  F   UNL     1       1.922   2.632  20.398  0.00  0.00    +0.000 F 
ATOM     36  F   UNL     1       0.467   4.248  20.353  0.00  0.00    +0.000 F 
ENDBRANCH  32  33
ENDBRANCH  27  28
ENDBRANCH  26  27
ENDBRANCH  25  26
ENDBRANCH  11  25
TORSDOF 8
ENDMDL
MODEL 8
REMARK VINA RESULT:      -7.4      3.273      4.282
REMARK  Name = 
REMARK  10 active torsions:
REMARK  status: ('A' for Active; 'I' for Inactive)
REMARK    1  A    between atoms: C_1  and  O_2
REMARK    2  A    between atoms: O_2  and  C_3
REMARK    3  A    between atoms: N_7  and  C_8
REMARK    4  A    between atoms: C_13  and  O_14
REMARK    5  A    between atoms: C_15  and  C_16
REMARK    6  A    between atoms: C_22  and  O_23
REMARK    7  A    between atoms: O_23  and  C_24
REMARK    8  A    between atoms: C_24  and  C_25
REMARK    9  A    between atoms: C_25  and  N_26
REMARK   10  A    between atoms: C_30  and  C_31
REMARK                            x       y       z     vdW  Elec       q    Type
REMARK                         _______ _______ _______ _____ _____    ______ ____
ROOT
ATOM      1  C   UNL     1       1.449  10.549  19.007  0.00  0.00    +0.000 A 
ATOM      2  C   UNL     1       0.790  11.289  19.992  0.00  0.00    +0.000 A 
ATOM      3  C   UNL     1       0.313  10.674  21.171  0.00  0.00    +0.000 A 
ATOM      4  C   UNL     1      -0.516  11.303  22.111  0.00  0.00    +0.000 A 
ATOM      5  N   UNL     1      -1.029  12.595  21.816  0.00  0.00    +0.000 N 
ATOM      6  N   UNL     1      -0.908  10.686  23.239  0.00  0.00    +0.000 NA
ATOM      7  C   UNL     1      -0.471   9.439  23.423  0.00  0.00    +0.000 A 
ATOM      8  N   UNL     1       0.285   8.732  22.573  0.00  0.00    +0.000 NA
ATOM      9  C   UNL     1       0.655   9.352  21.450  0.00  0.00    +0.000 A 
ATOM     10  C   UNL     1       1.386   8.649  20.506  0.00  0.00    +0.000 A 
ATOM     11  C   UNL     1       1.737   9.198  19.258  0.00  0.00    +0.000 A 
ATOM     12  H   UNL     1      -1.554  12.552  20.953  0.00  0.00    +0.000 HD
ENDROOT
BRANCH   5  13
ATOM     13  C   UNL     1      -1.563  13.495  22.767  0.00  0.00    +0.000 A 
ATOM     14  C   UNL     1      -2.823  13.243  23.347  0.00  0.00    +0.000 A 
ATOM     15  F   UNL     1      -3.508  12.132  23.023  0.00  0.00    +0.000 F 
ATOM     16  C   UNL     1      -3.379  14.088  24.296  0.00  0.00    +0.000 A 
ATOM     17  C   UNL     1      -2.672  15.210  24.711  0.00  0.00    +0.000 A 
ATOM     18  C   UNL     1      -1.417  15.475  24.160  0.00  0.00    +0.000 A 
ATOM     19  C   UNL     1      -0.845  14.643  23.181  0.00  0.00    +0.000 A 
ATOM     20  C   UNL     1       0.478  15.006  22.555  0.00  0.00    +0.000 C 
BRANCH  18  21
ATOM     21  O   UNL     1      -0.725  16.578  24.581  0.00  0.00    +0.000 OA
ATOM     22  H   UNL     1      -0.049  16.799  23.921  0.00  0.00    +0.000 HD
ENDBRANCH  18  21
ENDBRANCH   5  13
BRANCH   1  24
ATOM     23  C   UNL     1       2.622  12.249  17.818  0.00  0.00    +0.000 C 
ATOM     24  O   UNL     1       1.798  11.081  17.791  0.00  0.00    +0.000 OA
ENDBRANCH   1  24
BRANCH  11  25
ATOM     25  O   UNL     1       2.338   8.453  18.260  0.00  0.00    +0.000 OA
BRANCH  25  26
ATOM     26  C   UNL     1       2.115   7.036  18.353  0.00  0.00    +0.000 C 
BRANCH  26  27
ATOM     27  C   UNL     1       3.402   6.219  18.580  0.00  0.00    +0.000 C 
BRANCH  27  28
ATOM     28  N   UNL     1       3.335   4.827  19.038  0.00  0.00    +0.000 NA
ATOM     29  C   UNL     1       4.451   3.969  18.655  0.00  0.00    +0.000 C 
ATOM     30  C   UNL     1       3.970   3.202  17.444  0.00  0.00    +0.000 C 
ATOM     31  C   UNL     1       2.484   3.018  17.695  0.00  0.00    +0.000 C 
ATOM     32  C   UNL     1       2.073   4.126  18.678  0.00  0.00    +0.000 C 
BRANCH  32  33
ATOM     33  C   UNL     1       1.268   3.595  19.901  0.00  0.00    +0.000 C 
ATOM     34  F   UNL     1       0.676   4.590  20.606  0.00  0.00    +0.000 F 
ATOM     35  F   UNL     1       0.277   2.764  19.490  0.00  0.00    +0.000 F 
ATOM     36  F   UNL     1       2.029   2.896  20.774  0.00  0.00    +0.000 F 
ENDBRANCH  32  33
ENDBRANCH  27  28
ENDBRANCH  26  27
ENDBRANCH  25  26
ENDBRANCH  11  25
TORSDOF 8
ENDMDL
MODEL 9
REMARK VINA RESULT:      -7.4      3.032      4.654
REMARK  Name = 
REMARK  10 active torsions:
REMARK  status: ('A' for Active; 'I' for Inactive)
REMARK    1  A    between atoms: C_1  and  O_2
REMARK    2  A    between atoms: O_2  and  C_3
REMARK    3  A    between atoms: N_7  and  C_8
REMARK    4  A    between atoms: C_13  and  O_14
REMARK    5  A    between atoms: C_15  and  C_16
REMARK    6  A    between atoms: C_22  and  O_23
REMARK    7  A    between atoms: O_23  and  C_24
REMARK    8  A    between atoms: C_24  and  C_25
REMARK    9  A    between atoms: C_25  and  N_26
REMARK   10  A    between atoms: C_30  and  C_31
REMARK                            x       y       z     vdW  Elec       q    Type
REMARK                         _______ _______ _______ _____ _____    ______ ____
ROOT
ATOM      1  C   UNL     1       2.032   5.828  20.180  0.00  0.00    +0.000 A 
ATOM      2  C   UNL     1       1.279   7.005  20.204  0.00  0.00    +0.000 A 
ATOM      3  C   UNL     1       1.610   8.101  19.376  0.00  0.00    +0.000 A 
ATOM      4  C   UNL     1       1.025   9.371  19.475  0.00  0.00    +0.000 A 
ATOM      5  N   UNL     1       0.137   9.634  20.553  0.00  0.00    +0.000 N 
ATOM      6  N   UNL     1       1.346  10.370  18.634  0.00  0.00    +0.000 NA
ATOM      7  C   UNL     1       2.254  10.095  17.697  0.00  0.00    +0.000 A 
ATOM      8  N   UNL     1       2.904   8.934  17.541  0.00  0.00    +0.000 NA
ATOM      9  C   UNL     1       2.586   7.956  18.391  0.00  0.00    +0.000 A 
ATOM     10  C   UNL     1       3.270   6.753  18.317  0.00  0.00    +0.000 A 
ATOM     11  C   UNL     1       3.061   5.704  19.232  0.00  0.00    +0.000 A 
ATOM     12  H   UNL     1       0.621   9.472  21.426  0.00  0.00    +0.000 HD
ENDROOT
BRANCH   5  13
ATOM     13  C   UNL     1      -0.789  10.702  20.602  0.00  0.00    +0.000 A 
ATOM     14  C   UNL     1      -0.843  11.538  21.735  0.00  0.00    +0.000 A 
ATOM     15  F   UNL     1       0.006  11.346  22.761  0.00  0.00    +0.000 F 
ATOM     16  C   UNL     1      -1.723  12.607  21.821  0.00  0.00    +0.000 A 
ATOM     17  C   UNL     1      -2.569  12.883  20.754  0.00  0.00    +0.000 A 
ATOM     18  C   UNL     1      -2.527  12.076  19.616  0.00  0.00    +0.000 A 
ATOM     19  C   UNL     1      -1.657  10.976  19.518  0.00  0.00    +0.000 A 
ATOM     20  C   UNL     1      -1.697  10.083  18.302  0.00  0.00    +0.000 C 
BRANCH  18  21
ATOM     21  O   UNL     1      -3.358  12.362  18.566  0.00  0.00    +0.000 OA
ATOM     22  H   UNL     1      -4.093  12.909  18.883  0.00  0.00    +0.000 HD
ENDBRANCH  18  21
ENDBRANCH   5  13
BRANCH   1  24
ATOM     23  C   UNL     1       0.953   3.755  20.642  0.00  0.00    +0.000 C 
ATOM     24  O   UNL     1       1.829   4.801  21.068  0.00  0.00    +0.000 OA
ENDBRANCH   1  24
BRANCH  11  25
ATOM     25  O   UNL     1       3.843   4.564  19.248  0.00  0.00    +0.000 OA
BRANCH  25  26
ATOM     26  C   UNL     1       3.544   3.618  18.208  0.00  0.00    +0.000 C 
BRANCH  26  27
ATOM     27  C   UNL     1       4.598   3.579  17.085  0.00  0.00    +0.000 C 
BRANCH  27  28
ATOM     28  N   UNL     1       5.379   4.776  16.748  0.00  0.00    +0.000 NA
ATOM     29  C   UNL     1       5.228   5.280  15.387  0.00  0.00    +0.000 C 
ATOM     30  C   UNL     1       6.420   4.744  14.627  0.00  0.00    +0.000 C 
ATOM     31  C   UNL     1       7.528   4.707  15.663  0.00  0.00    +0.000 C 
ATOM     32  C   UNL     1       6.833   4.656  17.034  0.00  0.00    +0.000 C 
BRANCH  32  33
ATOM     33  C   UNL     1       7.375   5.717  18.037  0.00  0.00    +0.000 C 
ATOM     34  F   UNL     1       8.388   5.242  18.802  0.00  0.00    +0.000 F 
ATOM     35  F   UNL     1       7.862   6.794  17.370  0.00  0.00    +0.000 F 
ATOM     36  F   UNL     1       6.427   6.177  18.886  0.00  0.00    +0.000 F 
ENDBRANCH  32  33
ENDBRANCH  27  28
ENDBRANCH  26  27
ENDBRANCH  25  26
ENDBRANCH  11  25
TORSDOF 8
ENDMDL
