MODEL 1
REMARK VINA RESULT:      -7.8      0.000      0.000
REMARK  Name = 
REMARK  9 active torsions:
REMARK  status: ('A' for Active; 'I' for Inactive)
REMARK    1  A    between atoms: C_1  and  O_2
REMARK    2  A    between atoms: O_2  and  C_3
REMARK    3  A    between atoms: C_6  and  C_7
REMARK    4  A    between atoms: C_7  and  C_8
REMARK    5  A    between atoms: C_8  and  N_9
REMARK    6  A    between atoms: C_12  and  N_13
REMARK    7  A    between atoms: N_13  and  C_14
REMARK    8  A    between atoms: C_26  and  O_27
REMARK    9  A    between atoms: O_27  and  C_28
REMARK                            x       y       z     vdW  Elec       q    Type
REMARK                         _______ _______ _______ _____ _____    ______ ____
ROOT
ATOM      1  N   UNL     1      -0.644  10.823  19.797  0.00  0.00    +0.000 N 
ATOM      2  H   UNL     1      -0.948   9.896  20.060  0.00  0.00    +0.000 HD
ENDROOT
BRANCH   1   3
ATOM      3  C   UNL     1      -1.692  11.756  19.827  0.00  0.00    +0.000 A 
ATOM      4  C   UNL     1      -2.221  12.151  21.117  0.00  0.00    +0.000 A 
ATOM      5  C   UNL     1      -1.799  11.711  22.401  0.00  0.00    +0.000 A 
ATOM      6  C   UNL     1      -2.352  12.248  23.568  0.00  0.00    +0.000 A 
ATOM      7  C   UNL     1      -3.269  13.284  23.473  0.00  0.00    +0.000 A 
ATOM      8 CL   UNL     1      -3.872  14.037  24.895  0.00  0.00    +0.000 Cl
ATOM      9  C   UNL     1      -3.757  13.660  22.234  0.00  0.00    +0.000 A 
ATOM     10  C   UNL     1      -3.335  13.001  21.093  0.00  0.00    +0.000 A 
ATOM     11  N   UNL     1      -4.113  13.060  20.021  0.00  0.00    +0.000 NA
ATOM     12  C   UNL     1      -3.768  12.266  19.003  0.00  0.00    +0.000 A 
ATOM     13  C   UNL     1      -4.597  11.235  18.584  0.00  0.00    +0.000 A 
ATOM     14  C   UNL     1      -4.152  10.284  17.653  0.00  0.00    +0.000 A 
ATOM     15  C   UNL     1      -2.988  10.533  16.938  0.00  0.00    +0.000 A 
ATOM     16  C   UNL     1      -2.214  11.587  17.372  0.00  0.00    +0.000 A 
ATOM     17  C   UNL     1      -2.457  12.064  18.670  0.00  0.00    +0.000 A 
BRANCH  15  18
ATOM     18  O   UNL     1      -2.689   9.650  15.949  0.00  0.00    +0.000 OA
ATOM     19  C   UNL     1      -2.946  10.009  14.597  0.00  0.00    +0.000 C 
ENDBRANCH  15  18
ENDBRANCH   1   3
BRANCH   1  23
ATOM     20  N   UNL     1       2.106   8.909  18.775  0.00  0.00    +0.000 NA
ATOM     21  C   UNL     1       1.643  10.108  18.054  0.00  0.00    +0.000 C 
ATOM     22  C   UNL     1       1.580  11.336  18.940  0.00  0.00    +0.000 C 
ATOM     23  C   UNL     1       0.749  11.060  20.185  0.00  0.00    +0.000 C 
ATOM     24  C   UNL     1       1.298   9.852  20.926  0.00  0.00    +0.000 C 
ATOM     25  C   UNL     1       1.355   8.637  20.012  0.00  0.00    +0.000 C 
BRANCH  20  26
ATOM     26  C   UNL     1       2.024   7.727  17.902  0.00  0.00    +0.000 C 
BRANCH  26  27
ATOM     27  C   UNL     1       2.633   6.478  18.546  0.00  0.00    +0.000 C 
BRANCH  27  31
ATOM     28  C   UNL     1       5.551   4.656  15.982  0.00  0.00    +0.000 A 
ATOM     29  C   UNL     1       4.606   3.867  16.637  0.00  0.00    +0.000 A 
ATOM     30  C   UNL     1       3.645   4.451  17.448  0.00  0.00    +0.000 A 
ATOM     31  C   UNL     1       3.630   5.848  17.615  0.00  0.00    +0.000 A 
ATOM     32  C   UNL     1       4.584   6.634  16.982  0.00  0.00    +0.000 A 
ATOM     33  C   UNL     1       5.537   6.043  16.157  0.00  0.00    +0.000 A 
BRANCH  28  35
ATOM     34  C   UNL     1       6.185   3.928  13.831  0.00  0.00    +0.000 C 
ATOM     35  O   UNL     1       6.465   3.981  15.225  0.00  0.00    +0.000 OA
ENDBRANCH  28  35
ENDBRANCH  27  31
ENDBRANCH  26  27
ENDBRANCH  20  26
ENDBRANCH   1  23
TORSDOF 7
ENDMDL
MODEL 2
REMARK VINA RESULT:      -7.6      1.941      2.574
REMARK  Name = 
REMARK  9 active torsions:
REMARK  status: ('A' for Active; 'I' for Inactive)
REMARK    1  A    between atoms: C_1  and  O_2
REMARK    2  A    between atoms: O_2  and  C_3
REMARK    3  A    between atoms: C_6  and  C_7
REMARK    4  A    between atoms: C_7  and  C_8
REMARK    5  A    between atoms: C_8  and  N_9
REMARK    6  A    between atoms: C_12  and  N_13
REMARK    7  A    between atoms: N_13  and  C_14
REMARK    8  A    between atoms: C_26  and  O_27
REMARK    9  A    between atoms: O_27  and  C_28
REMARK                            x       y       z     vdW  Elec       q    Type
REMARK                         _______ _______ _______ _____ _____    ______ ____
ROOT
ATOM      1  N   UNL     1      -0.720  10.858  19.782  0.00  0.00    +0.000 N 
ATOM      2  H   UNL     1      -1.056   9.917  19.933  0.00  0.00    +0.000 HD
ENDROOT
BRANCH   1   3
ATOM      3  C   UNL     1      -1.757  11.804  19.814  0.00  0.00    +0.000 A 
ATOM      4  C   UNL     1      -2.243  12.244  21.106  0.00  0.00    +0.000 A 
ATOM      5  C   UNL     1      -1.789  11.838  22.390  0.00  0.00    +0.000 A 
ATOM      6  C   UNL     1      -2.302  12.416  23.555  0.00  0.00    +0.000 A 
ATOM      7  C   UNL     1      -3.209  13.460  23.455  0.00  0.00    +0.000 A 
ATOM      8 CL   UNL     1      -3.762  14.264  24.870  0.00  0.00    +0.000 Cl
ATOM      9  C   UNL     1      -3.729  13.805  22.220  0.00  0.00    +0.000 A 
ATOM     10  C   UNL     1      -3.348  13.106  21.088  0.00  0.00    +0.000 A 
ATOM     11  N   UNL     1      -4.156  13.143  20.037  0.00  0.00    +0.000 NA
ATOM     12  C   UNL     1      -3.850  12.315  19.034  0.00  0.00    +0.000 A 
ATOM     13  C   UNL     1      -4.703  11.282  18.671  0.00  0.00    +0.000 A 
ATOM     14  C   UNL     1      -4.295  10.298  17.757  0.00  0.00    +0.000 A 
ATOM     15  C   UNL     1      -3.150  10.511  17.001  0.00  0.00    +0.000 A 
ATOM     16  C   UNL     1      -2.352  11.568  17.381  0.00  0.00    +0.000 A 
ATOM     17  C   UNL     1      -2.552  12.087  18.671  0.00  0.00    +0.000 A 
BRANCH  15  18
ATOM     18  O   UNL     1      -2.890   9.595  16.032  0.00  0.00    +0.000 OA
ATOM     19  C   UNL     1      -2.887  10.007  14.670  0.00  0.00    +0.000 C 
ENDBRANCH  15  18
ENDBRANCH   1   3
BRANCH   1  23
ATOM     20  N   UNL     1       2.117   9.127  18.674  0.00  0.00    +0.000 NA
ATOM     21  C   UNL     1       1.692  10.424  18.118  0.00  0.00    +0.000 C 
ATOM     22  C   UNL     1       1.552  11.499  19.177  0.00  0.00    +0.000 C 
ATOM     23  C   UNL     1       0.639  11.032  20.301  0.00  0.00    +0.000 C 
ATOM     24  C   UNL     1       1.148   9.724  20.883  0.00  0.00    +0.000 C 
ATOM     25  C   UNL     1       1.283   8.666  19.797  0.00  0.00    +0.000 C 
BRANCH  20  26
ATOM     26  C   UNL     1       2.111   8.096  17.624  0.00  0.00    +0.000 C 
BRANCH  26  27
ATOM     27  C   UNL     1       3.300   7.138  17.736  0.00  0.00    +0.000 C 
BRANCH  27  31
ATOM     28  C   UNL     1       2.009   3.580  19.756  0.00  0.00    +0.000 A 
ATOM     29  C   UNL     1       1.526   3.875  18.482  0.00  0.00    +0.000 A 
ATOM     30  C   UNL     1       1.957   5.010  17.813  0.00  0.00    +0.000 A 
ATOM     31  C   UNL     1       2.883   5.872  18.429  0.00  0.00    +0.000 A 
ATOM     32  C   UNL     1       3.348   5.593  19.708  0.00  0.00    +0.000 A 
ATOM     33  C   UNL     1       2.923   4.444  20.368  0.00  0.00    +0.000 A 
BRANCH  28  35
ATOM     34  C   UNL     1       1.479   2.453  21.758  0.00  0.00    +0.000 C 
ATOM     35  O   UNL     1       1.506   2.451  20.335  0.00  0.00    +0.000 OA
ENDBRANCH  28  35
ENDBRANCH  27  31
ENDBRANCH  26  27
ENDBRANCH  20  26
ENDBRANCH   1  23
TORSDOF 7
ENDMDL
MODEL 3
REMARK VINA RESULT:      -7.5      8.501     10.366
REMARK  Name = 
REMARK  9 active torsions:
REMARK  status: ('A' for Active; 'I' for Inactive)
REMARK    1  A    between atoms: C_1  and  O_2
REMARK    2  A    between atoms: O_2  and  C_3
REMARK    3  A    between atoms: C_6  and  C_7
REMARK    4  A    between atoms: C_7  and  C_8
REMARK    5  A    between atoms: C_8  and  N_9
REMARK    6  A    between atoms: C_12  and  N_13
REMARK    7  A    between atoms: N_13  and  C_14
REMARK    8  A    between atoms: C_26  and  O_27
REMARK    9  A    between atoms: O_27  and  C_28
REMARK                            x       y       z     vdW  Elec       q    Type
REMARK                         _______ _______ _______ _____ _____    ______ ____
ROOT
ATOM      1  N   UNL     1       9.322  13.948  19.858  0.00  0.00    +0.000 N 
ATOM      2  H   UNL     1       8.546  13.302  19.803  0.00  0.00    +0.000 HD
ENDROOT
BRANCH   1   3
ATOM      3  C   UNL     1       9.384  14.600  21.100  0.00  0.00    +0.000 A 
ATOM      4  C   UNL     1       8.793  13.944  22.249  0.00  0.00    +0.000 A 
ATOM      5  C   UNL     1       8.144  12.680  22.289  0.00  0.00    +0.000 A 
ATOM      6  C   UNL     1       7.695  12.135  23.496  0.00  0.00    +0.000 A 
ATOM      7  C   UNL     1       7.959  12.801  24.684  0.00  0.00    +0.000 A 
ATOM      8 CL   UNL     1       7.520  12.094  26.188  0.00  0.00    +0.000 Cl
ATOM      9  C   UNL     1       8.506  14.072  24.654  0.00  0.00    +0.000 A 
ATOM     10  C   UNL     1       8.785  14.678  23.442  0.00  0.00    +0.000 A 
ATOM     11  N   UNL     1       8.875  16.001  23.419  0.00  0.00    +0.000 NA
ATOM     12  C   UNL     1       8.963  16.560  22.208  0.00  0.00    +0.000 A 
ATOM     13  C   UNL     1       7.965  17.400  21.732  0.00  0.00    +0.000 A 
ATOM     14  C   UNL     1       7.958  17.827  20.395  0.00  0.00    +0.000 A 
ATOM     15  C   UNL     1       9.096  17.642  19.622  0.00  0.00    +0.000 A 
ATOM     16  C   UNL     1      10.072  16.826  20.150  0.00  0.00    +0.000 A 
ATOM     17  C   UNL     1       9.694  15.982  21.208  0.00  0.00    +0.000 A 
BRANCH  15  18
ATOM     18  O   UNL     1       9.083  18.207  18.386  0.00  0.00    +0.000 OA
ATOM     19  C   UNL     1      10.236  18.100  17.561  0.00  0.00    +0.000 C 
ENDBRANCH  15  18
ENDBRANCH   1   3
BRANCH   1  23
ATOM     20  N   UNL     1       9.795  10.687  18.671  0.00  0.00    +0.000 NA
ATOM     21  C   UNL     1       9.104  11.735  17.900  0.00  0.00    +0.000 C 
ATOM     22  C   UNL     1       9.950  12.978  17.712  0.00  0.00    +0.000 C 
ATOM     23  C   UNL     1      10.457  13.492  19.052  0.00  0.00    +0.000 C 
ATOM     24  C   UNL     1      11.212  12.396  19.784  0.00  0.00    +0.000 C 
ATOM     25  C   UNL     1      10.340  11.160  19.954  0.00  0.00    +0.000 C 
BRANCH  20  26
ATOM     26  C   UNL     1       8.882   9.561  18.931  0.00  0.00    +0.000 C 
BRANCH  26  27
ATOM     27  C   UNL     1       8.201   9.052  17.657  0.00  0.00    +0.000 C 
BRANCH  27  31
ATOM     28  C   UNL     1       6.514   5.175  18.385  0.00  0.00    +0.000 A 
ATOM     29  C   UNL     1       5.924   6.031  17.457  0.00  0.00    +0.000 A 
ATOM     30  C   UNL     1       6.477   7.276  17.198  0.00  0.00    +0.000 A 
ATOM     31  C   UNL     1       7.638   7.678  17.884  0.00  0.00    +0.000 A 
ATOM     32  C   UNL     1       8.215   6.837  18.827  0.00  0.00    +0.000 A 
ATOM     33  C   UNL     1       7.663   5.583  19.071  0.00  0.00    +0.000 A 
BRANCH  28  35
ATOM     34  C   UNL     1       4.638   3.832  17.902  0.00  0.00    +0.000 C 
ATOM     35  O   UNL     1       5.879   3.983  18.581  0.00  0.00    +0.000 OA
ENDBRANCH  28  35
ENDBRANCH  27  31
ENDBRANCH  26  27
ENDBRANCH  20  26
ENDBRANCH   1  23
TORSDOF 7
ENDMDL
MODEL 4
REMARK VINA RESULT:      -7.5      3.137      5.417
REMARK  Name = 
REMARK  9 active torsions:
REMARK  status: ('A' for Active; 'I' for Inactive)
REMARK    1  A    between atoms: C_1  and  O_2
REMARK    2  A    between atoms: O_2  and  C_3
REMARK    3  A    between atoms: C_6  and  C_7
REMARK    4  A    between atoms: C_7  and  C_8
REMARK    5  A    between atoms: C_8  and  N_9
REMARK    6  A    between atoms: C_12  and  N_13
REMARK    7  A    between atoms: N_13  and  C_14
REMARK    8  A    between atoms: C_26  and  O_27
REMARK    9  A    between atoms: O_27  and  C_28
REMARK                            x       y       z     vdW  Elec       q    Type
REMARK                         _______ _______ _______ _____ _____    ______ ____
ROOT
ATOM      1  N   UNL     1      -2.535  13.471  21.138  0.00  0.00    +0.000 N 
ATOM      2  H   UNL     1      -1.830  13.739  20.465  0.00  0.00    +0.000 HD
ENDROOT
BRANCH   1   3
ATOM      3  C   UNL     1      -3.584  12.749  20.549  0.00  0.00    +0.000 A 
ATOM      4  C   UNL     1      -3.352  12.131  19.259  0.00  0.00    +0.000 A 
ATOM      5  C   UNL     1      -2.158  12.151  18.488  0.00  0.00    +0.000 A 
ATOM      6  C   UNL     1      -2.056  11.433  17.293  0.00  0.00    +0.000 A 
ATOM      7  C   UNL     1      -3.108  10.623  16.893  0.00  0.00    +0.000 A 
ATOM      8 CL   UNL     1      -2.959   9.642  15.490  0.00  0.00    +0.000 Cl
ATOM      9  C   UNL     1      -4.309  10.663  17.581  0.00  0.00    +0.000 A 
ATOM     10  C   UNL     1      -4.459  11.512  18.663  0.00  0.00    +0.000 A 
ATOM     11  N   UNL     1      -5.691  11.859  19.010  0.00  0.00    +0.000 NA
ATOM     12  C   UNL     1      -5.791  12.818  19.935  0.00  0.00    +0.000 A 
ATOM     13  C   UNL     1      -6.367  14.045  19.637  0.00  0.00    +0.000 A 
ATOM     14  C   UNL     1      -6.295  15.115  20.542  0.00  0.00    +0.000 A 
ATOM     15  C   UNL     1      -5.896  14.867  21.849  0.00  0.00    +0.000 A 
ATOM     16  C   UNL     1      -5.359  13.624  22.103  0.00  0.00    +0.000 A 
ATOM     17  C   UNL     1      -4.928  12.878  20.994  0.00  0.00    +0.000 A 
BRANCH  15  18
ATOM     18  O   UNL     1      -5.988  15.911  22.714  0.00  0.00    +0.000 OA
ATOM     19  C   UNL     1      -4.809  16.626  23.067  0.00  0.00    +0.000 C 
ENDBRANCH  15  18
ENDBRANCH   1   3
BRANCH   1  23
ATOM     20  N   UNL     1       0.496  11.835  21.774  0.00  0.00    +0.000 NA
ATOM     21  C   UNL     1       0.388  13.293  21.589  0.00  0.00    +0.000 C 
ATOM     22  C   UNL     1      -0.598  13.933  22.545  0.00  0.00    +0.000 C 
ATOM     23  C   UNL     1      -1.953  13.243  22.463  0.00  0.00    +0.000 C 
ATOM     24  C   UNL     1      -1.800  11.753  22.718  0.00  0.00    +0.000 C 
ATOM     25  C   UNL     1      -0.800  11.139  21.748  0.00  0.00    +0.000 C 
BRANCH  20  26
ATOM     26  C   UNL     1       1.367  11.254  20.738  0.00  0.00    +0.000 C 
BRANCH  26  27
ATOM     27  C   UNL     1       0.578  10.499  19.665  0.00  0.00    +0.000 C 
BRANCH  27  31
ATOM     28  C   UNL     1       2.610   6.821  18.797  0.00  0.00    +0.000 A 
ATOM     29  C   UNL     1       2.140   7.073  20.085  0.00  0.00    +0.000 A 
ATOM     30  C   UNL     1       1.461   8.248  20.367  0.00  0.00    +0.000 A 
ATOM     31  C   UNL     1       1.253   9.194  19.347  0.00  0.00    +0.000 A 
ATOM     32  C   UNL     1       1.741   8.957  18.068  0.00  0.00    +0.000 A 
ATOM     33  C   UNL     1       2.409   7.769  17.788  0.00  0.00    +0.000 A 
BRANCH  28  35
ATOM     34  C   UNL     1       4.486   5.517  19.379  0.00  0.00    +0.000 C 
ATOM     35  O   UNL     1       3.283   5.645  18.630  0.00  0.00    +0.000 OA
ENDBRANCH  28  35
ENDBRANCH  27  31
ENDBRANCH  26  27
ENDBRANCH  20  26
ENDBRANCH   1  23
TORSDOF 7
ENDMDL
MODEL 5
REMARK VINA RESULT:      -7.4      3.048      4.896
REMARK  Name = 
REMARK  9 active torsions:
REMARK  status: ('A' for Active; 'I' for Inactive)
REMARK    1  A    between atoms: C_1  and  O_2
REMARK    2  A    between atoms: O_2  and  C_3
REMARK    3  A    between atoms: C_6  and  C_7
REMARK    4  A    between atoms: C_7  and  C_8
REMARK    5  A    between atoms: C_8  and  N_9
REMARK    6  A    between atoms: C_12  and  N_13
REMARK    7  A    between atoms: N_13  and  C_14
REMARK    8  A    between atoms: C_26  and  O_27
REMARK    9  A    between atoms: O_27  and  C_28
REMARK                            x       y       z     vdW  Elec       q    Type
REMARK                         _______ _______ _______ _____ _____    ______ ____
ROOT
ATOM      1  N   UNL     1      -1.463  12.736  20.410  0.00  0.00    +0.000 N 
ATOM      2  H   UNL     1      -0.947  13.096  19.618  0.00  0.00    +0.000 HD
ENDROOT
BRANCH   1   3
ATOM      3  C   UNL     1      -2.738  12.274  20.047  0.00  0.00    +0.000 A 
ATOM      4  C   UNL     1      -2.948  11.845  18.679  0.00  0.00    +0.000 A 
ATOM      5  C   UNL     1      -2.000  11.821  17.621  0.00  0.00    +0.000 A 
ATOM      6  C   UNL     1      -2.328  11.297  16.366  0.00  0.00    +0.000 A 
ATOM      7  C   UNL     1      -3.574  10.718  16.175  0.00  0.00    +0.000 A 
ATOM      8 CL   UNL     1      -3.957   9.965  14.679  0.00  0.00    +0.000 Cl
ATOM      9  C   UNL     1      -4.538  10.816  17.163  0.00  0.00    +0.000 A 
ATOM     10  C   UNL     1      -4.261  11.493  18.338  0.00  0.00    +0.000 A 
ATOM     11  N   UNL     1      -5.286  11.950  19.045  0.00  0.00    +0.000 NA
ATOM     12  C   UNL     1      -4.979  12.752  20.069  0.00  0.00    +0.000 A 
ATOM     13  C   UNL     1      -5.383  14.079  20.086  0.00  0.00    +0.000 A 
ATOM     14  C   UNL     1      -4.897  14.969  21.057  0.00  0.00    +0.000 A 
ATOM     15  C   UNL     1      -4.237  14.460  22.168  0.00  0.00    +0.000 A 
ATOM     16  C   UNL     1      -3.884  13.130  22.117  0.00  0.00    +0.000 A 
ATOM     17  C   UNL     1      -3.883  12.518  20.852  0.00  0.00    +0.000 A 
BRANCH  15  18
ATOM     18  O   UNL     1      -3.922  15.354  23.142  0.00  0.00    +0.000 OA
ATOM     19  C   UNL     1      -4.747  16.498  23.328  0.00  0.00    +0.000 C 
ENDBRANCH  15  18
ENDBRANCH   1   3
BRANCH   1  23
ATOM     20  N   UNL     1       1.333  10.745  19.712  0.00  0.00    +0.000 NA
ATOM     21  C   UNL     1       1.403  12.208  19.875  0.00  0.00    +0.000 C 
ATOM     22  C   UNL     1       0.841  12.677  21.203  0.00  0.00    +0.000 C 
ATOM     23  C   UNL     1      -0.570  12.144  21.409  0.00  0.00    +0.000 C 
ATOM     24  C   UNL     1      -0.583  10.629  21.289  0.00  0.00    +0.000 C 
ATOM     25  C   UNL     1      -0.009  10.188  19.951  0.00  0.00    +0.000 C 
BRANCH  20  26
ATOM     26  C   UNL     1       1.771  10.363  18.360  0.00  0.00    +0.000 C 
BRANCH  26  27
ATOM     27  C   UNL     1       1.251   8.984  17.943  0.00  0.00    +0.000 C 
BRANCH  27  31
ATOM     28  C   UNL     1       4.090   5.885  18.806  0.00  0.00    +0.000 A 
ATOM     29  C   UNL     1       4.215   6.642  17.642  0.00  0.00    +0.000 A 
ATOM     30  C   UNL     1       3.315   7.662  17.368  0.00  0.00    +0.000 A 
ATOM     31  C   UNL     1       2.267   7.926  18.269  0.00  0.00    +0.000 A 
ATOM     32  C   UNL     1       2.127   7.158  19.418  0.00  0.00    +0.000 A 
ATOM     33  C   UNL     1       3.042   6.146  19.694  0.00  0.00    +0.000 A 
BRANCH  28  35
ATOM     34  C   UNL     1       4.508   3.566  18.884  0.00  0.00    +0.000 C 
ATOM     35  O   UNL     1       5.014   4.893  18.970  0.00  0.00    +0.000 OA
ENDBRANCH  28  35
ENDBRANCH  27  31
ENDBRANCH  26  27
ENDBRANCH  20  26
ENDBRANCH   1  23
TORSDOF 7
ENDMDL
MODEL 6
REMARK VINA RESULT:      -7.4      3.000      4.854
REMARK  Name = 
REMARK  9 active torsions:
REMARK  status: ('A' for Active; 'I' for Inactive)
REMARK    1  A    between atoms: C_1  and  O_2
REMARK    2  A    between atoms: O_2  and  C_3
REMARK    3  A    between atoms: C_6  and  C_7
REMARK    4  A    between atoms: C_7  and  C_8
REMARK    5  A    between atoms: C_8  and  N_9
REMARK    6  A    between atoms: C_12  and  N_13
REMARK    7  A    between atoms: N_13  and  C_14
REMARK    8  A    between atoms: C_26  and  O_27
REMARK    9  A    between atoms: O_27  and  C_28
REMARK                            x       y       z     vdW  Elec       q    Type
REMARK                         _______ _______ _______ _____ _____    ______ ____
ROOT
ATOM      1  N   UNL     1      -1.190  12.716  20.351  0.00  0.00    +0.000 N 
ATOM      2  H   UNL     1      -0.723  13.085  19.534  0.00  0.00    +0.000 HD
ENDROOT
BRANCH   1   3
ATOM      3  C   UNL     1      -2.486  12.261  20.064  0.00  0.00    +0.000 A 
ATOM      4  C   UNL     1      -2.780  11.840  18.708  0.00  0.00    +0.000 A 
ATOM      5  C   UNL     1      -1.897  11.817  17.595  0.00  0.00    +0.000 A 
ATOM      6  C   UNL     1      -2.303  11.301  16.360  0.00  0.00    +0.000 A 
ATOM      7  C   UNL     1      -3.561  10.729  16.241  0.00  0.00    +0.000 A 
ATOM      8 CL   UNL     1      -4.036   9.985  14.767  0.00  0.00    +0.000 Cl
ATOM      9  C   UNL     1      -4.463  10.825  17.286  0.00  0.00    +0.000 A 
ATOM     10  C   UNL     1      -4.112  11.495  18.445  0.00  0.00    +0.000 A 
ATOM     11  N   UNL     1      -5.091  11.953  19.215  0.00  0.00    +0.000 NA
ATOM     12  C   UNL     1      -4.719  12.748  20.222  0.00  0.00    +0.000 A 
ATOM     13  C   UNL     1      -5.115  14.078  20.270  0.00  0.00    +0.000 A 
ATOM     14  C   UNL     1      -4.568  14.960  21.214  0.00  0.00    +0.000 A 
ATOM     15  C   UNL     1      -3.845  14.443  22.281  0.00  0.00    +0.000 A 
ATOM     16  C   UNL     1      -3.502  13.111  22.202  0.00  0.00    +0.000 A 
ATOM     17  C   UNL     1      -3.579  12.506  20.937  0.00  0.00    +0.000 A 
BRANCH  15  18
ATOM     18  O   UNL     1      -3.468  15.330  23.238  0.00  0.00    +0.000 OA
ATOM     19  C   UNL     1      -3.398  14.902  24.593  0.00  0.00    +0.000 C 
ENDBRANCH  15  18
ENDBRANCH   1   3
BRANCH   1  23
ATOM     20  N   UNL     1       0.957  10.047  19.616  0.00  0.00    +0.000 NA
ATOM     21  C   UNL     1       1.341  11.461  19.457  0.00  0.00    +0.000 C 
ATOM     22  C   UNL     1       1.174  12.260  20.734  0.00  0.00    +0.000 C 
ATOM     23  C   UNL     1      -0.237  12.109  21.284  0.00  0.00    +0.000 C 
ATOM     24  C   UNL     1      -0.567  10.639  21.486  0.00  0.00    +0.000 C 
ATOM     25  C   UNL     1      -0.386   9.862  20.190  0.00  0.00    +0.000 C 
BRANCH  20  26
ATOM     26  C   UNL     1       1.017   9.354  18.318  0.00  0.00    +0.000 C 
BRANCH  26  27
ATOM     27  C   UNL     1       2.454   9.113  17.848  0.00  0.00    +0.000 C 
BRANCH  27  31
ATOM     28  C   UNL     1       3.701   5.113  18.768  0.00  0.00    +0.000 A 
ATOM     29  C   UNL     1       2.690   5.718  19.512  0.00  0.00    +0.000 A 
ATOM     30  C   UNL     1       2.264   7.002  19.205  0.00  0.00    +0.000 A 
ATOM     31  C   UNL     1       2.864   7.698  18.140  0.00  0.00    +0.000 A 
ATOM     32  C   UNL     1       3.889   7.106  17.411  0.00  0.00    +0.000 A 
ATOM     33  C   UNL     1       4.301   5.812  17.715  0.00  0.00    +0.000 A 
BRANCH  28  35
ATOM     34  C   UNL     1       3.241   3.277  20.173  0.00  0.00    +0.000 C 
ATOM     35  O   UNL     1       4.060   3.857  19.165  0.00  0.00    +0.000 OA
ENDBRANCH  28  35
ENDBRANCH  27  31
ENDBRANCH  26  27
ENDBRANCH  20  26
ENDBRANCH   1  23
TORSDOF 7
ENDMDL
MODEL 7
REMARK VINA RESULT:      -7.3      1.997      2.743
REMARK  Name = 
REMARK  9 active torsions:
REMARK  status: ('A' for Active; 'I' for Inactive)
REMARK    1  A    between atoms: C_1  and  O_2
REMARK    2  A    between atoms: O_2  and  C_3
REMARK    3  A    between atoms: C_6  and  C_7
REMARK    4  A    between atoms: C_7  and  C_8
REMARK    5  A    between atoms: C_8  and  N_9
REMARK    6  A    between atoms: C_12  and  N_13
REMARK    7  A    between atoms: N_13  and  C_14
REMARK    8  A    between atoms: C_26  and  O_27
REMARK    9  A    between atoms: O_27  and  C_28
REMARK                            x       y       z     vdW  Elec       q    Type
REMARK                         _______ _______ _______ _____ _____    ______ ____
ROOT
ATOM      1  N   UNL     1      -2.029  11.473  21.142  0.00  0.00    +0.000 N 
ATOM      2  H   UNL     1      -2.380  10.553  21.370  0.00  0.00    +0.000 HD
ENDROOT
BRANCH   1   3
ATOM      3  C   UNL     1      -3.037  12.320  20.655  0.00  0.00    +0.000 A 
ATOM      4  C   UNL     1      -4.037  12.801  21.587  0.00  0.00    +0.000 A 
ATOM      5  C   UNL     1      -4.132  12.527  22.978  0.00  0.00    +0.000 A 
ATOM      6  C   UNL     1      -5.111  13.135  23.770  0.00  0.00    +0.000 A 
ATOM      7  C   UNL     1      -5.952  14.082  23.206  0.00  0.00    +0.000 A 
ATOM      8 CL   UNL     1      -7.084  14.926  24.186  0.00  0.00    +0.000 Cl
ATOM      9  C   UNL     1      -5.934  14.293  21.838  0.00  0.00    +0.000 A 
ATOM     10  C   UNL     1      -5.081  13.556  21.035  0.00  0.00    +0.000 A 
ATOM     11  N   UNL     1      -5.384  13.447  19.749  0.00  0.00    +0.000 NA
ATOM     12  C   UNL     1      -4.645  12.583  19.045  0.00  0.00    +0.000 A 
ATOM     13  C   UNL     1      -5.214  11.454  18.472  0.00  0.00    +0.000 A 
ATOM     14  C   UNL     1      -4.412  10.451  17.906  0.00  0.00    +0.000 A 
ATOM     15  C   UNL     1      -3.071  10.716  17.664  0.00  0.00    +0.000 A 
ATOM     16  C   UNL     1      -2.560  11.865  18.227  0.00  0.00    +0.000 A 
ATOM     17  C   UNL     1      -3.303  12.450  19.266  0.00  0.00    +0.000 A 
BRANCH  15  18
ATOM     18  O   UNL     1      -2.383   9.764  16.981  0.00  0.00    +0.000 OA
ATOM     19  C   UNL     1      -2.585   9.633  15.578  0.00  0.00    +0.000 C 
ENDBRANCH  15  18
ENDBRANCH   1   3
BRANCH   1  23
ATOM     20  N   UNL     1       0.814   9.525  21.765  0.00  0.00    +0.000 NA
ATOM     21  C   UNL     1       0.741  10.526  20.686  0.00  0.00    +0.000 C 
ATOM     22  C   UNL     1       0.369  11.906  21.192  0.00  0.00    +0.000 C 
ATOM     23  C   UNL     1      -0.913  11.852  22.011  0.00  0.00    +0.000 C 
ATOM     24  C   UNL     1      -0.770  10.850  23.145  0.00  0.00    +0.000 C 
ATOM     25  C   UNL     1      -0.391   9.477  22.608  0.00  0.00    +0.000 C 
BRANCH  20  26
ATOM     26  C   UNL     1       1.052   8.186  21.201  0.00  0.00    +0.000 C 
BRANCH  26  27
ATOM     27  C   UNL     1       1.794   8.236  19.862  0.00  0.00    +0.000 C 
BRANCH  27  31
ATOM     28  C   UNL     1       3.209   4.324  18.813  0.00  0.00    +0.000 A 
ATOM     29  C   UNL     1       2.542   4.526  20.021  0.00  0.00    +0.000 A 
ATOM     30  C   UNL     1       2.060   5.782  20.356  0.00  0.00    +0.000 A 
ATOM     31  C   UNL     1       2.254   6.860  19.473  0.00  0.00    +0.000 A 
ATOM     32  C   UNL     1       2.939   6.668  18.279  0.00  0.00    +0.000 A 
ATOM     33  C   UNL     1       3.407   5.401  17.942  0.00  0.00    +0.000 A 
BRANCH  28  35
ATOM     34  C   UNL     1       4.180   2.381  19.729  0.00  0.00    +0.000 C 
ATOM     35  O   UNL     1       3.661   3.056  18.589  0.00  0.00    +0.000 OA
ENDBRANCH  28  35
ENDBRANCH  27  31
ENDBRANCH  26  27
ENDBRANCH  20  26
ENDBRANCH   1  23
TORSDOF 7
ENDMDL
MODEL 8
REMARK VINA RESULT:      -7.3      1.353      1.743
REMARK  Name = 
REMARK  9 active torsions:
REMARK  status: ('A' for Active; 'I' for Inactive)
REMARK    1  A    between atoms: C_1  and  O_2
REMARK    2  A    between atoms: O_2  and  C_3
REMARK    3  A    between atoms: C_6  and  C_7
REMARK    4  A    between atoms: C_7  and  C_8
REMARK    5  A    between atoms: C_8  and  N_9
REMARK    6  A    between atoms: C_12  and  N_13
REMARK    7  A    between atoms: N_13  and  C_14
REMARK    8  A    between atoms: C_26  and  O_27
REMARK    9  A    between atoms: O_27  and  C_28
REMARK                            x       y       z     vdW  Elec       q    Type
REMARK                         _______ _______ _______ _____ _____    ______ ____
ROOT
ATOM      1  N   UNL     1      -0.782  11.149  19.500  0.00  0.00    +0.000 N 
ATOM      2  H   UNL     1      -1.034  10.171  19.462  0.00  0.00    +0.000 HD
ENDROOT
BRANCH   1   3
ATOM      3  C   UNL     1      -1.903  11.983  19.629  0.00  0.00    +0.000 A 
ATOM      4  C   UNL     1      -2.331  12.354  20.963  0.00  0.00    +0.000 A 
ATOM      5  C   UNL     1      -1.739  11.982  22.200  0.00  0.00    +0.000 A 
ATOM      6  C   UNL     1      -2.215  12.491  23.413  0.00  0.00    +0.000 A 
ATOM      7  C   UNL     1      -3.230  13.437  23.403  0.00  0.00    +0.000 A 
ATOM      8 CL   UNL     1      -3.750  14.162  24.871  0.00  0.00    +0.000 Cl
ATOM      9  C   UNL     1      -3.877  13.741  22.217  0.00  0.00    +0.000 A 
ATOM     10  C   UNL     1      -3.515  13.099  21.046  0.00  0.00    +0.000 A 
ATOM     11  N   UNL     1      -4.402  13.064  20.061  0.00  0.00    +0.000 NA
ATOM     12  C   UNL     1      -4.092  12.284  19.021  0.00  0.00    +0.000 A 
ATOM     13  C   UNL     1      -4.861  11.172  18.704  0.00  0.00    +0.000 A 
ATOM     14  C   UNL     1      -4.428  10.247  17.742  0.00  0.00    +0.000 A 
ATOM     15  C   UNL     1      -3.373  10.586  16.906  0.00  0.00    +0.000 A 
ATOM     16  C   UNL     1      -2.659  11.714  17.244  0.00  0.00    +0.000 A 
ATOM     17  C   UNL     1      -2.810  12.195  18.556  0.00  0.00    +0.000 A 
BRANCH  15  18
ATOM     18  O   UNL     1      -3.096   9.713  15.902  0.00  0.00    +0.000 OA
ATOM     19  C   UNL     1      -3.243  10.138  14.552  0.00  0.00    +0.000 C 
ENDBRANCH  15  18
ENDBRANCH   1   3
BRANCH   1  23
ATOM     20  N   UNL     1       2.121   9.338  18.747  0.00  0.00    +0.000 NA
ATOM     21  C   UNL     1       1.763  10.605  18.084  0.00  0.00    +0.000 C 
ATOM     22  C   UNL     1       1.543  11.738  19.066  0.00  0.00    +0.000 C 
ATOM     23  C   UNL     1       0.528  11.341  20.128  0.00  0.00    +0.000 C 
ATOM     24  C   UNL     1       0.967  10.064  20.824  0.00  0.00    +0.000 C 
ATOM     25  C   UNL     1       1.185   8.946  19.814  0.00  0.00    +0.000 C 
BRANCH  20  26
ATOM     26  C   UNL     1       2.195   8.250  17.758  0.00  0.00    +0.000 C 
BRANCH  26  27
ATOM     27  C   UNL     1       3.551   7.538  17.771  0.00  0.00    +0.000 C 
BRANCH  27  31
ATOM     28  C   UNL     1       2.993   3.286  17.881  0.00  0.00    +0.000 A 
ATOM     29  C   UNL     1       1.898   4.138  18.012  0.00  0.00    +0.000 A 
ATOM     30  C   UNL     1       2.067   5.513  17.953  0.00  0.00    +0.000 A 
ATOM     31  C   UNL     1       3.354   6.049  17.767  0.00  0.00    +0.000 A 
ATOM     32  C   UNL     1       4.451   5.202  17.660  0.00  0.00    +0.000 A 
ATOM     33  C   UNL     1       4.273   3.823  17.705  0.00  0.00    +0.000 A 
BRANCH  28  35
ATOM     34  C   UNL     1       3.787   1.142  18.458  0.00  0.00    +0.000 C 
ATOM     35  O   UNL     1       2.721   1.951  17.975  0.00  0.00    +0.000 OA
ENDBRANCH  28  35
ENDBRANCH  27  31
ENDBRANCH  26  27
ENDBRANCH  20  26
ENDBRANCH   1  23
TORSDOF 7
ENDMDL
MODEL 9
REMARK VINA RESULT:      -7.3      8.488      9.878
REMARK  Name = 
REMARK  9 active torsions:
REMARK  status: ('A' for Active; 'I' for Inactive)
REMARK    1  A    between atoms: C_1  and  O_2
REMARK    2  A    between atoms: O_2  and  C_3
REMARK    3  A    between atoms: C_6  and  C_7
REMARK    4  A    between atoms: C_7  and  C_8
REMARK    5  A    between atoms: C_8  and  N_9
REMARK    6  A    between atoms: C_12  and  N_13
REMARK    7  A    between atoms: N_13  and  C_14
REMARK    8  A    between atoms: C_26  and  O_27
REMARK    9  A    between atoms: O_27  and  C_28
REMARK                            x       y       z     vdW  Elec       q    Type
REMARK                         _______ _______ _______ _____ _____    ______ ____
ROOT
ATOM      1  N   UNL     1       9.021  13.220  20.560  0.00  0.00    +0.000 N 
ATOM      2  H   UNL     1       8.470  12.376  20.634  0.00  0.00    +0.000 HD
ENDROOT
BRANCH   1   3
ATOM      3  C   UNL     1       8.980  13.988  21.734  0.00  0.00    +0.000 A 
ATOM      4  C   UNL     1       8.417  13.386  22.926  0.00  0.00    +0.000 A 
ATOM      5  C   UNL     1       7.892  12.074  23.073  0.00  0.00    +0.000 A 
ATOM      6  C   UNL     1       7.457  11.602  24.316  0.00  0.00    +0.000 A 
ATOM      7  C   UNL     1       7.616  12.399  25.440  0.00  0.00    +0.000 A 
ATOM      8 CL   UNL     1       7.199  11.796  26.993  0.00  0.00    +0.000 Cl
ATOM      9  C   UNL     1       8.040  13.710  25.301  0.00  0.00    +0.000 A 
ATOM     10  C   UNL     1       8.299  14.225  24.043  0.00  0.00    +0.000 A 
ATOM     11  N   UNL     1       8.262  15.542  23.895  0.00  0.00    +0.000 NA
ATOM     12  C   UNL     1       8.335  15.992  22.638  0.00  0.00    +0.000 A 
ATOM     13  C   UNL     1       7.277  16.681  22.061  0.00  0.00    +0.000 A 
ATOM     14  C   UNL     1       7.274  16.978  20.689  0.00  0.00    +0.000 A 
ATOM     15  C   UNL     1       8.449  16.836  19.965  0.00  0.00    +0.000 A 
ATOM     16  C   UNL     1       9.481  16.173  20.592  0.00  0.00    +0.000 A 
ATOM     17  C   UNL     1       9.151  15.398  21.716  0.00  0.00    +0.000 A 
BRANCH  15  18
ATOM     18  O   UNL     1       8.422  17.279  18.680  0.00  0.00    +0.000 OA
ATOM     19  C   UNL     1       9.637  17.347  17.943  0.00  0.00    +0.000 C 
ENDBRANCH  15  18
ENDBRANCH   1   3
BRANCH   1  23
ATOM     20  N   UNL     1       9.351  10.698  18.152  0.00  0.00    +0.000 NA
ATOM     21  C   UNL     1       8.792  12.029  17.857  0.00  0.00    +0.000 C 
ATOM     22  C   UNL     1       9.735  13.156  18.230  0.00  0.00    +0.000 C 
ATOM     23  C   UNL     1      10.177  13.029  19.680  0.00  0.00    +0.000 C 
ATOM     24  C   UNL     1      10.799  11.664  19.923  0.00  0.00    +0.000 C 
ATOM     25  C   UNL     1       9.833  10.554  19.535  0.00  0.00    +0.000 C 
BRANCH  20  26
ATOM     26  C   UNL     1       8.346   9.655  17.890  0.00  0.00    +0.000 C 
BRANCH  26  27
ATOM     27  C   UNL     1       8.536   8.421  18.776  0.00  0.00    +0.000 C 
BRANCH  27  31
ATOM     28  C   UNL     1       6.370   5.085  17.167  0.00  0.00    +0.000 A 
ATOM     29  C   UNL     1       6.193   6.359  16.628  0.00  0.00    +0.000 A 
ATOM     30  C   UNL     1       6.908   7.437  17.127  0.00  0.00    +0.000 A 
ATOM     31  C   UNL     1       7.811   7.243  18.188  0.00  0.00    +0.000 A 
ATOM     32  C   UNL     1       7.972   5.979  18.742  0.00  0.00    +0.000 A 
ATOM     33  C   UNL     1       7.263   4.899  18.227  0.00  0.00    +0.000 A 
BRANCH  28  35
ATOM     34  C   UNL     1       5.973   3.695  15.304  0.00  0.00    +0.000 C 
ATOM     35  O   UNL     1       5.604   4.097  16.618  0.00  0.00    +0.000 OA
ENDBRANCH  28  35
ENDBRANCH  27  31
ENDBRANCH  26  27
ENDBRANCH  20  26
ENDBRANCH   1  23
TORSDOF 7
ENDMDL
