MODEL 1
REMARK VINA RESULT:      -7.5      0.000      0.000
REMARK  Name = 
REMARK  6 active torsions:
REMARK  status: ('A' for Active; 'I' for Inactive)
REMARK    1  A    between atoms: C_1  and  O_2
REMARK    2  A    between atoms: O_2  and  C_3
REMARK    3  A    between atoms: C_13  and  C_14
REMARK    4  A    between atoms: C_15  and  C_16
REMARK    5  A    between atoms: N_18  and  C_19
REMARK    6  A    between atoms: C_19  and  C_20
REMARK                            x       y       z     vdW  Elec       q    Type
REMARK                         _______ _______ _______ _____ _____    ______ ____
ROOT
ATOM      1  C   UNL     1       6.428   5.091  18.657  0.00  0.00    +0.000 A 
ATOM      2  N   UNL     1       5.495   4.258  19.191  0.00  0.00    +0.000 NA
ATOM      3  C   UNL     1       4.191   4.476  18.949  0.00  0.00    +0.000 A 
ATOM      4  N   UNL     1       3.264   3.589  19.448  0.00  0.00    +0.000 N 
ATOM      5  C   UNL     1       1.896   3.981  19.813  0.00  0.00    +0.000 C 
ATOM      6  C   UNL     1       1.665   3.800  21.322  0.00  0.00    +0.000 C 
ATOM      7  O   UNL     1       1.999   2.475  21.760  0.00  0.00    +0.000 OA
ATOM      8  C   UNL     1       3.387   2.205  21.495  0.00  0.00    +0.000 C 
ATOM      9  C   UNL     1       3.697   2.295  19.995  0.00  0.00    +0.000 C 
ATOM     10  C   UNL     1       3.820   5.560  18.163  0.00  0.00    +0.000 A 
ATOM     11  C   UNL     1       4.771   6.441  17.611  0.00  0.00    +0.000 A 
ATOM     12  C   UNL     1       4.250   7.585  16.785  0.00  0.00    +0.000 C 
ATOM     13  C   UNL     1       6.136   6.184  17.837  0.00  0.00    +0.000 A 
ENDROOT
BRANCH  13  14
ATOM     14  C   UNL     1       7.214   7.037  17.225  0.00  0.00    +0.000 C 
ATOM     15  O   UNL     1       7.821   6.662  16.229  0.00  0.00    +0.000 OA
ATOM     16  N   UNL     1       7.504   8.234  17.851  0.00  0.00    +0.000 N 
ATOM     17  H   UNL     1       6.857   8.574  18.554  0.00  0.00    +0.000 HD
BRANCH  16  18
ATOM     18  C   UNL     1       8.443   9.195  17.305  0.00  0.00    +0.000 C 
BRANCH  18  19
ATOM     19  C   UNL     1       8.790  10.262  18.316  0.00  0.00    +0.000 A 
ATOM     20  C   UNL     1       9.123   9.906  19.634  0.00  0.00    +0.000 A 
ATOM     21  C   UNL     1       9.453  10.882  20.581  0.00  0.00    +0.000 A 
ATOM     22  C   UNL     1       9.462  12.225  20.219  0.00  0.00    +0.000 A 
ATOM     23  C   UNL     1       9.149  12.584  18.915  0.00  0.00    +0.000 A 
ATOM     24  F   UNL     1       9.169  13.876  18.564  0.00  0.00    +0.000 F 
ATOM     25  C   UNL     1       8.816  11.619  17.963  0.00  0.00    +0.000 A 
ENDBRANCH  18  19
ENDBRANCH  16  18
ENDBRANCH  13  14
BRANCH   1  27
ATOM     26  C   UNL     1       8.209   5.459  20.141  0.00  0.00    +0.000 C 
ATOM     27  O   UNL     1       7.753   4.815  18.953  0.00  0.00    +0.000 OA
ENDBRANCH   1  27
TORSDOF 4
ENDMDL
MODEL 2
REMARK VINA RESULT:      -7.4      7.622      9.892
REMARK  Name = 
REMARK  6 active torsions:
REMARK  status: ('A' for Active; 'I' for Inactive)
REMARK    1  A    between atoms: C_1  and  O_2
REMARK    2  A    between atoms: O_2  and  C_3
REMARK    3  A    between atoms: C_13  and  C_14
REMARK    4  A    between atoms: C_15  and  C_16
REMARK    5  A    between atoms: N_18  and  C_19
REMARK    6  A    between atoms: C_19  and  C_20
REMARK                            x       y       z     vdW  Elec       q    Type
REMARK                         _______ _______ _______ _____ _____    ______ ____
ROOT
ATOM      1  C   UNL     1       0.393  10.594  20.970  0.00  0.00    +0.000 A 
ATOM      2  N   UNL     1      -0.557  11.372  21.553  0.00  0.00    +0.000 NA
ATOM      3  C   UNL     1      -1.645  11.735  20.851  0.00  0.00    +0.000 A 
ATOM      4  N   UNL     1      -2.625  12.473  21.476  0.00  0.00    +0.000 N 
ATOM      5  C   UNL     1      -3.485  13.428  20.764  0.00  0.00    +0.000 C 
ATOM      6  C   UNL     1      -3.238  14.859  21.267  0.00  0.00    +0.000 C 
ATOM      7  O   UNL     1      -3.363  14.954  22.694  0.00  0.00    +0.000 OA
ATOM      8  C   UNL     1      -2.401  14.095  23.330  0.00  0.00    +0.000 C 
ATOM      9  C   UNL     1      -2.617  12.628  22.938  0.00  0.00    +0.000 C 
ATOM     10  C   UNL     1      -1.772  11.314  19.533  0.00  0.00    +0.000 A 
ATOM     11  C   UNL     1      -0.791  10.518  18.907  0.00  0.00    +0.000 A 
ATOM     12  C   UNL     1      -1.033  10.132  17.473  0.00  0.00    +0.000 C 
ATOM     13  C   UNL     1       0.325  10.110  19.660  0.00  0.00    +0.000 A 
ENDROOT
BRANCH  13  14
ATOM     14  C   UNL     1       1.379   9.203  19.086  0.00  0.00    +0.000 C 
ATOM     15  O   UNL     1       2.056   9.556  18.128  0.00  0.00    +0.000 OA
ATOM     16  N   UNL     1       1.525   7.957  19.666  0.00  0.00    +0.000 N 
ATOM     17  H   UNL     1       1.072   7.791  20.558  0.00  0.00    +0.000 HD
BRANCH  16  18
ATOM     18  C   UNL     1       2.573   7.033  19.280  0.00  0.00    +0.000 C 
BRANCH  18  19
ATOM     19  C   UNL     1       2.072   5.608  19.263  0.00  0.00    +0.000 A 
ATOM     20  C   UNL     1       1.991   4.901  18.052  0.00  0.00    +0.000 A 
ATOM     21  C   UNL     1       1.535   3.578  18.020  0.00  0.00    +0.000 A 
ATOM     22  C   UNL     1       1.160   2.945  19.201  0.00  0.00    +0.000 A 
ATOM     23  C   UNL     1       1.250   3.632  20.403  0.00  0.00    +0.000 A 
ATOM     24  F   UNL     1       0.900   3.019  21.541  0.00  0.00    +0.000 F 
ATOM     25  C   UNL     1       1.702   4.953  20.446  0.00  0.00    +0.000 A 
ENDBRANCH  18  19
ENDBRANCH  16  18
ENDBRANCH  13  14
BRANCH   1  27
ATOM     26  C   UNL     1       1.183   9.359  22.802  0.00  0.00    +0.000 C 
ATOM     27  O   UNL     1       1.492  10.264  21.746  0.00  0.00    +0.000 OA
ENDBRANCH   1  27
TORSDOF 4
ENDMDL
MODEL 3
REMARK VINA RESULT:      -7.4      6.528      9.969
REMARK  Name = 
REMARK  6 active torsions:
REMARK  status: ('A' for Active; 'I' for Inactive)
REMARK    1  A    between atoms: C_1  and  O_2
REMARK    2  A    between atoms: O_2  and  C_3
REMARK    3  A    between atoms: C_13  and  C_14
REMARK    4  A    between atoms: C_15  and  C_16
REMARK    5  A    between atoms: N_18  and  C_19
REMARK    6  A    between atoms: C_19  and  C_20
REMARK                            x       y       z     vdW  Elec       q    Type
REMARK                         _______ _______ _______ _____ _____    ______ ____
ROOT
ATOM      1  C   UNL     1       0.708  10.776  21.314  0.00  0.00    +0.000 A 
ATOM      2  N   UNL     1       0.850  12.077  20.945  0.00  0.00    +0.000 NA
ATOM      3  C   UNL     1       1.181  12.378  19.678  0.00  0.00    +0.000 A 
ATOM      4  N   UNL     1       1.261  13.701  19.307  0.00  0.00    +0.000 N 
ATOM      5  C   UNL     1       2.162  14.185  18.251  0.00  0.00    +0.000 C 
ATOM      6  C   UNL     1       3.219  15.136  18.835  0.00  0.00    +0.000 C 
ATOM      7  O   UNL     1       2.622  16.202  19.587  0.00  0.00    +0.000 OA
ATOM      8  C   UNL     1       1.865  15.664  20.685  0.00  0.00    +0.000 C 
ATOM      9  C   UNL     1       0.735  14.752  20.191  0.00  0.00    +0.000 C 
ATOM     10  C   UNL     1       1.384  11.347  18.767  0.00  0.00    +0.000 A 
ATOM     11  C   UNL     1       1.254   9.993  19.134  0.00  0.00    +0.000 A 
ATOM     12  C   UNL     1       1.507   8.965  18.066  0.00  0.00    +0.000 C 
ATOM     13  C   UNL     1       0.870   9.687  20.453  0.00  0.00    +0.000 A 
ENDROOT
BRANCH  13  14
ATOM     14  C   UNL     1       0.642   8.270  20.903  0.00  0.00    +0.000 C 
ATOM     15  O   UNL     1      -0.445   7.918  21.345  0.00  0.00    +0.000 OA
ATOM     16  N   UNL     1       1.714   7.401  20.822  0.00  0.00    +0.000 N 
ATOM     17  H   UNL     1       2.525   7.693  20.286  0.00  0.00    +0.000 HD
BRANCH  16  18
ATOM     18  C   UNL     1       1.600   5.987  21.121  0.00  0.00    +0.000 C 
BRANCH  18  19
ATOM     19  C   UNL     1       1.797   5.145  19.883  0.00  0.00    +0.000 A 
ATOM     20  C   UNL     1       2.641   5.590  18.851  0.00  0.00    +0.000 A 
ATOM     21  C   UNL     1       2.839   4.818  17.701  0.00  0.00    +0.000 A 
ATOM     22  C   UNL     1       2.201   3.588  17.571  0.00  0.00    +0.000 A 
ATOM     23  C   UNL     1       1.377   3.136  18.593  0.00  0.00    +0.000 A 
ATOM     24  F   UNL     1       0.771   1.947  18.473  0.00  0.00    +0.000 F 
ATOM     25  C   UNL     1       1.170   3.898  19.744  0.00  0.00    +0.000 A 
ENDBRANCH  18  19
ENDBRANCH  16  18
ENDBRANCH  13  14
BRANCH   1  27
ATOM     26  C   UNL     1      -0.956  10.928  22.962  0.00  0.00    +0.000 C 
ATOM     27  O   UNL     1       0.375  10.535  22.637  0.00  0.00    +0.000 OA
ENDBRANCH   1  27
TORSDOF 4
ENDMDL
MODEL 4
REMARK VINA RESULT:      -7.3      6.221      9.666
REMARK  Name = 
REMARK  6 active torsions:
REMARK  status: ('A' for Active; 'I' for Inactive)
REMARK    1  A    between atoms: C_1  and  O_2
REMARK    2  A    between atoms: O_2  and  C_3
REMARK    3  A    between atoms: C_13  and  C_14
REMARK    4  A    between atoms: C_15  and  C_16
REMARK    5  A    between atoms: N_18  and  C_19
REMARK    6  A    between atoms: C_19  and  C_20
REMARK                            x       y       z     vdW  Elec       q    Type
REMARK                         _______ _______ _______ _____ _____    ______ ____
ROOT
ATOM      1  C   UNL     1       0.731  10.693  21.411  0.00  0.00    +0.000 A 
ATOM      2  N   UNL     1       0.852  12.012  21.103  0.00  0.00    +0.000 NA
ATOM      3  C   UNL     1       1.157  12.377  19.845  0.00  0.00    +0.000 A 
ATOM      4  N   UNL     1       1.217  13.717  19.537  0.00  0.00    +0.000 N 
ATOM      5  C   UNL     1       2.093  14.260  18.489  0.00  0.00    +0.000 C 
ATOM      6  C   UNL     1       3.151  15.194  19.099  0.00  0.00    +0.000 C 
ATOM      7  O   UNL     1       2.556  16.216  19.912  0.00  0.00    +0.000 OA
ATOM      8  C   UNL     1       1.825  15.619  20.996  0.00  0.00    +0.000 C 
ATOM      9  C   UNL     1       0.696  14.718  20.479  0.00  0.00    +0.000 C 
ATOM     10  C   UNL     1       1.354  11.393  18.883  0.00  0.00    +0.000 A 
ATOM     11  C   UNL     1       1.245  10.021  19.188  0.00  0.00    +0.000 A 
ATOM     12  C   UNL     1       1.490   9.048  18.067  0.00  0.00    +0.000 C 
ATOM     13  C   UNL     1       0.888   9.648  20.497  0.00  0.00    +0.000 A 
ENDROOT
BRANCH  13  14
ATOM     14  C   UNL     1       0.683   8.209  20.883  0.00  0.00    +0.000 C 
ATOM     15  O   UNL     1      -0.402   7.817  21.293  0.00  0.00    +0.000 OA
ATOM     16  N   UNL     1       1.774   7.366  20.781  0.00  0.00    +0.000 N 
ATOM     17  H   UNL     1       2.586   7.697  20.270  0.00  0.00    +0.000 HD
BRANCH  16  18
ATOM     18  C   UNL     1       1.684   5.939  21.017  0.00  0.00    +0.000 C 
BRANCH  18  19
ATOM     19  C   UNL     1       1.971   5.153  19.760  0.00  0.00    +0.000 A 
ATOM     20  C   UNL     1       1.265   3.969  19.490  0.00  0.00    +0.000 A 
ATOM     21  C   UNL     1       1.513   3.232  18.326  0.00  0.00    +0.000 A 
ATOM     22  C   UNL     1       2.467   3.675  17.415  0.00  0.00    +0.000 A 
ATOM     23  C   UNL     1       3.159   4.852  17.668  0.00  0.00    +0.000 A 
ATOM     24  F   UNL     1       4.069   5.284  16.785  0.00  0.00    +0.000 F 
ATOM     25  C   UNL     1       2.920   5.593  18.827  0.00  0.00    +0.000 A 
ENDBRANCH  18  19
ENDBRANCH  16  18
ENDBRANCH  13  14
BRANCH   1  27
ATOM     26  C   UNL     1      -0.891  10.784  23.106  0.00  0.00    +0.000 C 
ATOM     27  O   UNL     1       0.424  10.386  22.727  0.00  0.00    +0.000 OA
ENDBRANCH   1  27
TORSDOF 4
ENDMDL
MODEL 5
REMARK VINA RESULT:      -7.2      7.528     10.015
REMARK  Name = 
REMARK  6 active torsions:
REMARK  status: ('A' for Active; 'I' for Inactive)
REMARK    1  A    between atoms: C_1  and  O_2
REMARK    2  A    between atoms: O_2  and  C_3
REMARK    3  A    between atoms: C_13  and  C_14
REMARK    4  A    between atoms: C_15  and  C_16
REMARK    5  A    between atoms: N_18  and  C_19
REMARK    6  A    between atoms: C_19  and  C_20
REMARK                            x       y       z     vdW  Elec       q    Type
REMARK                         _______ _______ _______ _____ _____    ______ ____
ROOT
ATOM      1  C   UNL     1      -0.330  10.541  19.286  0.00  0.00    +0.000 A 
ATOM      2  N   UNL     1      -1.170  11.466  19.823  0.00  0.00    +0.000 NA
ATOM      3  C   UNL     1      -1.143  11.702  21.146  0.00  0.00    +0.000 A 
ATOM      4  N   UNL     1      -1.957  12.684  21.663  0.00  0.00    +0.000 N 
ATOM      5  C   UNL     1      -2.498  12.640  23.029  0.00  0.00    +0.000 C 
ATOM      6  C   UNL     1      -4.031  12.531  23.001  0.00  0.00    +0.000 C 
ATOM      7  O   UNL     1      -4.626  13.563  22.201  0.00  0.00    +0.000 OA
ATOM      8  C   UNL     1      -4.157  13.465  20.845  0.00  0.00    +0.000 C 
ATOM      9  C   UNL     1      -2.635  13.634  20.768  0.00  0.00    +0.000 C 
ATOM     10  C   UNL     1      -0.260  10.985  21.945  0.00  0.00    +0.000 A 
ATOM     11  C   UNL     1       0.608  10.013  21.408  0.00  0.00    +0.000 A 
ATOM     12  C   UNL     1       1.512   9.294  22.372  0.00  0.00    +0.000 C 
ATOM     13  C   UNL     1       0.602   9.799  20.018  0.00  0.00    +0.000 A 
ENDROOT
BRANCH  13  14
ATOM     14  C   UNL     1       1.547   8.830  19.361  0.00  0.00    +0.000 C 
ATOM     15  O   UNL     1       2.129   9.126  18.324  0.00  0.00    +0.000 OA
ATOM     16  N   UNL     1       1.703   7.595  19.960  0.00  0.00    +0.000 N 
ATOM     17  H   UNL     1       1.344   7.473  20.901  0.00  0.00    +0.000 HD
BRANCH  16  18
ATOM     18  C   UNL     1       2.662   6.614  19.491  0.00  0.00    +0.000 C 
BRANCH  18  19
ATOM     19  C   UNL     1       2.076   5.221  19.503  0.00  0.00    +0.000 A 
ATOM     20  C   UNL     1       1.864   4.533  18.298  0.00  0.00    +0.000 A 
ATOM     21  C   UNL     1       1.328   3.240  18.292  0.00  0.00    +0.000 A 
ATOM     22  C   UNL     1       1.005   2.618  19.494  0.00  0.00    +0.000 A 
ATOM     23  C   UNL     1       1.225   3.286  20.690  0.00  0.00    +0.000 A 
ATOM     24  F   UNL     1       0.925   2.683  21.847  0.00  0.00    +0.000 F 
ATOM     25  C   UNL     1       1.757   4.577  20.707  0.00  0.00    +0.000 A 
ENDBRANCH  18  19
ENDBRANCH  16  18
ENDBRANCH  13  14
BRANCH   1  27
ATOM     26  C   UNL     1      -1.728   9.992  17.482  0.00  0.00    +0.000 C 
ATOM     27  O   UNL     1      -0.416  10.339  17.918  0.00  0.00    +0.000 OA
ENDBRANCH   1  27
TORSDOF 4
ENDMDL
MODEL 6
REMARK VINA RESULT:      -7.2      6.684      8.710
REMARK  Name = 
REMARK  6 active torsions:
REMARK  status: ('A' for Active; 'I' for Inactive)
REMARK    1  A    between atoms: C_1  and  O_2
REMARK    2  A    between atoms: O_2  and  C_3
REMARK    3  A    between atoms: C_13  and  C_14
REMARK    4  A    between atoms: C_15  and  C_16
REMARK    5  A    between atoms: N_18  and  C_19
REMARK    6  A    between atoms: C_19  and  C_20
REMARK                            x       y       z     vdW  Elec       q    Type
REMARK                         _______ _______ _______ _____ _____    ______ ____
ROOT
ATOM      1  C   UNL     1       0.695   8.173  20.904  0.00  0.00    +0.000 A 
ATOM      2  N   UNL     1       1.208   6.916  20.978  0.00  0.00    +0.000 NA
ATOM      3  C   UNL     1       2.042   6.479  20.019  0.00  0.00    +0.000 A 
ATOM      4  N   UNL     1       2.599   5.226  20.141  0.00  0.00    +0.000 N 
ATOM      5  C   UNL     1       2.973   4.400  18.985  0.00  0.00    +0.000 C 
ATOM      6  C   UNL     1       2.125   3.118  18.938  0.00  0.00    +0.000 C 
ATOM      7  O   UNL     1       2.177   2.397  20.178  0.00  0.00    +0.000 OA
ATOM      8  C   UNL     1       1.671   3.217  21.245  0.00  0.00    +0.000 C 
ATOM      9  C   UNL     1       2.505   4.494  21.412  0.00  0.00    +0.000 C 
ATOM     10  C   UNL     1       2.357   7.322  18.959  0.00  0.00    +0.000 A 
ATOM     11  C   UNL     1       1.825   8.623  18.859  0.00  0.00    +0.000 A 
ATOM     12  C   UNL     1       2.230   9.440  17.662  0.00  0.00    +0.000 C 
ATOM     13  C   UNL     1       0.983   9.087  19.887  0.00  0.00    +0.000 A 
ENDROOT
BRANCH  13  14
ATOM     14  C   UNL     1       0.432  10.487  19.888  0.00  0.00    +0.000 C 
ATOM     15  O   UNL     1       1.158  11.447  20.118  0.00  0.00    +0.000 OA
ATOM     16  N   UNL     1      -0.921  10.633  19.649  0.00  0.00    +0.000 N 
ATOM     17  H   UNL     1      -1.431   9.833  19.290  0.00  0.00    +0.000 HD
BRANCH  16  18
ATOM     18  C   UNL     1      -1.556  11.930  19.517  0.00  0.00    +0.000 C 
BRANCH  18  19
ATOM     19  C   UNL     1      -2.865  11.828  18.770  0.00  0.00    +0.000 A 
ATOM     20  C   UNL     1      -4.063  12.233  19.383  0.00  0.00    +0.000 A 
ATOM     21  C   UNL     1      -5.283  12.151  18.702  0.00  0.00    +0.000 A 
ATOM     22  C   UNL     1      -5.319  11.670  17.397  0.00  0.00    +0.000 A 
ATOM     23  C   UNL     1      -4.138  11.282  16.780  0.00  0.00    +0.000 A 
ATOM     24  F   UNL     1      -4.171  10.829  15.520  0.00  0.00    +0.000 F 
ATOM     25  C   UNL     1      -2.915  11.357  17.450  0.00  0.00    +0.000 A 
ENDBRANCH  18  19
ENDBRANCH  16  18
ENDBRANCH  13  14
BRANCH   1  27
ATOM     26  C   UNL     1       0.482   9.285  22.960  0.00  0.00    +0.000 C 
ATOM     27  O   UNL     1      -0.165   8.557  21.920  0.00  0.00    +0.000 OA
ENDBRANCH   1  27
TORSDOF 4
ENDMDL
MODEL 7
REMARK VINA RESULT:      -7.2      7.573      9.789
REMARK  Name = 
REMARK  6 active torsions:
REMARK  status: ('A' for Active; 'I' for Inactive)
REMARK    1  A    between atoms: C_1  and  O_2
REMARK    2  A    between atoms: O_2  and  C_3
REMARK    3  A    between atoms: C_13  and  C_14
REMARK    4  A    between atoms: C_15  and  C_16
REMARK    5  A    between atoms: N_18  and  C_19
REMARK    6  A    between atoms: C_19  and  C_20
REMARK                            x       y       z     vdW  Elec       q    Type
REMARK                         _______ _______ _______ _____ _____    ______ ____
ROOT
ATOM      1  C   UNL     1       0.421  10.599  20.946  0.00  0.00    +0.000 A 
ATOM      2  N   UNL     1      -0.525  11.355  21.564  0.00  0.00    +0.000 NA
ATOM      3  C   UNL     1      -1.630  11.721  20.891  0.00  0.00    +0.000 A 
ATOM      4  N   UNL     1      -2.605  12.436  21.550  0.00  0.00    +0.000 N 
ATOM      5  C   UNL     1      -3.488  13.397  20.875  0.00  0.00    +0.000 C 
ATOM      6  C   UNL     1      -3.244  14.820  21.404  0.00  0.00    +0.000 C 
ATOM      7  O   UNL     1      -3.343  14.883  22.834  0.00  0.00    +0.000 OA
ATOM      8  C   UNL     1      -2.361  14.021  23.433  0.00  0.00    +0.000 C 
ATOM      9  C   UNL     1      -2.570  12.560  23.015  0.00  0.00    +0.000 C 
ATOM     10  C   UNL     1      -1.778  11.327  19.567  0.00  0.00    +0.000 A 
ATOM     11  C   UNL     1      -0.802  10.554  18.906  0.00  0.00    +0.000 A 
ATOM     12  C   UNL     1      -1.068  10.196  17.469  0.00  0.00    +0.000 C 
ATOM     13  C   UNL     1       0.333  10.142  19.628  0.00  0.00    +0.000 A 
ENDROOT
BRANCH  13  14
ATOM     14  C   UNL     1       1.384   9.258  19.015  0.00  0.00    +0.000 C 
ATOM     15  O   UNL     1       2.057   9.648  18.068  0.00  0.00    +0.000 OA
ATOM     16  N   UNL     1       1.533   7.991  19.546  0.00  0.00    +0.000 N 
ATOM     17  H   UNL     1       1.083   7.790  20.433  0.00  0.00    +0.000 HD
BRANCH  16  18
ATOM     18  C   UNL     1       2.579   7.082  19.120  0.00  0.00    +0.000 C 
BRANCH  18  19
ATOM     19  C   UNL     1       2.161   5.641  19.293  0.00  0.00    +0.000 A 
ATOM     20  C   UNL     1       1.606   5.206  20.508  0.00  0.00    +0.000 A 
ATOM     21  C   UNL     1       1.208   3.876  20.682  0.00  0.00    +0.000 A 
ATOM     22  C   UNL     1       1.354   2.966  19.640  0.00  0.00    +0.000 A 
ATOM     23  C   UNL     1       1.888   3.391  18.431  0.00  0.00    +0.000 A 
ATOM     24  F   UNL     1       2.018   2.518  17.425  0.00  0.00    +0.000 F 
ATOM     25  C   UNL     1       2.291   4.716  18.247  0.00  0.00    +0.000 A 
ENDBRANCH  18  19
ENDBRANCH  16  18
ENDBRANCH  13  14
BRANCH   1  27
ATOM     26  C   UNL     1       1.263   9.318  22.724  0.00  0.00    +0.000 C 
ATOM     27  O   UNL     1       1.538  10.264  21.694  0.00  0.00    +0.000 OA
ENDBRANCH   1  27
TORSDOF 4
ENDMDL
MODEL 8
REMARK VINA RESULT:      -7.2      7.392      9.806
REMARK  Name = 
REMARK  6 active torsions:
REMARK  status: ('A' for Active; 'I' for Inactive)
REMARK    1  A    between atoms: C_1  and  O_2
REMARK    2  A    between atoms: O_2  and  C_3
REMARK    3  A    between atoms: C_13  and  C_14
REMARK    4  A    between atoms: C_15  and  C_16
REMARK    5  A    between atoms: N_18  and  C_19
REMARK    6  A    between atoms: C_19  and  C_20
REMARK                            x       y       z     vdW  Elec       q    Type
REMARK                         _______ _______ _______ _____ _____    ______ ____
ROOT
ATOM      1  C   UNL     1       1.108  11.321  19.604  0.00  0.00    +0.000 A 
ATOM      2  N   UNL     1       0.686  12.337  20.403  0.00  0.00    +0.000 NA
ATOM      3  C   UNL     1      -0.042  12.064  21.500  0.00  0.00    +0.000 A 
ATOM      4  N   UNL     1      -0.409  13.099  22.330  0.00  0.00    +0.000 N 
ATOM      5  C   UNL     1      -1.638  13.083  23.135  0.00  0.00    +0.000 C 
ATOM      6  C   UNL     1      -2.597  14.197  22.682  0.00  0.00    +0.000 C 
ATOM      7  O   UNL     1      -1.956  15.481  22.669  0.00  0.00    +0.000 OA
ATOM      8  C   UNL     1      -0.842  15.466  21.760  0.00  0.00    +0.000 C 
ATOM      9  C   UNL     1       0.205  14.426  22.177  0.00  0.00    +0.000 C 
ATOM     10  C   UNL     1      -0.361  10.743  21.789  0.00  0.00    +0.000 A 
ATOM     11  C   UNL     1       0.055   9.678  20.965  0.00  0.00    +0.000 A 
ATOM     12  C   UNL     1      -0.359   8.291  21.374  0.00  0.00    +0.000 C 
ATOM     13  C   UNL     1       0.850   9.968  19.841  0.00  0.00    +0.000 A 
ENDROOT
BRANCH  13  14
ATOM     14  C   UNL     1       1.392   8.883  18.952  0.00  0.00    +0.000 C 
ATOM     15  O   UNL     1       1.140   8.869  17.753  0.00  0.00    +0.000 OA
ATOM     16  N   UNL     1       2.154   7.897  19.550  0.00  0.00    +0.000 N 
ATOM     17  H   UNL     1       2.478   8.055  20.498  0.00  0.00    +0.000 HD
BRANCH  16  18
ATOM     18  C   UNL     1       2.823   6.858  18.793  0.00  0.00    +0.000 C 
BRANCH  18  19
ATOM     19  C   UNL     1       2.288   5.489  19.145  0.00  0.00    +0.000 A 
ATOM     20  C   UNL     1       1.725   5.254  20.410  0.00  0.00    +0.000 A 
ATOM     21  C   UNL     1       1.220   3.993  20.749  0.00  0.00    +0.000 A 
ATOM     22  C   UNL     1       1.266   2.955  19.824  0.00  0.00    +0.000 A 
ATOM     23  C   UNL     1       1.809   3.184  18.567  0.00  0.00    +0.000 A 
ATOM     24  F   UNL     1       1.843   2.188  17.673  0.00  0.00    +0.000 F 
ATOM     25  C   UNL     1       2.317   4.437  18.219  0.00  0.00    +0.000 A 
ENDBRANCH  18  19
ENDBRANCH  16  18
ENDBRANCH  13  14
BRANCH   1  27
ATOM     26  C   UNL     1       2.243  13.042  18.481  0.00  0.00    +0.000 C 
ATOM     27  O   UNL     1       1.846  11.673  18.485  0.00  0.00    +0.000 OA
ENDBRANCH   1  27
TORSDOF 4
ENDMDL
MODEL 9
REMARK VINA RESULT:      -7.2      7.477      9.904
REMARK  Name = 
REMARK  6 active torsions:
REMARK  status: ('A' for Active; 'I' for Inactive)
REMARK    1  A    between atoms: C_1  and  O_2
REMARK    2  A    between atoms: O_2  and  C_3
REMARK    3  A    between atoms: C_13  and  C_14
REMARK    4  A    between atoms: C_15  and  C_16
REMARK    5  A    between atoms: N_18  and  C_19
REMARK    6  A    between atoms: C_19  and  C_20
REMARK                            x       y       z     vdW  Elec       q    Type
REMARK                         _______ _______ _______ _____ _____    ______ ____
ROOT
ATOM      1  C   UNL     1       0.979  11.337  19.802  0.00  0.00    +0.000 A 
ATOM      2  N   UNL     1       0.489  12.324  20.599  0.00  0.00    +0.000 NA
ATOM      3  C   UNL     1      -0.264  12.005  21.667  0.00  0.00    +0.000 A 
ATOM      4  N   UNL     1      -0.702  13.012  22.497  0.00  0.00    +0.000 N 
ATOM      5  C   UNL     1      -1.956  12.935  23.259  0.00  0.00    +0.000 C 
ATOM      6  C   UNL     1      -2.944  14.014  22.787  0.00  0.00    +0.000 C 
ATOM      7  O   UNL     1      -2.357  15.324  22.813  0.00  0.00    +0.000 OA
ATOM      8  C   UNL     1      -1.214  15.367  21.942  0.00  0.00    +0.000 C 
ATOM      9  C   UNL     1      -0.139  14.366  22.381  0.00  0.00    +0.000 C 
ATOM     10  C   UNL     1      -0.537  10.668  21.928  0.00  0.00    +0.000 A 
ATOM     11  C   UNL     1      -0.049   9.633  21.106  0.00  0.00    +0.000 A 
ATOM     12  C   UNL     1      -0.419   8.224  21.483  0.00  0.00    +0.000 C 
ATOM     13  C   UNL     1       0.770   9.971  20.013  0.00  0.00    +0.000 A 
ENDROOT
BRANCH  13  14
ATOM     14  C   UNL     1       1.386   8.922  19.130  0.00  0.00    +0.000 C 
ATOM     15  O   UNL     1       1.228   8.952  17.915  0.00  0.00    +0.000 OA
ATOM     16  N   UNL     1       2.106   7.917  19.749  0.00  0.00    +0.000 N 
ATOM     17  H   UNL     1       2.354   8.041  20.725  0.00  0.00    +0.000 HD
BRANCH  16  18
ATOM     18  C   UNL     1       2.838   6.909  19.008  0.00  0.00    +0.000 C 
BRANCH  18  19
ATOM     19  C   UNL     1       2.205   5.546  19.159  0.00  0.00    +0.000 A 
ATOM     20  C   UNL     1       1.877   4.789  18.023  0.00  0.00    +0.000 A 
ATOM     21  C   UNL     1       1.295   3.522  18.146  0.00  0.00    +0.000 A 
ATOM     22  C   UNL     1       1.042   2.994  19.408  0.00  0.00    +0.000 A 
ATOM     23  C   UNL     1       1.377   3.730  20.536  0.00  0.00    +0.000 A 
ATOM     24  F   UNL     1       1.144   3.217  21.751  0.00  0.00    +0.000 F 
ATOM     25  C   UNL     1       1.956   4.996  20.425  0.00  0.00    +0.000 A 
ENDBRANCH  18  19
ENDBRANCH  16  18
ENDBRANCH  13  14
BRANCH   1  27
ATOM     26  C   UNL     1       1.523  13.094  18.344  0.00  0.00    +0.000 C 
ATOM     27  O   UNL     1       1.739  11.735  18.714  0.00  0.00    +0.000 OA
ENDBRANCH   1  27
TORSDOF 4
ENDMDL
