MODEL 1
REMARK VINA RESULT:      -9.0      0.000      0.000
REMARK  Name = 
REMARK  5 active torsions:
REMARK  status: ('A' for Active; 'I' for Inactive)
REMARK    1  A    between atoms: C_2  and  C_3
REMARK    2  A    between atoms: C_3  and  N_4
REMARK    3  A    between atoms: N_15  and  C_16
REMARK    4  A    between atoms: C_19  and  S_20
REMARK    5  A    between atoms: S_20  and  N_23
REMARK                            x       y       z     vdW  Elec       q    Type
REMARK                         _______ _______ _______ _____ _____    ______ ____
ROOT
ATOM      1  O   UNL     1       1.318   5.377  20.765  0.00  0.00    +0.000 OA
ATOM      2  C   UNL     1       2.400   5.641  20.227  0.00  0.00    +0.000 C 
ATOM      3  N   UNL     1       2.759   6.876  19.693  0.00  0.00    +0.000 N 
ATOM      4  H   UNL     1       3.677   6.932  19.251  0.00  0.00    +0.000 HD
ENDROOT
BRANCH   3   5
ATOM      5  C   UNL     1       1.924   8.012  19.574  0.00  0.00    +0.000 A 
ATOM      6  C   UNL     1       1.144   8.508  20.630  0.00  0.00    +0.000 A 
ATOM      7  C   UNL     1       0.243   9.561  20.430  0.00  0.00    +0.000 A 
ATOM      8  C   UNL     1       0.124  10.151  19.172  0.00  0.00    +0.000 A 
ATOM      9  C   UNL     1       0.930   9.692  18.119  0.00  0.00    +0.000 A 
ATOM     10  C   UNL     1       1.838   8.645  18.331  0.00  0.00    +0.000 A 
BRANCH   8  11
ATOM     11  S   UNL     1      -1.240  11.266  18.854  0.00  0.00    +0.000 S 
ATOM     12  O   UNL     1      -1.766  11.655  20.147  0.00  0.00    +0.000 OA
ATOM     13  O   UNL     1      -0.750  12.266  17.929  0.00  0.00    +0.000 OA
BRANCH  11  14
ATOM     14  N   UNL     1      -2.437  10.387  18.063  0.00  0.00    +0.000 NA
ATOM     15  C   UNL     1      -2.207   9.886  16.688  0.00  0.00    +0.000 C 
ATOM     16  C   UNL     1      -2.772  10.869  15.662  0.00  0.00    +0.000 C 
ATOM     17  O   UNL     1      -4.162  11.141  15.900  0.00  0.00    +0.000 OA
ATOM     18  C   UNL     1      -4.395  11.646  17.225  0.00  0.00    +0.000 C 
ATOM     19  C   UNL     1      -3.867  10.686  18.296  0.00  0.00    +0.000 C 
ENDBRANCH  11  14
ENDBRANCH   8  11
ENDBRANCH   3   5
BRANCH   2  20
ATOM     20  C   UNL     1       3.506   4.585  20.227  0.00  0.00    +0.000 C 
BRANCH  20  21
ATOM     21  N   UNL     1       4.102   4.421  18.908  0.00  0.00    +0.000 N 
ATOM     22  N   UNL     1       3.259   4.018  17.914  0.00  0.00    +0.000 NA
ATOM     23  N   UNL     1       3.654   3.890  16.735  0.00  0.00    +0.000 NA
ATOM     24  C   UNL     1       4.977   4.202  16.404  0.00  0.00    +0.000 A 
ATOM     25  C   UNL     1       5.376   4.157  15.063  0.00  0.00    +0.000 A 
ATOM     26  C   UNL     1       6.685   4.488  14.694  0.00  0.00    +0.000 A 
ATOM     27  C   UNL     1       7.617   4.847  15.667  0.00  0.00    +0.000 A 
ATOM     28  C   UNL     1       7.236   4.889  17.004  0.00  0.00    +0.000 A 
ATOM     29  C   UNL     1       5.917   4.578  17.350  0.00  0.00    +0.000 A 
ATOM     30  C   UNL     1       5.434   4.713  18.718  0.00  0.00    +0.000 A 
ATOM     31  O   UNL     1       6.171   5.138  19.603  0.00  0.00    +0.000 OA
ENDBRANCH  20  21
ENDBRANCH   2  20
TORSDOF 5
ENDMDL
MODEL 2
REMARK VINA RESULT:      -8.9      2.357      3.291
REMARK  Name = 
REMARK  5 active torsions:
REMARK  status: ('A' for Active; 'I' for Inactive)
REMARK    1  A    between atoms: C_2  and  C_3
REMARK    2  A    between atoms: C_3  and  N_4
REMARK    3  A    between atoms: N_15  and  C_16
REMARK    4  A    between atoms: C_19  and  S_20
REMARK    5  A    between atoms: S_20  and  N_23
REMARK                            x       y       z     vdW  Elec       q    Type
REMARK                         _______ _______ _______ _____ _____    ______ ____
ROOT
ATOM      1  O   UNL     1       1.000   4.801  20.473  0.00  0.00    +0.000 OA
ATOM      2  C   UNL     1       2.160   5.046  20.122  0.00  0.00    +0.000 C 
ATOM      3  N   UNL     1       2.696   6.316  19.924  0.00  0.00    +0.000 N 
ATOM      4  H   UNL     1       3.663   6.357  19.600  0.00  0.00    +0.000 HD
ENDROOT
BRANCH   3   5
ATOM      5  C   UNL     1       1.992   7.541  19.985  0.00  0.00    +0.000 A 
ATOM      6  C   UNL     1       1.792   8.372  18.872  0.00  0.00    +0.000 A 
ATOM      7  C   UNL     1       1.194   9.630  19.007  0.00  0.00    +0.000 A 
ATOM      8  C   UNL     1       0.764  10.070  20.258  0.00  0.00    +0.000 A 
ATOM      9  C   UNL     1       0.919   9.231  21.373  0.00  0.00    +0.000 A 
ATOM     10  C   UNL     1       1.509   7.967  21.226  0.00  0.00    +0.000 A 
BRANCH   8  11
ATOM     11  S   UNL     1       0.298  11.785  20.471  0.00  0.00    +0.000 S 
ATOM     12  O   UNL     1       1.305  12.384  21.324  0.00  0.00    +0.000 OA
ATOM     13  O   UNL     1       0.048  12.314  19.147  0.00  0.00    +0.000 OA
BRANCH  11  14
ATOM     14  N   UNL     1      -1.159  11.812  21.311  0.00  0.00    +0.000 NA
ATOM     15  C   UNL     1      -2.353  12.451  20.711  0.00  0.00    +0.000 C 
ATOM     16  C   UNL     1      -2.479  13.898  21.188  0.00  0.00    +0.000 C 
ATOM     17  O   UNL     1      -2.499  13.982  22.622  0.00  0.00    +0.000 OA
ATOM     18  C   UNL     1      -1.336  13.382  23.215  0.00  0.00    +0.000 C 
ATOM     19  C   UNL     1      -1.175  11.920  22.786  0.00  0.00    +0.000 C 
ENDBRANCH  11  14
ENDBRANCH   8  11
ENDBRANCH   3   5
BRANCH   2  20
ATOM     20  C   UNL     1       3.154   3.891  19.990  0.00  0.00    +0.000 C 
BRANCH  20  21
ATOM     21  N   UNL     1       4.189   4.174  19.005  0.00  0.00    +0.000 N 
ATOM     22  N   UNL     1       5.428   4.460  19.501  0.00  0.00    +0.000 NA
ATOM     23  N   UNL     1       6.401   4.673  18.745  0.00  0.00    +0.000 NA
ATOM     24  C   UNL     1       6.241   4.580  17.358  0.00  0.00    +0.000 A 
ATOM     25  C   UNL     1       7.361   4.715  16.531  0.00  0.00    +0.000 A 
ATOM     26  C   UNL     1       7.242   4.602  15.140  0.00  0.00    +0.000 A 
ATOM     27  C   UNL     1       5.994   4.373  14.561  0.00  0.00    +0.000 A 
ATOM     28  C   UNL     1       4.871   4.244  15.372  0.00  0.00    +0.000 A 
ATOM     29  C   UNL     1       5.015   4.336  16.761  0.00  0.00    +0.000 A 
ATOM     30  C   UNL     1       3.896   4.098  17.662  0.00  0.00    +0.000 A 
ATOM     31  O   UNL     1       2.796   3.776  17.223  0.00  0.00    +0.000 OA
ENDBRANCH  20  21
ENDBRANCH   2  20
TORSDOF 5
ENDMDL
MODEL 3
REMARK VINA RESULT:      -8.9      2.419      3.356
REMARK  Name = 
REMARK  5 active torsions:
REMARK  status: ('A' for Active; 'I' for Inactive)
REMARK    1  A    between atoms: C_2  and  C_3
REMARK    2  A    between atoms: C_3  and  N_4
REMARK    3  A    between atoms: N_15  and  C_16
REMARK    4  A    between atoms: C_19  and  S_20
REMARK    5  A    between atoms: S_20  and  N_23
REMARK                            x       y       z     vdW  Elec       q    Type
REMARK                         _______ _______ _______ _____ _____    ______ ____
ROOT
ATOM      1  O   UNL     1       0.977   4.827  20.487  0.00  0.00    +0.000 OA
ATOM      2  C   UNL     1       2.152   5.118  20.232  0.00  0.00    +0.000 C 
ATOM      3  N   UNL     1       2.657   6.408  20.096  0.00  0.00    +0.000 N 
ATOM      4  H   UNL     1       3.644   6.489  19.850  0.00  0.00    +0.000 HD
ENDROOT
BRANCH   3   5
ATOM      5  C   UNL     1       1.907   7.607  20.120  0.00  0.00    +0.000 A 
ATOM      6  C   UNL     1       1.744   8.437  19.000  0.00  0.00    +0.000 A 
ATOM      7  C   UNL     1       1.094   9.672  19.103  0.00  0.00    +0.000 A 
ATOM      8  C   UNL     1       0.575  10.090  20.328  0.00  0.00    +0.000 A 
ATOM      9  C   UNL     1       0.694   9.251  21.447  0.00  0.00    +0.000 A 
ATOM     10  C   UNL     1       1.336   8.010  21.332  0.00  0.00    +0.000 A 
BRANCH   8  11
ATOM     11  S   UNL     1       0.037  11.786  20.519  0.00  0.00    +0.000 S 
ATOM     12  O   UNL     1      -1.399  11.789  20.314  0.00  0.00    +0.000 OA
ATOM     13  O   UNL     1       0.602  12.263  21.763  0.00  0.00    +0.000 OA
BRANCH  11  14
ATOM     14  N   UNL     1       0.728  12.679  19.272  0.00  0.00    +0.000 NA
ATOM     15  C   UNL     1       2.076  13.270  19.438  0.00  0.00    +0.000 C 
ATOM     16  C   UNL     1       1.967  14.719  19.915  0.00  0.00    +0.000 C 
ATOM     17  O   UNL     1       1.150  15.505  19.033  0.00  0.00    +0.000 OA
ATOM     18  C   UNL     1      -0.167  14.952  18.878  0.00  0.00    +0.000 C 
ATOM     19  C   UNL     1      -0.116  13.504  18.379  0.00  0.00    +0.000 C 
ENDBRANCH  11  14
ENDBRANCH   8  11
ENDBRANCH   3   5
BRANCH   2  20
ATOM     20  C   UNL     1       3.193   4.000  20.162  0.00  0.00    +0.000 C 
BRANCH  20  21
ATOM     21  N   UNL     1       4.220   4.274  19.165  0.00  0.00    +0.000 N 
ATOM     22  N   UNL     1       5.448   4.623  19.647  0.00  0.00    +0.000 NA
ATOM     23  N   UNL     1       6.413   4.836  18.882  0.00  0.00    +0.000 NA
ATOM     24  C   UNL     1       6.258   4.676  17.501  0.00  0.00    +0.000 A 
ATOM     25  C   UNL     1       7.374   4.813  16.667  0.00  0.00    +0.000 A 
ATOM     26  C   UNL     1       7.260   4.635  15.283  0.00  0.00    +0.000 A 
ATOM     27  C   UNL     1       6.021   4.339  14.715  0.00  0.00    +0.000 A 
ATOM     28  C   UNL     1       4.902   4.208  15.532  0.00  0.00    +0.000 A 
ATOM     29  C   UNL     1       5.041   4.365  16.915  0.00  0.00    +0.000 A 
ATOM     30  C   UNL     1       3.930   4.129  17.826  0.00  0.00    +0.000 A 
ATOM     31  O   UNL     1       2.842   3.751  17.402  0.00  0.00    +0.000 OA
ENDBRANCH  20  21
ENDBRANCH   2  20
TORSDOF 5
ENDMDL
MODEL 4
REMARK VINA RESULT:      -8.8      1.041      1.489
REMARK  Name = 
REMARK  5 active torsions:
REMARK  status: ('A' for Active; 'I' for Inactive)
REMARK    1  A    between atoms: C_2  and  C_3
REMARK    2  A    between atoms: C_3  and  N_4
REMARK    3  A    between atoms: N_15  and  C_16
REMARK    4  A    between atoms: C_19  and  S_20
REMARK    5  A    between atoms: S_20  and  N_23
REMARK                            x       y       z     vdW  Elec       q    Type
REMARK                         _______ _______ _______ _____ _____    ______ ____
ROOT
ATOM      1  O   UNL     1       1.336   5.392  20.721  0.00  0.00    +0.000 OA
ATOM      2  C   UNL     1       2.379   5.640  20.104  0.00  0.00    +0.000 C 
ATOM      3  N   UNL     1       2.708   6.863  19.527  0.00  0.00    +0.000 N 
ATOM      4  H   UNL     1       3.592   6.905  19.019  0.00  0.00    +0.000 HD
ENDROOT
BRANCH   3   5
ATOM      5  C   UNL     1       1.875   8.004  19.450  0.00  0.00    +0.000 A 
ATOM      6  C   UNL     1       1.130   8.488  20.536  0.00  0.00    +0.000 A 
ATOM      7  C   UNL     1       0.229   9.548  20.379  0.00  0.00    +0.000 A 
ATOM      8  C   UNL     1       0.073  10.157  19.135  0.00  0.00    +0.000 A 
ATOM      9  C   UNL     1       0.844   9.709  18.050  0.00  0.00    +0.000 A 
ATOM     10  C   UNL     1       1.753   8.655  18.219  0.00  0.00    +0.000 A 
BRANCH   8  11
ATOM     11  S   UNL     1      -1.294  11.282  18.875  0.00  0.00    +0.000 S 
ATOM     12  O   UNL     1      -1.779  11.653  20.189  0.00  0.00    +0.000 OA
ATOM     13  O   UNL     1      -0.828  12.294  17.952  0.00  0.00    +0.000 OA
BRANCH  11  14
ATOM     14  N   UNL     1      -2.518  10.420  18.107  0.00  0.00    +0.000 NA
ATOM     15  C   UNL     1      -2.270   9.785  16.792  0.00  0.00    +0.000 C 
ATOM     16  C   UNL     1      -2.721  10.710  15.661  0.00  0.00    +0.000 C 
ATOM     17  O   UNL     1      -4.096  11.097  15.810  0.00  0.00    +0.000 OA
ATOM     18  C   UNL     1      -4.345  11.731  17.075  0.00  0.00    +0.000 C 
ATOM     19  C   UNL     1      -3.932  10.835  18.247  0.00  0.00    +0.000 C 
ENDBRANCH  11  14
ENDBRANCH   8  11
ENDBRANCH   3   5
BRANCH   2  20
ATOM     20  C   UNL     1       3.474   4.574  20.042  0.00  0.00    +0.000 C 
BRANCH  20  21
ATOM     21  N   UNL     1       4.391   4.800  18.933  0.00  0.00    +0.000 N 
ATOM     22  N   UNL     1       5.540   5.472  19.231  0.00  0.00    +0.000 NA
ATOM     23  N   UNL     1       6.418   5.681  18.366  0.00  0.00    +0.000 NA
ATOM     24  C   UNL     1       6.251   5.186  17.068  0.00  0.00    +0.000 A 
ATOM     25  C   UNL     1       7.288   5.334  16.141  0.00  0.00    +0.000 A 
ATOM     26  C   UNL     1       7.166   4.828  14.841  0.00  0.00    +0.000 A 
ATOM     27  C   UNL     1       5.992   4.185  14.449  0.00  0.00    +0.000 A 
ATOM     28  C   UNL     1       4.949   4.037  15.358  0.00  0.00    +0.000 A 
ATOM     29  C   UNL     1       5.101   4.528  16.660  0.00  0.00    +0.000 A 
ATOM     30  C   UNL     1       4.091   4.303  17.684  0.00  0.00    +0.000 A 
ATOM     31  O   UNL     1       3.086   3.643  17.437  0.00  0.00    +0.000 OA
ENDBRANCH  20  21
ENDBRANCH   2  20
TORSDOF 5
ENDMDL
MODEL 5
REMARK VINA RESULT:      -8.7      2.279      3.176
REMARK  Name = 
REMARK  5 active torsions:
REMARK  status: ('A' for Active; 'I' for Inactive)
REMARK    1  A    between atoms: C_2  and  C_3
REMARK    2  A    between atoms: C_3  and  N_4
REMARK    3  A    between atoms: N_15  and  C_16
REMARK    4  A    between atoms: C_19  and  S_20
REMARK    5  A    between atoms: S_20  and  N_23
REMARK                            x       y       z     vdW  Elec       q    Type
REMARK                         _______ _______ _______ _____ _____    ______ ____
ROOT
ATOM      1  O   UNL     1       1.266   4.741  20.757  0.00  0.00    +0.000 OA
ATOM      2  C   UNL     1       2.335   4.946  20.168  0.00  0.00    +0.000 C 
ATOM      3  N   UNL     1       2.818   6.192  19.777  0.00  0.00    +0.000 N 
ATOM      4  H   UNL     1       3.702   6.198  19.268  0.00  0.00    +0.000 HD
ENDROOT
BRANCH   3   5
ATOM      5  C   UNL     1       2.136   7.426  19.885  0.00  0.00    +0.000 A 
ATOM      6  C   UNL     1       1.481   7.845  21.054  0.00  0.00    +0.000 A 
ATOM      7  C   UNL     1       0.720   9.019  21.075  0.00  0.00    +0.000 A 
ATOM      8  C   UNL     1       0.617   9.808  19.930  0.00  0.00    +0.000 A 
ATOM      9  C   UNL     1       1.301   9.423  18.766  0.00  0.00    +0.000 A 
ATOM     10  C   UNL     1       2.072   8.251  18.758  0.00  0.00    +0.000 A 
BRANCH   8  11
ATOM     11  S   UNL     1      -0.601  11.118  19.875  0.00  0.00    +0.000 S 
ATOM     12  O   UNL     1      -1.527  10.777  18.813  0.00  0.00    +0.000 OA
ATOM     13  O   UNL     1      -1.073  11.302  21.230  0.00  0.00    +0.000 OA
BRANCH  11  14
ATOM     14  N   UNL     1       0.196  12.529  19.420  0.00  0.00    +0.000 NA
ATOM     15  C   UNL     1       1.446  12.933  20.104  0.00  0.00    +0.000 C 
ATOM     16  C   UNL     1       1.138  13.913  21.236  0.00  0.00    +0.000 C 
ATOM     17  O   UNL     1       0.402  15.053  20.764  0.00  0.00    +0.000 OA
ATOM     18  C   UNL     1      -0.822  14.675  20.114  0.00  0.00    +0.000 C 
ATOM     19  C   UNL     1      -0.568  13.707  18.953  0.00  0.00    +0.000 C 
ENDBRANCH  11  14
ENDBRANCH   8  11
ENDBRANCH   3   5
BRANCH   2  20
ATOM     20  C   UNL     1       3.286   3.773  19.930  0.00  0.00    +0.000 C 
BRANCH  20  21
ATOM     21  N   UNL     1       4.293   4.085  18.925  0.00  0.00    +0.000 N 
ATOM     22  N   UNL     1       5.532   4.410  19.397  0.00  0.00    +0.000 NA
ATOM     23  N   UNL     1       6.483   4.651  18.622  0.00  0.00    +0.000 NA
ATOM     24  C   UNL     1       6.300   4.551  17.239  0.00  0.00    +0.000 A 
ATOM     25  C   UNL     1       7.400   4.719  16.390  0.00  0.00    +0.000 A 
ATOM     26  C   UNL     1       7.257   4.600  15.002  0.00  0.00    +0.000 A 
ATOM     27  C   UNL     1       6.006   4.333  14.447  0.00  0.00    +0.000 A 
ATOM     28  C   UNL     1       4.903   4.171  15.279  0.00  0.00    +0.000 A 
ATOM     29  C   UNL     1       5.071   4.270  16.665  0.00  0.00    +0.000 A 
ATOM     30  C   UNL     1       3.977   3.999  17.588  0.00  0.00    +0.000 A 
ATOM     31  O   UNL     1       2.879   3.643  17.170  0.00  0.00    +0.000 OA
ENDBRANCH  20  21
ENDBRANCH   2  20
TORSDOF 5
ENDMDL
MODEL 6
REMARK VINA RESULT:      -8.7      2.180      3.016
REMARK  Name = 
REMARK  5 active torsions:
REMARK  status: ('A' for Active; 'I' for Inactive)
REMARK    1  A    between atoms: C_2  and  C_3
REMARK    2  A    between atoms: C_3  and  N_4
REMARK    3  A    between atoms: N_15  and  C_16
REMARK    4  A    between atoms: C_19  and  S_20
REMARK    5  A    between atoms: S_20  and  N_23
REMARK                            x       y       z     vdW  Elec       q    Type
REMARK                         _______ _______ _______ _____ _____    ______ ____
ROOT
ATOM      1  O   UNL     1       1.058   4.908  20.561  0.00  0.00    +0.000 OA
ATOM      2  C   UNL     1       2.218   5.227  20.275  0.00  0.00    +0.000 C 
ATOM      3  N   UNL     1       2.682   6.529  20.106  0.00  0.00    +0.000 N 
ATOM      4  H   UNL     1       3.661   6.632  19.837  0.00  0.00    +0.000 HD
ENDROOT
BRANCH   3   5
ATOM      5  C   UNL     1       1.899   7.706  20.127  0.00  0.00    +0.000 A 
ATOM      6  C   UNL     1       1.690   8.512  18.997  0.00  0.00    +0.000 A 
ATOM      7  C   UNL     1       1.007   9.730  19.095  0.00  0.00    +0.000 A 
ATOM      8  C   UNL     1       0.502  10.154  20.324  0.00  0.00    +0.000 A 
ATOM      9  C   UNL     1       0.668   9.337  21.453  0.00  0.00    +0.000 A 
ATOM     10  C   UNL     1       1.343   8.113  21.344  0.00  0.00    +0.000 A 
BRANCH   8  11
ATOM     11  S   UNL     1      -0.080  11.837  20.498  0.00  0.00    +0.000 S 
ATOM     12  O   UNL     1      -1.502  11.813  20.217  0.00  0.00    +0.000 OA
ATOM     13  O   UNL     1       0.408  12.314  21.774  0.00  0.00    +0.000 OA
BRANCH  11  14
ATOM     14  N   UNL     1       0.659  12.755  19.297  0.00  0.00    +0.000 NA
ATOM     15  C   UNL     1       2.002  13.336  19.524  0.00  0.00    +0.000 C 
ATOM     16  C   UNL     1       1.881  14.774  20.029  0.00  0.00    +0.000 C 
ATOM     17  O   UNL     1       1.098  15.583  19.137  0.00  0.00    +0.000 OA
ATOM     18  C   UNL     1      -0.214  15.040  18.923  0.00  0.00    +0.000 C 
ATOM     19  C   UNL     1      -0.150  13.603  18.394  0.00  0.00    +0.000 C 
ENDBRANCH  11  14
ENDBRANCH   8  11
ENDBRANCH   3   5
BRANCH   2  20
ATOM     20  C   UNL     1       3.289   4.138  20.201  0.00  0.00    +0.000 C 
BRANCH  20  21
ATOM     21  N   UNL     1       3.934   4.097  18.895  0.00  0.00    +0.000 N 
ATOM     22  N   UNL     1       3.135   3.762  17.840  0.00  0.00    +0.000 NA
ATOM     23  N   UNL     1       3.574   3.741  16.670  0.00  0.00    +0.000 NA
ATOM     24  C   UNL     1       4.900   4.107  16.414  0.00  0.00    +0.000 A 
ATOM     25  C   UNL     1       5.345   4.182  15.090  0.00  0.00    +0.000 A 
ATOM     26  C   UNL     1       6.659   4.569  14.797  0.00  0.00    +0.000 A 
ATOM     27  C   UNL     1       7.548   4.864  15.830  0.00  0.00    +0.000 A 
ATOM     28  C   UNL     1       7.121   4.786  17.152  0.00  0.00    +0.000 A 
ATOM     29  C   UNL     1       5.797   4.421  17.423  0.00  0.00    +0.000 A 
ATOM     30  C   UNL     1       5.265   4.432  18.778  0.00  0.00    +0.000 A 
ATOM     31  O   UNL     1       5.960   4.796  19.722  0.00  0.00    +0.000 OA
ENDBRANCH  20  21
ENDBRANCH   2  20
TORSDOF 5
ENDMDL
MODEL 7
REMARK VINA RESULT:      -8.6      2.847     10.209
REMARK  Name = 
REMARK  5 active torsions:
REMARK  status: ('A' for Active; 'I' for Inactive)
REMARK    1  A    between atoms: C_2  and  C_3
REMARK    2  A    between atoms: C_3  and  N_4
REMARK    3  A    between atoms: N_15  and  C_16
REMARK    4  A    between atoms: C_19  and  S_20
REMARK    5  A    between atoms: S_20  and  N_23
REMARK                            x       y       z     vdW  Elec       q    Type
REMARK                         _______ _______ _______ _____ _____    ______ ____
ROOT
ATOM      1  O   UNL     1      -1.501   9.617  17.469  0.00  0.00    +0.000 OA
ATOM      2  C   UNL     1      -0.969  10.607  17.985  0.00  0.00    +0.000 C 
ATOM      3  N   UNL     1       0.285  10.632  18.588  0.00  0.00    +0.000 N 
ATOM      4  H   UNL     1       0.576  11.518  19.001  0.00  0.00    +0.000 HD
ENDROOT
BRANCH   3   5
ATOM      5  C   UNL     1       1.128   9.518  18.813  0.00  0.00    +0.000 A 
ATOM      6  C   UNL     1       1.944   8.956  17.818  0.00  0.00    +0.000 A 
ATOM      7  C   UNL     1       2.669   7.782  18.056  0.00  0.00    +0.000 A 
ATOM      8  C   UNL     1       2.607   7.161  19.303  0.00  0.00    +0.000 A 
ATOM      9  C   UNL     1       1.828   7.737  20.319  0.00  0.00    +0.000 A 
ATOM     10  C   UNL     1       1.115   8.919  20.076  0.00  0.00    +0.000 A 
BRANCH   8  11
ATOM     11  S   UNL     1       3.274   5.512  19.494  0.00  0.00    +0.000 S 
ATOM     12  O   UNL     1       4.717   5.649  19.503  0.00  0.00    +0.000 OA
ATOM     13  O   UNL     1       2.586   4.914  20.618  0.00  0.00    +0.000 OA
BRANCH  11  14
ATOM     14  N   UNL     1       2.857   4.636  18.119  0.00  0.00    +0.000 NA
ATOM     15  C   UNL     1       1.468   4.155  17.935  0.00  0.00    +0.000 C 
ATOM     16  C   UNL     1       1.332   2.718  18.439  0.00  0.00    +0.000 C 
ATOM     17  O   UNL     1       2.281   1.844  17.808  0.00  0.00    +0.000 OA
ATOM     18  C   UNL     1       3.634   2.290  17.996  0.00  0.00    +0.000 C 
ATOM     19  C   UNL     1       3.832   3.721  17.485  0.00  0.00    +0.000 C 
ENDBRANCH  11  14
ENDBRANCH   8  11
ENDBRANCH   3   5
BRANCH   2  20
ATOM     20  C   UNL     1      -1.666  11.964  17.875  0.00  0.00    +0.000 C 
BRANCH  20  21
ATOM     21  N   UNL     1      -2.832  12.049  18.744  0.00  0.00    +0.000 N 
ATOM     22  N   UNL     1      -2.602  12.489  20.016  0.00  0.00    +0.000 NA
ATOM     23  N   UNL     1      -3.536  12.643  20.832  0.00  0.00    +0.000 NA
ATOM     24  C   UNL     1      -4.856  12.403  20.437  0.00  0.00    +0.000 A 
ATOM     25  C   UNL     1      -5.898  12.683  21.327  0.00  0.00    +0.000 A 
ATOM     26  C   UNL     1      -7.232  12.478  20.956  0.00  0.00    +0.000 A 
ATOM     27  C   UNL     1      -7.537  11.970  19.694  0.00  0.00    +0.000 A 
ATOM     28  C   UNL     1      -6.510  11.680  18.800  0.00  0.00    +0.000 A 
ATOM     29  C   UNL     1      -5.185  11.914  19.182  0.00  0.00    +0.000 A 
ATOM     30  C   UNL     1      -4.079  11.736  18.251  0.00  0.00    +0.000 A 
ATOM     31  O   UNL     1      -4.287  11.404  17.088  0.00  0.00    +0.000 OA
ENDBRANCH  20  21
ENDBRANCH   2  20
TORSDOF 5
ENDMDL
MODEL 8
REMARK VINA RESULT:      -8.6      2.778     10.123
REMARK  Name = 
REMARK  5 active torsions:
REMARK  status: ('A' for Active; 'I' for Inactive)
REMARK    1  A    between atoms: C_2  and  C_3
REMARK    2  A    between atoms: C_3  and  N_4
REMARK    3  A    between atoms: N_15  and  C_16
REMARK    4  A    between atoms: C_19  and  S_20
REMARK    5  A    between atoms: S_20  and  N_23
REMARK                            x       y       z     vdW  Elec       q    Type
REMARK                         _______ _______ _______ _____ _____    ______ ____
ROOT
ATOM      1  O   UNL     1      -1.502   9.686  17.315  0.00  0.00    +0.000 OA
ATOM      2  C   UNL     1      -1.038  10.642  17.948  0.00  0.00    +0.000 C 
ATOM      3  N   UNL     1       0.144  10.630  18.682  0.00  0.00    +0.000 N 
ATOM      4  H   UNL     1       0.380  11.489  19.180  0.00  0.00    +0.000 HD
ENDROOT
BRANCH   3   5
ATOM      5  C   UNL     1       0.969   9.507  18.923  0.00  0.00    +0.000 A 
ATOM      6  C   UNL     1       1.762   8.906  17.933  0.00  0.00    +0.000 A 
ATOM      7  C   UNL     1       2.468   7.725  18.190  0.00  0.00    +0.000 A 
ATOM      8  C   UNL     1       2.410   7.135  19.452  0.00  0.00    +0.000 A 
ATOM      9  C   UNL     1       1.655   7.749  20.464  0.00  0.00    +0.000 A 
ATOM     10  C   UNL     1       0.961   8.939  20.201  0.00  0.00    +0.000 A 
BRANCH   8  11
ATOM     11  S   UNL     1       3.049   5.478  19.675  0.00  0.00    +0.000 S 
ATOM     12  O   UNL     1       4.492   5.576  19.579  0.00  0.00    +0.000 OA
ATOM     13  O   UNL     1       2.427   4.951  20.871  0.00  0.00    +0.000 OA
BRANCH  11  14
ATOM     14  N   UNL     1       2.516   4.552  18.375  0.00  0.00    +0.000 NA
ATOM     15  C   UNL     1       1.375   3.622  18.542  0.00  0.00    +0.000 C 
ATOM     16  C   UNL     1       1.879   2.214  18.859  0.00  0.00    +0.000 C 
ATOM     17  O   UNL     1       2.802   1.746  17.863  0.00  0.00    +0.000 OA
ATOM     18  C   UNL     1       3.923   2.630  17.706  0.00  0.00    +0.000 C 
ATOM     19  C   UNL     1       3.474   4.055  17.363  0.00  0.00    +0.000 C 
ENDBRANCH  11  14
ENDBRANCH   8  11
ENDBRANCH   3   5
BRANCH   2  20
ATOM     20  C   UNL     1      -1.733  12.001  17.851  0.00  0.00    +0.000 C 
BRANCH  20  21
ATOM     21  N   UNL     1      -3.136  11.923  18.237  0.00  0.00    +0.000 N 
ATOM     22  N   UNL     1      -3.985  11.394  17.309  0.00  0.00    +0.000 NA
ATOM     23  N   UNL     1      -5.202  11.239  17.551  0.00  0.00    +0.000 NA
ATOM     24  C   UNL     1      -5.711  11.571  18.811  0.00  0.00    +0.000 A 
ATOM     25  C   UNL     1      -7.051  11.292  19.103  0.00  0.00    +0.000 A 
ATOM     26  C   UNL     1      -7.587  11.587  20.362  0.00  0.00    +0.000 A 
ATOM     27  C   UNL     1      -6.791  12.187  21.337  0.00  0.00    +0.000 A 
ATOM     28  C   UNL     1      -5.459  12.478  21.059  0.00  0.00    +0.000 A 
ATOM     29  C   UNL     1      -4.936  12.152  19.802  0.00  0.00    +0.000 A 
ATOM     30  C   UNL     1      -3.524  12.330  19.494  0.00  0.00    +0.000 A 
ATOM     31  O   UNL     1      -2.744  12.743  20.347  0.00  0.00    +0.000 OA
ENDBRANCH  20  21
ENDBRANCH   2  20
TORSDOF 5
ENDMDL
MODEL 9
REMARK VINA RESULT:      -8.6      3.653     10.229
REMARK  Name = 
REMARK  5 active torsions:
REMARK  status: ('A' for Active; 'I' for Inactive)
REMARK    1  A    between atoms: C_2  and  C_3
REMARK    2  A    between atoms: C_3  and  N_4
REMARK    3  A    between atoms: N_15  and  C_16
REMARK    4  A    between atoms: C_19  and  S_20
REMARK    5  A    between atoms: S_20  and  N_23
REMARK                            x       y       z     vdW  Elec       q    Type
REMARK                         _______ _______ _______ _____ _____    ______ ____
ROOT
ATOM      1  O   UNL     1      -1.501  10.386  18.315  0.00  0.00    +0.000 OA
ATOM      2  C   UNL     1      -0.788  11.037  19.088  0.00  0.00    +0.000 C 
ATOM      3  N   UNL     1       0.483  10.670  19.522  0.00  0.00    +0.000 N 
ATOM      4  H   UNL     1       0.935  11.296  20.188  0.00  0.00    +0.000 HD
ENDROOT
BRANCH   3   5
ATOM      5  C   UNL     1       1.142   9.450  19.244  0.00  0.00    +0.000 A 
ATOM      6  C   UNL     1       1.349   8.450  20.207  0.00  0.00    +0.000 A 
ATOM      7  C   UNL     1       2.111   7.312  19.915  0.00  0.00    +0.000 A 
ATOM      8  C   UNL     1       2.663   7.146  18.646  0.00  0.00    +0.000 A 
ATOM      9  C   UNL     1       2.428   8.118  17.661  0.00  0.00    +0.000 A 
ATOM     10  C   UNL     1       1.653   9.249  17.958  0.00  0.00    +0.000 A 
BRANCH   8  11
ATOM     11  S   UNL     1       3.884   5.864  18.383  0.00  0.00    +0.000 S 
ATOM     12  O   UNL     1       4.852   6.401  17.447  0.00  0.00    +0.000 OA
ATOM     13  O   UNL     1       4.302   5.415  19.694  0.00  0.00    +0.000 OA
BRANCH  11  14
ATOM     14  N   UNL     1       3.109   4.575  17.628  0.00  0.00    +0.000 NA
ATOM     15  C   UNL     1       1.645   4.400  17.771  0.00  0.00    +0.000 C 
ATOM     16  C   UNL     1       1.334   3.434  18.914  0.00  0.00    +0.000 C 
ATOM     17  O   UNL     1       2.003   2.175  18.739  0.00  0.00    +0.000 OA
ATOM     18  C   UNL     1       3.426   2.330  18.619  0.00  0.00    +0.000 C 
ATOM     19  C   UNL     1       3.795   3.274  17.469  0.00  0.00    +0.000 C 
ENDBRANCH  11  14
ENDBRANCH   8  11
ENDBRANCH   3   5
BRANCH   2  20
ATOM     20  C   UNL     1      -1.259  12.420  19.542  0.00  0.00    +0.000 C 
BRANCH  20  21
ATOM     21  N   UNL     1      -2.049  12.351  20.764  0.00  0.00    +0.000 N 
ATOM     22  N   UNL     1      -1.373  12.011  21.899  0.00  0.00    +0.000 NA
ATOM     23  N   UNL     1      -1.943  11.967  23.011  0.00  0.00    +0.000 NA
ATOM     24  C   UNL     1      -3.295  12.311  23.116  0.00  0.00    +0.000 A 
ATOM     25  C   UNL     1      -3.892  12.360  24.381  0.00  0.00    +0.000 A 
ATOM     26  C   UNL     1      -5.236  12.725  24.525  0.00  0.00    +0.000 A 
ATOM     27  C   UNL     1      -6.004  13.024  23.401  0.00  0.00    +0.000 A 
ATOM     28  C   UNL     1      -5.426  12.971  22.136  0.00  0.00    +0.000 A 
ATOM     29  C   UNL     1      -4.075  12.628  22.015  0.00  0.00    +0.000 A 
ATOM     30  C   UNL     1      -3.389  12.666  20.730  0.00  0.00    +0.000 A 
ATOM     31  O   UNL     1      -3.977  13.035  19.718  0.00  0.00    +0.000 OA
ENDBRANCH  20  21
ENDBRANCH   2  20
TORSDOF 5
ENDMDL
