MODEL 1
REMARK VINA RESULT:      -7.9      0.000      0.000
REMARK  Name = 
REMARK  8 active torsions:
REMARK  status: ('A' for Active; 'I' for Inactive)
REMARK    1  A    between atoms: C_1  and  O_2
REMARK    2  A    between atoms: O_2  and  C_3
REMARK    3  A    between atoms: C_5  and  C_6
REMARK    4  A    between atoms: C_7  and  C_8
REMARK    5  A    between atoms: C_21  and  O_22
REMARK    6  A    between atoms: O_22  and  C_23
REMARK    7  A    between atoms: C_24  and  O_25
REMARK    8  A    between atoms: O_25  and  C_26
REMARK                            x       y       z     vdW  Elec       q    Type
REMARK                         _______ _______ _______ _____ _____    ______ ____
ROOT
ATOM      1  C   UNL     1       0.788   9.734  19.085  0.00  0.00    +0.000 A 
ATOM      2  C   UNL     1       0.015  10.700  18.464  0.00  0.00    +0.000 A 
ATOM      3  C   UNL     1      -0.850  11.473  19.244  0.00  0.00    +0.000 A 
ATOM      4  C   UNL     1      -0.938  11.285  20.615  0.00  0.00    +0.000 A 
ATOM      5  N   UNL     1      -1.803  12.025  21.327  0.00  0.00    +0.000 NA
ATOM      6  C   UNL     1      -1.862  11.791  22.639  0.00  0.00    +0.000 A 
ATOM      7  N   UNL     1      -2.756  12.537  23.377  0.00  0.00    +0.000 N 
ATOM      8  N   UNL     1      -1.095  10.923  23.290  0.00  0.00    +0.000 NA
ATOM      9  C   UNL     1      -0.239  10.198  22.546  0.00  0.00    +0.000 A 
ATOM     10  N   UNL     1       0.609   9.336  23.265  0.00  0.00    +0.000 N 
ATOM     11  C   UNL     1      -0.101  10.317  21.162  0.00  0.00    +0.000 A 
ATOM     12  N   UNL     1       0.744   9.538  20.422  0.00  0.00    +0.000 NA
ATOM     13  H   UNL     1      -2.968  13.398  22.897  0.00  0.00    +0.000 HD
ATOM     14  H   UNL     1      -2.438  12.605  24.335  0.00  0.00    +0.000 HD
ATOM     15  H   UNL     1       0.274   9.260  24.220  0.00  0.00    +0.000 HD
ATOM     16  H   UNL     1       0.725   8.455  22.777  0.00  0.00    +0.000 HD
ENDROOT
BRANCH   1  18
ATOM     17  C   UNL     1       2.281   7.778  18.788  0.00  0.00    +0.000 C 
ATOM     18  C   UNL     1       1.655   8.853  18.291  0.00  0.00    +0.000 C 
BRANCH  17  21
ATOM     19  C   UNL     1       5.178   6.331  16.880  0.00  0.00    +0.000 A 
ATOM     20  C   UNL     1       4.242   7.246  17.398  0.00  0.00    +0.000 A 
ATOM     21  C   UNL     1       3.063   6.815  17.999  0.00  0.00    +0.000 A 
ATOM     22  C   UNL     1       2.768   5.454  17.962  0.00  0.00    +0.000 A 
ATOM     23  C   UNL     1       3.641   4.525  17.366  0.00  0.00    +0.000 A 
ATOM     24  C   UNL     1       4.877   4.954  16.833  0.00  0.00    +0.000 A 
BRANCH  19  26
ATOM     25  C   UNL     1       7.398   6.980  17.393  0.00  0.00    +0.000 C 
ATOM     26  O   UNL     1       6.380   6.795  16.405  0.00  0.00    +0.000 OA
ENDBRANCH  19  26
BRANCH  23  27
ATOM     27  O   UNL     1       3.130   3.252  17.449  0.00  0.00    +0.000 OA
ATOM     28  C   UNL     1       1.907   3.024  18.127  0.00  0.00    +0.000 C 
ENDBRANCH  23  27
BRANCH  24  29
ATOM     29  O   UNL     1       5.676   3.971  16.315  0.00  0.00    +0.000 OA
ATOM     30  C   UNL     1       5.936   3.889  14.921  0.00  0.00    +0.000 C 
ENDBRANCH  24  29
ENDBRANCH  17  21
ENDBRANCH   1  18
TORSDOF 5
ENDMDL
MODEL 2
REMARK VINA RESULT:      -7.9      1.238      2.146
REMARK  Name = 
REMARK  8 active torsions:
REMARK  status: ('A' for Active; 'I' for Inactive)
REMARK    1  A    between atoms: C_1  and  O_2
REMARK    2  A    between atoms: O_2  and  C_3
REMARK    3  A    between atoms: C_5  and  C_6
REMARK    4  A    between atoms: C_7  and  C_8
REMARK    5  A    between atoms: C_21  and  O_22
REMARK    6  A    between atoms: O_22  and  C_23
REMARK    7  A    between atoms: C_24  and  O_25
REMARK    8  A    between atoms: O_25  and  C_26
REMARK                            x       y       z     vdW  Elec       q    Type
REMARK                         _______ _______ _______ _____ _____    ______ ____
ROOT
ATOM      1  C   UNL     1       1.061   9.462  19.333  0.00  0.00    +0.000 A 
ATOM      2  C   UNL     1       0.889   9.191  20.680  0.00  0.00    +0.000 A 
ATOM      3  C   UNL     1       0.033  10.007  21.427  0.00  0.00    +0.000 A 
ATOM      4  C   UNL     1      -0.637  11.068  20.837  0.00  0.00    +0.000 A 
ATOM      5  N   UNL     1      -1.427  11.849  21.594  0.00  0.00    +0.000 NA
ATOM      6  C   UNL     1      -2.034  12.867  20.981  0.00  0.00    +0.000 A 
ATOM      7  N   UNL     1      -2.836  13.681  21.751  0.00  0.00    +0.000 N 
ATOM      8  N   UNL     1      -1.954  13.127  19.680  0.00  0.00    +0.000 NA
ATOM      9  C   UNL     1      -1.154  12.325  18.953  0.00  0.00    +0.000 A 
ATOM     10  N   UNL     1      -1.139  12.578  17.570  0.00  0.00    +0.000 N 
ATOM     11  C   UNL     1      -0.434  11.248  19.473  0.00  0.00    +0.000 A 
ATOM     12  N   UNL     1       0.405  10.474  18.722  0.00  0.00    +0.000 NA
ATOM     13  H   UNL     1      -3.147  13.186  22.573  0.00  0.00    +0.000 HD
ATOM     14  H   UNL     1      -3.546  14.110  21.171  0.00  0.00    +0.000 HD
ATOM     15  H   UNL     1      -1.583  13.473  17.390  0.00  0.00    +0.000 HD
ATOM     16  H   UNL     1      -0.202  12.479  17.195  0.00  0.00    +0.000 HD
ENDROOT
BRANCH   1  18
ATOM     17  C   UNL     1       2.353   7.411  18.817  0.00  0.00    +0.000 C 
ATOM     18  C   UNL     1       2.006   8.674  18.532  0.00  0.00    +0.000 C 
BRANCH  17  21
ATOM     19  C   UNL     1       5.365   6.288  16.870  0.00  0.00    +0.000 A 
ATOM     20  C   UNL     1       4.365   7.104  17.433  0.00  0.00    +0.000 A 
ATOM     21  C   UNL     1       3.207   6.558  17.978  0.00  0.00    +0.000 A 
ATOM     22  C   UNL     1       2.999   5.188  17.838  0.00  0.00    +0.000 A 
ATOM     23  C   UNL     1       3.938   4.360  17.195  0.00  0.00    +0.000 A 
ATOM     24  C   UNL     1       5.152   4.902  16.719  0.00  0.00    +0.000 A 
BRANCH  19  26
ATOM     25  C   UNL     1       7.486   7.140  17.490  0.00  0.00    +0.000 C 
ATOM     26  O   UNL     1       6.543   6.859  16.454  0.00  0.00    +0.000 OA
ENDBRANCH  19  26
BRANCH  23  27
ATOM     27  O   UNL     1       3.507   3.056  17.178  0.00  0.00    +0.000 OA
ATOM     28  C   UNL     1       3.589   2.267  18.352  0.00  0.00    +0.000 C 
ENDBRANCH  23  27
BRANCH  24  29
ATOM     29  O   UNL     1       6.019   4.010  16.148  0.00  0.00    +0.000 OA
ATOM     30  C   UNL     1       6.151   3.908  14.738  0.00  0.00    +0.000 C 
ENDBRANCH  24  29
ENDBRANCH  17  21
ENDBRANCH   1  18
TORSDOF 5
ENDMDL
MODEL 3
REMARK VINA RESULT:      -7.8      2.055      3.835
REMARK  Name = 
REMARK  8 active torsions:
REMARK  status: ('A' for Active; 'I' for Inactive)
REMARK    1  A    between atoms: C_1  and  O_2
REMARK    2  A    between atoms: O_2  and  C_3
REMARK    3  A    between atoms: C_5  and  C_6
REMARK    4  A    between atoms: C_7  and  C_8
REMARK    5  A    between atoms: C_21  and  O_22
REMARK    6  A    between atoms: O_22  and  C_23
REMARK    7  A    between atoms: C_24  and  O_25
REMARK    8  A    between atoms: O_25  and  C_26
REMARK                            x       y       z     vdW  Elec       q    Type
REMARK                         _______ _______ _______ _____ _____    ______ ____
ROOT
ATOM      1  C   UNL     1       0.727   9.449  18.339  0.00  0.00    +0.000 A 
ATOM      2  C   UNL     1       0.731  10.122  19.550  0.00  0.00    +0.000 A 
ATOM      3  C   UNL     1      -0.370  10.918  19.880  0.00  0.00    +0.000 A 
ATOM      4  C   UNL     1      -1.451  11.036  19.020  0.00  0.00    +0.000 A 
ATOM      5  N   UNL     1      -2.477  11.834  19.358  0.00  0.00    +0.000 NA
ATOM      6  C   UNL     1      -3.482  11.926  18.487  0.00  0.00    +0.000 A 
ATOM      7  N   UNL     1      -4.534  12.753  18.818  0.00  0.00    +0.000 N 
ATOM      8  N   UNL     1      -3.563  11.251  17.345  0.00  0.00    +0.000 NA
ATOM      9  C   UNL     1      -2.518  10.460  17.038  0.00  0.00    +0.000 A 
ATOM     10  N   UNL     1      -2.656   9.704  15.860  0.00  0.00    +0.000 N 
ATOM     11  C   UNL     1      -1.387  10.299  17.842  0.00  0.00    +0.000 A 
ATOM     12  N   UNL     1      -0.319   9.524  17.487  0.00  0.00    +0.000 NA
ATOM     13  H   UNL     1      -4.575  12.879  19.819  0.00  0.00    +0.000 HD
ATOM     14  H   UNL     1      -5.377  12.439  18.355  0.00  0.00    +0.000 HD
ATOM     15  H   UNL     1      -3.448  10.054  15.331  0.00  0.00    +0.000 HD
ATOM     16  H   UNL     1      -1.780   9.667  15.351  0.00  0.00    +0.000 HD
ENDROOT
BRANCH   1  18
ATOM     17  C   UNL     1       2.242   7.492  18.479  0.00  0.00    +0.000 C 
ATOM     18  C   UNL     1       1.896   8.662  17.924  0.00  0.00    +0.000 C 
BRANCH  17  21
ATOM     19  C   UNL     1       3.994   4.409  17.233  0.00  0.00    +0.000 A 
ATOM     20  C   UNL     1       3.110   5.256  17.930  0.00  0.00    +0.000 A 
ATOM     21  C   UNL     1       3.335   6.626  18.015  0.00  0.00    +0.000 A 
ATOM     22  C   UNL     1       4.529   7.127  17.502  0.00  0.00    +0.000 A 
ATOM     23  C   UNL     1       5.476   6.291  16.883  0.00  0.00    +0.000 A 
ATOM     24  C   UNL     1       5.208   4.914  16.720  0.00  0.00    +0.000 A 
BRANCH  19  26
ATOM     25  C   UNL     1       3.499   2.344  18.281  0.00  0.00    +0.000 C 
ATOM     26  O   UNL     1       3.670   3.085  17.071  0.00  0.00    +0.000 OA
ENDBRANCH  19  26
BRANCH  23  27
ATOM     27  O   UNL     1       6.567   7.014  16.466  0.00  0.00    +0.000 OA
ATOM     28  C   UNL     1       7.518   7.469  17.413  0.00  0.00    +0.000 C 
ENDBRANCH  23  27
BRANCH  24  29
ATOM     29  O   UNL     1       6.170   4.192  16.067  0.00  0.00    +0.000 OA
ATOM     30  C   UNL     1       6.154   4.048  14.654  0.00  0.00    +0.000 C 
ENDBRANCH  24  29
ENDBRANCH  17  21
ENDBRANCH   1  18
TORSDOF 5
ENDMDL
MODEL 4
REMARK VINA RESULT:      -7.8      4.851      8.806
REMARK  Name = 
REMARK  8 active torsions:
REMARK  status: ('A' for Active; 'I' for Inactive)
REMARK    1  A    between atoms: C_1  and  O_2
REMARK    2  A    between atoms: O_2  and  C_3
REMARK    3  A    between atoms: C_5  and  C_6
REMARK    4  A    between atoms: C_7  and  C_8
REMARK    5  A    between atoms: C_21  and  O_22
REMARK    6  A    between atoms: O_22  and  C_23
REMARK    7  A    between atoms: C_24  and  O_25
REMARK    8  A    between atoms: O_25  and  C_26
REMARK                            x       y       z     vdW  Elec       q    Type
REMARK                         _______ _______ _______ _____ _____    ______ ____
ROOT
ATOM      1  C   UNL     1       3.111   7.040  18.095  0.00  0.00    +0.000 A 
ATOM      2  C   UNL     1       4.339   6.762  17.519  0.00  0.00    +0.000 A 
ATOM      3  C   UNL     1       4.978   5.561  17.844  0.00  0.00    +0.000 A 
ATOM      4  C   UNL     1       4.399   4.659  18.723  0.00  0.00    +0.000 A 
ATOM      5  N   UNL     1       5.057   3.530  19.034  0.00  0.00    +0.000 NA
ATOM      6  C   UNL     1       4.465   2.705  19.899  0.00  0.00    +0.000 A 
ATOM      7  N   UNL     1       5.137   1.550  20.236  0.00  0.00    +0.000 N 
ATOM      8  N   UNL     1       3.260   2.895  20.427  0.00  0.00    +0.000 NA
ATOM      9  C   UNL     1       2.629   4.036  20.093  0.00  0.00    +0.000 A 
ATOM     10  N   UNL     1       1.329   4.183  20.608  0.00  0.00    +0.000 N 
ATOM     11  C   UNL     1       3.150   5.002  19.228  0.00  0.00    +0.000 A 
ATOM     12  N   UNL     1       2.508   6.173  18.939  0.00  0.00    +0.000 NA
ATOM     13  H   UNL     1       5.798   1.309  19.512  0.00  0.00    +0.000 HD
ATOM     14  H   UNL     1       4.476   0.837  20.516  0.00  0.00    +0.000 HD
ATOM     15  H   UNL     1       1.175   3.482  21.326  0.00  0.00    +0.000 HD
ATOM     16  H   UNL     1       1.162   5.140  20.898  0.00  0.00    +0.000 HD
ENDROOT
BRANCH   1  18
ATOM     17  C   UNL     1       1.677   8.959  18.732  0.00  0.00    +0.000 C 
ATOM     18  C   UNL     1       2.443   8.323  17.836  0.00  0.00    +0.000 C 
BRANCH  17  21
ATOM     19  C   UNL     1      -0.909  11.686  18.729  0.00  0.00    +0.000 A 
ATOM     20  C   UNL     1      -0.297  10.424  18.609  0.00  0.00    +0.000 A 
ATOM     21  C   UNL     1       1.087  10.292  18.546  0.00  0.00    +0.000 A 
ATOM     22  C   UNL     1       1.853  11.453  18.474  0.00  0.00    +0.000 A 
ATOM     23  C   UNL     1       1.263  12.731  18.496  0.00  0.00    +0.000 A 
ATOM     24  C   UNL     1      -0.135  12.863  18.647  0.00  0.00    +0.000 A 
BRANCH  19  26
ATOM     25  C   UNL     1      -3.056  11.512  17.744  0.00  0.00    +0.000 C 
ATOM     26  O   UNL     1      -2.268  11.760  18.911  0.00  0.00    +0.000 OA
ENDBRANCH  19  26
BRANCH  23  27
ATOM     27  O   UNL     1       2.220  13.712  18.408  0.00  0.00    +0.000 OA
ATOM     28  C   UNL     1       2.869  14.174  19.579  0.00  0.00    +0.000 C 
ENDBRANCH  23  27
BRANCH  24  29
ATOM     29  O   UNL     1      -0.610  14.146  18.702  0.00  0.00    +0.000 OA
ATOM     30  C   UNL     1      -0.851  14.792  19.944  0.00  0.00    +0.000 C 
ENDBRANCH  24  29
ENDBRANCH  17  21
ENDBRANCH   1  18
TORSDOF 5
ENDMDL
MODEL 5
REMARK VINA RESULT:      -7.8      1.796      2.597
REMARK  Name = 
REMARK  8 active torsions:
REMARK  status: ('A' for Active; 'I' for Inactive)
REMARK    1  A    between atoms: C_1  and  O_2
REMARK    2  A    between atoms: O_2  and  C_3
REMARK    3  A    between atoms: C_5  and  C_6
REMARK    4  A    between atoms: C_7  and  C_8
REMARK    5  A    between atoms: C_21  and  O_22
REMARK    6  A    between atoms: O_22  and  C_23
REMARK    7  A    between atoms: C_24  and  O_25
REMARK    8  A    between atoms: O_25  and  C_26
REMARK                            x       y       z     vdW  Elec       q    Type
REMARK                         _______ _______ _______ _____ _____    ______ ____
ROOT
ATOM      1  C   UNL     1       0.779   9.643  18.564  0.00  0.00    +0.000 A 
ATOM      2  C   UNL     1       0.981  10.280  19.777  0.00  0.00    +0.000 A 
ATOM      3  C   UNL     1      -0.030  11.105  20.281  0.00  0.00    +0.000 A 
ATOM      4  C   UNL     1      -1.217  11.285  19.587  0.00  0.00    +0.000 A 
ATOM      5  N   UNL     1      -2.152  12.109  20.088  0.00  0.00    +0.000 NA
ATOM      6  C   UNL     1      -3.267  12.262  19.372  0.00  0.00    +0.000 A 
ATOM      7  N   UNL     1      -4.228  13.115  19.870  0.00  0.00    +0.000 N 
ATOM      8  N   UNL     1      -3.536  11.622  18.238  0.00  0.00    +0.000 NA
ATOM      9  C   UNL     1      -2.577  10.804  17.766  0.00  0.00    +0.000 A 
ATOM     10  N   UNL     1      -2.911  10.087  16.603  0.00  0.00    +0.000 N 
ATOM     11  C   UNL     1      -1.350  10.581  18.395  0.00  0.00    +0.000 A 
ATOM     12  N   UNL     1      -0.375   9.778  17.873  0.00  0.00    +0.000 NA
ATOM     13  H   UNL     1      -4.121  13.214  20.868  0.00  0.00    +0.000 HD
ATOM     14  H   UNL     1      -5.140  12.844  19.525  0.00  0.00    +0.000 HD
ATOM     15  H   UNL     1      -3.756  10.479  16.201  0.00  0.00    +0.000 HD
ATOM     16  H   UNL     1      -2.118  10.034  15.972  0.00  0.00    +0.000 HD
ENDROOT
BRANCH   1  18
ATOM     17  C   UNL     1       2.190   7.611  18.413  0.00  0.00    +0.000 C 
ATOM     18  C   UNL     1       1.845   8.827  17.968  0.00  0.00    +0.000 C 
BRANCH  17  21
ATOM     19  C   UNL     1       5.437   6.478  16.898  0.00  0.00    +0.000 A 
ATOM     20  C   UNL     1       4.338   7.281  17.258  0.00  0.00    +0.000 A 
ATOM     21  C   UNL     1       3.172   6.723  17.773  0.00  0.00    +0.000 A 
ATOM     22  C   UNL     1       3.067   5.335  17.805  0.00  0.00    +0.000 A 
ATOM     23  C   UNL     1       4.114   4.504  17.362  0.00  0.00    +0.000 A 
ATOM     24  C   UNL     1       5.330   5.071  16.921  0.00  0.00    +0.000 A 
BRANCH  19  26
ATOM     25  C   UNL     1       7.533   7.359  17.563  0.00  0.00    +0.000 C 
ATOM     26  O   UNL     1       6.610   7.077  16.508  0.00  0.00    +0.000 OA
ENDBRANCH  19  26
BRANCH  23  27
ATOM     27  O   UNL     1       3.771   3.180  17.487  0.00  0.00    +0.000 OA
ATOM     28  C   UNL     1       3.183   2.711  18.688  0.00  0.00    +0.000 C 
ENDBRANCH  23  27
BRANCH  24  29
ATOM     29  O   UNL     1       6.302   4.182  16.552  0.00  0.00    +0.000 OA
ATOM     30  C   UNL     1       6.501   3.826  15.191  0.00  0.00    +0.000 C 
ENDBRANCH  24  29
ENDBRANCH  17  21
ENDBRANCH   1  18
TORSDOF 5
ENDMDL
MODEL 6
REMARK VINA RESULT:      -7.7      4.867      8.599
REMARK  Name = 
REMARK  8 active torsions:
REMARK  status: ('A' for Active; 'I' for Inactive)
REMARK    1  A    between atoms: C_1  and  O_2
REMARK    2  A    between atoms: O_2  and  C_3
REMARK    3  A    between atoms: C_5  and  C_6
REMARK    4  A    between atoms: C_7  and  C_8
REMARK    5  A    between atoms: C_21  and  O_22
REMARK    6  A    between atoms: O_22  and  C_23
REMARK    7  A    between atoms: C_24  and  O_25
REMARK    8  A    between atoms: O_25  and  C_26
REMARK                            x       y       z     vdW  Elec       q    Type
REMARK                         _______ _______ _______ _____ _____    ______ ____
ROOT
ATOM      1  C   UNL     1       2.620   6.746  18.679  0.00  0.00    +0.000 A 
ATOM      2  C   UNL     1       3.666   6.584  17.786  0.00  0.00    +0.000 A 
ATOM      3  C   UNL     1       4.138   5.293  17.530  0.00  0.00    +0.000 A 
ATOM      4  C   UNL     1       3.573   4.189  18.151  0.00  0.00    +0.000 A 
ATOM      5  N   UNL     1       4.073   2.967  17.902  0.00  0.00    +0.000 NA
ATOM      6  C   UNL     1       3.505   1.942  18.540  0.00  0.00    +0.000 A 
ATOM      7  N   UNL     1       4.019   0.685  18.302  0.00  0.00    +0.000 N 
ATOM      8  N   UNL     1       2.458   2.038  19.352  0.00  0.00    +0.000 NA
ATOM      9  C   UNL     1       1.982   3.277  19.578  0.00  0.00    +0.000 A 
ATOM     10  N   UNL     1       0.833   3.347  20.386  0.00  0.00    +0.000 N 
ATOM     11  C   UNL     1       2.504   4.439  19.005  0.00  0.00    +0.000 A 
ATOM     12  N   UNL     1       2.031   5.690  19.284  0.00  0.00    +0.000 NA
ATOM     13  H   UNL     1       4.496   0.667  17.413  0.00  0.00    +0.000 HD
ATOM     14  H   UNL     1       3.304  -0.013  18.459  0.00  0.00    +0.000 HD
ATOM     15  H   UNL     1       0.687   2.449  20.835  0.00  0.00    +0.000 HD
ATOM     16  H   UNL     1       0.883   4.140  21.016  0.00  0.00    +0.000 HD
ENDROOT
BRANCH   1  18
ATOM     17  C   UNL     1       1.795   9.017  18.126  0.00  0.00    +0.000 C 
ATOM     18  C   UNL     1       2.145   8.091  19.029  0.00  0.00    +0.000 C 
BRANCH  17  21
ATOM     19  C   UNL     1       1.485  12.754  18.377  0.00  0.00    +0.000 A 
ATOM     20  C   UNL     1       2.027  11.455  18.374  0.00  0.00    +0.000 A 
ATOM     21  C   UNL     1       1.212  10.329  18.441  0.00  0.00    +0.000 A 
ATOM     22  C   UNL     1      -0.153  10.519  18.644  0.00  0.00    +0.000 A 
ATOM     23  C   UNL     1      -0.712  11.806  18.746  0.00  0.00    +0.000 A 
ATOM     24  C   UNL     1       0.104  12.949  18.591  0.00  0.00    +0.000 A 
BRANCH  19  26
ATOM     25  C   UNL     1       3.056  14.244  19.338  0.00  0.00    +0.000 C 
ATOM     26  O   UNL     1       2.316  13.831  18.187  0.00  0.00    +0.000 OA
ENDBRANCH  19  26
BRANCH  23  27
ATOM     27  O   UNL     1      -2.069  11.734  18.949  0.00  0.00    +0.000 OA
ATOM     28  C   UNL     1      -2.939  11.543  17.848  0.00  0.00    +0.000 C 
ENDBRANCH  23  27
BRANCH  24  29
ATOM     29  O   UNL     1      -0.539  14.155  18.664  0.00  0.00    +0.000 OA
ATOM     30  C   UNL     1      -0.706  14.829  19.903  0.00  0.00    +0.000 C 
ENDBRANCH  24  29
ENDBRANCH  17  21
ENDBRANCH   1  18
TORSDOF 5
ENDMDL
MODEL 7
REMARK VINA RESULT:      -7.7      7.623     10.207
REMARK  Name = 
REMARK  8 active torsions:
REMARK  status: ('A' for Active; 'I' for Inactive)
REMARK    1  A    between atoms: C_1  and  O_2
REMARK    2  A    between atoms: O_2  and  C_3
REMARK    3  A    between atoms: C_5  and  C_6
REMARK    4  A    between atoms: C_7  and  C_8
REMARK    5  A    between atoms: C_21  and  O_22
REMARK    6  A    between atoms: O_22  and  C_23
REMARK    7  A    between atoms: C_24  and  O_25
REMARK    8  A    between atoms: O_25  and  C_26
REMARK                            x       y       z     vdW  Elec       q    Type
REMARK                         _______ _______ _______ _____ _____    ______ ____
ROOT
ATOM      1  C   UNL     1       8.019   7.977  18.162  0.00  0.00    +0.000 A 
ATOM      2  C   UNL     1       8.403   7.012  19.079  0.00  0.00    +0.000 A 
ATOM      3  C   UNL     1       7.768   5.766  19.050  0.00  0.00    +0.000 A 
ATOM      4  C   UNL     1       6.774   5.492  18.122  0.00  0.00    +0.000 A 
ATOM      5  N   UNL     1       6.166   4.294  18.145  0.00  0.00    +0.000 NA
ATOM      6  C   UNL     1       5.204   4.089  17.244  0.00  0.00    +0.000 A 
ATOM      7  N   UNL     1       4.564   2.868  17.267  0.00  0.00    +0.000 N 
ATOM      8  N   UNL     1       4.846   4.957  16.303  0.00  0.00    +0.000 NA
ATOM      9  C   UNL     1       5.476   6.147  16.310  0.00  0.00    +0.000 A 
ATOM     10  N   UNL     1       5.130   7.021  15.264  0.00  0.00    +0.000 N 
ATOM     11  C   UNL     1       6.475   6.505  17.217  0.00  0.00    +0.000 A 
ATOM     12  N   UNL     1       7.070   7.735  17.231  0.00  0.00    +0.000 NA
ATOM     13  H   UNL     1       5.153   2.176  17.705  0.00  0.00    +0.000 HD
ATOM     14  H   UNL     1       4.201   2.654  16.348  0.00  0.00    +0.000 HD
ATOM     15  H   UNL     1       4.296   6.674  14.802  0.00  0.00    +0.000 HD
ATOM     16  H   UNL     1       5.071   7.977  15.599  0.00  0.00    +0.000 HD
ENDROOT
BRANCH   1  18
ATOM     17  C   UNL     1       9.049   9.904  19.332  0.00  0.00    +0.000 C 
ATOM     18  C   UNL     1       8.611   9.320  18.208  0.00  0.00    +0.000 C 
BRANCH  17  21
ATOM     19  C   UNL     1      11.277  12.750  18.300  0.00  0.00    +0.000 A 
ATOM     20  C   UNL     1      10.767  11.450  18.487  0.00  0.00    +0.000 A 
ATOM     21  C   UNL     1       9.746  11.197  19.397  0.00  0.00    +0.000 A 
ATOM     22  C   UNL     1       9.325  12.241  20.218  0.00  0.00    +0.000 A 
ATOM     23  C   UNL     1       9.882  13.529  20.119  0.00  0.00    +0.000 A 
ATOM     24  C   UNL     1      10.857  13.806  19.136  0.00  0.00    +0.000 A 
BRANCH  19  26
ATOM     25  C   UNL     1      11.656  13.417  16.059  0.00  0.00    +0.000 C 
ATOM     26  O   UNL     1      12.197  12.975  17.306  0.00  0.00    +0.000 OA
ENDBRANCH  19  26
BRANCH  23  27
ATOM     27  O   UNL     1       9.309  14.379  21.033  0.00  0.00    +0.000 OA
ATOM     28  C   UNL     1       8.631  13.854  22.160  0.00  0.00    +0.000 C 
ENDBRANCH  23  27
BRANCH  24  29
ATOM     29  O   UNL     1      11.307  15.098  19.090  0.00  0.00    +0.000 OA
ATOM     30  C   UNL     1      10.601  16.100  18.372  0.00  0.00    +0.000 C 
ENDBRANCH  24  29
ENDBRANCH  17  21
ENDBRANCH   1  18
TORSDOF 5
ENDMDL
MODEL 8
REMARK VINA RESULT:      -7.7      7.495     10.081
REMARK  Name = 
REMARK  8 active torsions:
REMARK  status: ('A' for Active; 'I' for Inactive)
REMARK    1  A    between atoms: C_1  and  O_2
REMARK    2  A    between atoms: O_2  and  C_3
REMARK    3  A    between atoms: C_5  and  C_6
REMARK    4  A    between atoms: C_7  and  C_8
REMARK    5  A    between atoms: C_21  and  O_22
REMARK    6  A    between atoms: O_22  and  C_23
REMARK    7  A    between atoms: C_24  and  O_25
REMARK    8  A    between atoms: O_25  and  C_26
REMARK                            x       y       z     vdW  Elec       q    Type
REMARK                         _______ _______ _______ _____ _____    ______ ____
ROOT
ATOM      1  C   UNL     1       8.064   7.780  18.158  0.00  0.00    +0.000 A 
ATOM      2  C   UNL     1       8.360   6.853  19.144  0.00  0.00    +0.000 A 
ATOM      3  C   UNL     1       7.643   5.653  19.177  0.00  0.00    +0.000 A 
ATOM      4  C   UNL     1       6.653   5.386  18.242  0.00  0.00    +0.000 A 
ATOM      5  N   UNL     1       5.964   4.236  18.324  0.00  0.00    +0.000 NA
ATOM      6  C   UNL     1       5.011   4.038  17.413  0.00  0.00    +0.000 A 
ATOM      7  N   UNL     1       4.289   2.866  17.496  0.00  0.00    +0.000 N 
ATOM      8  N   UNL     1       4.735   4.864  16.409  0.00  0.00    +0.000 NA
ATOM      9  C   UNL     1       5.445   6.007  16.358  0.00  0.00    +0.000 A 
ATOM     10  N   UNL     1       5.183   6.833  15.250  0.00  0.00    +0.000 N 
ATOM     11  C   UNL     1       6.445   6.356  17.267  0.00  0.00    +0.000 A 
ATOM     12  N   UNL     1       7.122   7.543  17.219  0.00  0.00    +0.000 NA
ATOM     13  H   UNL     1       4.819   2.166  17.992  0.00  0.00    +0.000 HD
ATOM     14  H   UNL     1       3.933   2.617  16.582  0.00  0.00    +0.000 HD
ATOM     15  H   UNL     1       4.338   6.513  14.788  0.00  0.00    +0.000 HD
ATOM     16  H   UNL     1       5.181   7.810  15.521  0.00  0.00    +0.000 HD
ENDROOT
BRANCH   1  18
ATOM     17  C   UNL     1       8.140  10.234  17.816  0.00  0.00    +0.000 C 
ATOM     18  C   UNL     1       8.745   9.081  18.135  0.00  0.00    +0.000 C 
BRANCH  17  21
ATOM     19  C   UNL     1       8.423  13.981  17.837  0.00  0.00    +0.000 A 
ATOM     20  C   UNL     1       8.005  12.673  17.524  0.00  0.00    +0.000 A 
ATOM     21  C   UNL     1       8.761  11.564  17.890  0.00  0.00    +0.000 A 
ATOM     22  C   UNL     1      10.011  11.783  18.464  0.00  0.00    +0.000 A 
ATOM     23  C   UNL     1      10.497  13.081  18.704  0.00  0.00    +0.000 A 
ATOM     24  C   UNL     1       9.692  14.205  18.411  0.00  0.00    +0.000 A 
BRANCH  19  26
ATOM     25  C   UNL     1       6.371  15.065  18.312  0.00  0.00    +0.000 C 
ATOM     26  O   UNL     1       7.589  15.037  17.565  0.00  0.00    +0.000 OA
ENDBRANCH  19  26
BRANCH  23  27
ATOM     27  O   UNL     1      11.748  13.037  19.269  0.00  0.00    +0.000 OA
ATOM     28  C   UNL     1      12.330  11.789  19.603  0.00  0.00    +0.000 C 
ENDBRANCH  23  27
BRANCH  24  29
ATOM     29  O   UNL     1      10.235  15.423  18.720  0.00  0.00    +0.000 OA
ATOM     30  C   UNL     1      10.961  16.173  17.757  0.00  0.00    +0.000 C 
ENDBRANCH  24  29
ENDBRANCH  17  21
ENDBRANCH   1  18
TORSDOF 5
ENDMDL
MODEL 9
REMARK VINA RESULT:      -7.7      4.830      8.915
REMARK  Name = 
REMARK  8 active torsions:
REMARK  status: ('A' for Active; 'I' for Inactive)
REMARK    1  A    between atoms: C_1  and  O_2
REMARK    2  A    between atoms: O_2  and  C_3
REMARK    3  A    between atoms: C_5  and  C_6
REMARK    4  A    between atoms: C_7  and  C_8
REMARK    5  A    between atoms: C_21  and  O_22
REMARK    6  A    between atoms: O_22  and  C_23
REMARK    7  A    between atoms: C_24  and  O_25
REMARK    8  A    between atoms: O_25  and  C_26
REMARK                            x       y       z     vdW  Elec       q    Type
REMARK                         _______ _______ _______ _____ _____    ______ ____
ROOT
ATOM      1  C   UNL     1       2.646   6.790  18.521  0.00  0.00    +0.000 A 
ATOM      2  C   UNL     1       3.758   6.605  17.717  0.00  0.00    +0.000 A 
ATOM      3  C   UNL     1       4.239   5.307  17.523  0.00  0.00    +0.000 A 
ATOM      4  C   UNL     1       3.620   4.218  18.119  0.00  0.00    +0.000 A 
ATOM      5  N   UNL     1       4.130   2.989  17.934  0.00  0.00    +0.000 NA
ATOM      6  C   UNL     1       3.507   1.980  18.544  0.00  0.00    +0.000 A 
ATOM      7  N   UNL     1       4.029   0.716  18.372  0.00  0.00    +0.000 N 
ATOM      8  N   UNL     1       2.400   2.097  19.270  0.00  0.00    +0.000 NA
ATOM      9  C   UNL     1       1.916   3.343  19.434  0.00  0.00    +0.000 A 
ATOM     10  N   UNL     1       0.708   3.435  20.147  0.00  0.00    +0.000 N 
ATOM     11  C   UNL     1       2.489   4.490  18.881  0.00  0.00    +0.000 A 
ATOM     12  N   UNL     1       2.004   5.750  19.098  0.00  0.00    +0.000 NA
ATOM     13  H   UNL     1       4.575   0.678  17.523  0.00  0.00    +0.000 HD
ATOM     14  H   UNL     1       3.300   0.024  18.485  0.00  0.00    +0.000 HD
ATOM     15  H   UNL     1       0.521   2.546  20.600  0.00  0.00    +0.000 HD
ATOM     16  H   UNL     1       0.714   4.240  20.764  0.00  0.00    +0.000 HD
ENDROOT
BRANCH   1  18
ATOM     17  C   UNL     1       1.527   8.915  17.909  0.00  0.00    +0.000 C 
ATOM     18  C   UNL     1       2.154   8.144  18.808  0.00  0.00    +0.000 C 
BRANCH  17  21
ATOM     19  C   UNL     1      -1.097  11.460  18.780  0.00  0.00    +0.000 A 
ATOM     20  C   UNL     1      -0.462  10.326  18.239  0.00  0.00    +0.000 A 
ATOM     21  C   UNL     1       0.925  10.226  18.192  0.00  0.00    +0.000 A 
ATOM     22  C   UNL     1       1.676  11.334  18.576  0.00  0.00    +0.000 A 
ATOM     23  C   UNL     1       1.066  12.518  19.033  0.00  0.00    +0.000 A 
ATOM     24  C   UNL     1      -0.338  12.587  19.162  0.00  0.00    +0.000 A 
BRANCH  19  26
ATOM     25  C   UNL     1      -3.202  11.324  17.702  0.00  0.00    +0.000 C 
ATOM     26  O   UNL     1      -2.463  11.465  18.918  0.00  0.00    +0.000 OA
ENDBRANCH  19  26
BRANCH  23  27
ATOM     27  O   UNL     1       2.011  13.464  19.345  0.00  0.00    +0.000 OA
ATOM     28  C   UNL     1       2.587  13.489  20.640  0.00  0.00    +0.000 C 
ENDBRANCH  23  27
BRANCH  24  29
ATOM     29  O   UNL     1      -0.834  13.764  19.655  0.00  0.00    +0.000 OA
ATOM     30  C   UNL     1      -1.109  13.926  21.039  0.00  0.00    +0.000 C 
ENDBRANCH  24  29
ENDBRANCH  17  21
ENDBRANCH   1  18
TORSDOF 5
ENDMDL
