MODEL 1
REMARK VINA RESULT:      -8.1      0.000      0.000
REMARK  Name = 
REMARK  2 active torsions:
REMARK  status: ('A' for Active; 'I' for Inactive)
REMARK    1  A    between atoms: C_15  and  N_16
REMARK    2  A    between atoms: N_16  and  C_17
REMARK                            x       y       z     vdW  Elec       q    Type
REMARK                         _______ _______ _______ _____ _____    ______ ____
ROOT
ATOM      1 CL   UNL     1       1.485   5.962  20.627  0.00  0.00    +0.000 Cl
ATOM      2  C   UNL     1       2.649   6.439  19.494  0.00  0.00    +0.000 A 
ATOM      3  N   UNL     1       2.607   7.625  18.808  0.00  0.00    +0.000 NA
ATOM      4  C   UNL     1       3.543   7.509  17.883  0.00  0.00    +0.000 A 
ATOM      5  N   UNL     1       3.987   6.212  17.835  0.00  0.00    +0.000 N 
ATOM      6  C   UNL     1       3.776   5.751  19.117  0.00  0.00    +0.000 A 
ATOM      7  C   UNL     1       4.543   4.631  19.696  0.00  0.00    +0.000 C 
ATOM      8  N   UNL     1       4.062   3.421  19.097  0.00  0.00    +0.000 N 
ATOM      9  N   UNL     1       3.393   2.503  19.809  0.00  0.00    +0.000 NA
ATOM     10  C   UNL     1       2.928   1.722  18.836  0.00  0.00    +0.000 A 
ATOM     11  N   UNL     1       3.314   2.076  17.566  0.00  0.00    +0.000 NA
ATOM     12  C   UNL     1       4.009   3.186  17.747  0.00  0.00    +0.000 A 
ATOM     13  C   UNL     1       4.617   4.073  16.736  0.00  0.00    +0.000 A 
ATOM     14  C   UNL     1       5.315   3.456  15.687  0.00  0.00    +0.000 A 
ATOM     15  C   UNL     1       5.924   4.211  14.676  0.00  0.00    +0.000 A 
ATOM     16  C   UNL     1       5.644   5.576  14.592  0.00  0.00    +0.000 A 
ATOM     17  C   UNL     1       4.953   6.218  15.613  0.00  0.00    +0.000 A 
ATOM     18  C   UNL     1       4.535   5.493  16.735  0.00  0.00    +0.000 A 
ENDROOT
BRANCH  15  19
ATOM     19  N   UNL     1       6.811   3.630  13.745  0.00  0.00    +0.000 N 
ATOM     20  H   UNL     1       7.151   2.734  14.093  0.00  0.00    +0.000 HD
BRANCH  19  21
ATOM     21  C   UNL     1       6.380   3.575  12.339  0.00  0.00    +0.000 C 
ATOM     22  C   UNL     1       5.935   2.291  11.707  0.00  0.00    +0.000 C 
ATOM     23  C   UNL     1       4.929   3.358  12.026  0.00  0.00    +0.000 C 
ENDBRANCH  19  21
ENDBRANCH  15  19
TORSDOF 2
ENDMDL
MODEL 2
REMARK VINA RESULT:      -7.3      0.921      1.083
REMARK  Name = 
REMARK  2 active torsions:
REMARK  status: ('A' for Active; 'I' for Inactive)
REMARK    1  A    between atoms: C_15  and  N_16
REMARK    2  A    between atoms: N_16  and  C_17
REMARK                            x       y       z     vdW  Elec       q    Type
REMARK                         _______ _______ _______ _____ _____    ______ ____
ROOT
ATOM      1 CL   UNL     1       1.243   4.625  21.079  0.00  0.00    +0.000 Cl
ATOM      2  C   UNL     1       2.271   5.586  20.137  0.00  0.00    +0.000 A 
ATOM      3  N   UNL     1       1.975   6.866  19.747  0.00  0.00    +0.000 NA
ATOM      4  C   UNL     1       2.906   7.169  18.860  0.00  0.00    +0.000 A 
ATOM      5  N   UNL     1       3.610   6.039  18.527  0.00  0.00    +0.000 N 
ATOM      6  C   UNL     1       3.513   5.253  19.656  0.00  0.00    +0.000 A 
ATOM      7  C   UNL     1       4.502   4.210  19.986  0.00  0.00    +0.000 C 
ATOM      8  N   UNL     1       4.279   3.105  19.101  0.00  0.00    +0.000 N 
ATOM      9  N   UNL     1       3.824   1.926  19.550  0.00  0.00    +0.000 NA
ATOM     10  C   UNL     1       3.522   1.321  18.403  0.00  0.00    +0.000 A 
ATOM     11  N   UNL     1       3.814   2.039  17.268  0.00  0.00    +0.000 NA
ATOM     12  C   UNL     1       4.263   3.192  17.732  0.00  0.00    +0.000 A 
ATOM     13  C   UNL     1       4.663   4.399  16.984  0.00  0.00    +0.000 A 
ATOM     14  C   UNL     1       5.464   4.206  15.848  0.00  0.00    +0.000 A 
ATOM     15  C   UNL     1       5.892   5.289  15.068  0.00  0.00    +0.000 A 
ATOM     16  C   UNL     1       5.333   6.547  15.295  0.00  0.00    +0.000 A 
ATOM     17  C   UNL     1       4.533   6.772  16.410  0.00  0.00    +0.000 A 
ATOM     18  C   UNL     1       4.286   5.731  17.312  0.00  0.00    +0.000 A 
ENDROOT
BRANCH  15  19
ATOM     19  N   UNL     1       6.873   5.140  14.063  0.00  0.00    +0.000 N 
ATOM     20  H   UNL     1       7.793   5.379  14.431  0.00  0.00    +0.000 HD
BRANCH  19  21
ATOM     21  C   UNL     1       6.868   3.889  13.291  0.00  0.00    +0.000 C 
ATOM     22  C   UNL     1       5.731   3.537  12.379  0.00  0.00    +0.000 C 
ATOM     23  C   UNL     1       7.055   3.946  11.803  0.00  0.00    +0.000 C 
ENDBRANCH  19  21
ENDBRANCH  15  19
TORSDOF 2
ENDMDL
MODEL 3
REMARK VINA RESULT:      -7.0      3.008      6.723
REMARK  Name = 
REMARK  2 active torsions:
REMARK  status: ('A' for Active; 'I' for Inactive)
REMARK    1  A    between atoms: C_15  and  N_16
REMARK    2  A    between atoms: N_16  and  C_17
REMARK                            x       y       z     vdW  Elec       q    Type
REMARK                         _______ _______ _______ _____ _____    ______ ____
ROOT
ATOM      1 CL   UNL     1       4.194   1.122  18.145  0.00  0.00    +0.000 Cl
ATOM      2  C   UNL     1       3.795   2.680  17.615  0.00  0.00    +0.000 A 
ATOM      3  N   UNL     1       4.562   3.411  16.745  0.00  0.00    +0.000 NA
ATOM      4  C   UNL     1       4.035   4.622  16.772  0.00  0.00    +0.000 A 
ATOM      5  N   UNL     1       3.130   4.708  17.800  0.00  0.00    +0.000 N 
ATOM      6  C   UNL     1       2.683   3.413  17.946  0.00  0.00    +0.000 A 
ATOM      7  C   UNL     1       1.370   3.087  18.536  0.00  0.00    +0.000 C 
ATOM      8  N   UNL     1       1.466   3.298  19.950  0.00  0.00    +0.000 N 
ATOM      9  N   UNL     1       1.402   2.278  20.819  0.00  0.00    +0.000 NA
ATOM     10  C   UNL     1       1.792   2.880  21.940  0.00  0.00    +0.000 A 
ATOM     11  N   UNL     1       2.042   4.227  21.826  0.00  0.00    +0.000 NA
ATOM     12  C   UNL     1       1.864   4.471  20.539  0.00  0.00    +0.000 A 
ATOM     13  C   UNL     1       2.066   5.732  19.800  0.00  0.00    +0.000 A 
ATOM     14  C   UNL     1       1.570   6.903  20.394  0.00  0.00    +0.000 A 
ATOM     15  C   UNL     1       1.716   8.150  19.772  0.00  0.00    +0.000 A 
ATOM     16  C   UNL     1       2.555   8.258  18.662  0.00  0.00    +0.000 A 
ATOM     17  C   UNL     1       3.065   7.118  18.051  0.00  0.00    +0.000 A 
ATOM     18  C   UNL     1       2.735   5.852  18.550  0.00  0.00    +0.000 A 
ENDROOT
BRANCH  15  19
ATOM     19  N   UNL     1       1.035   9.296  20.237  0.00  0.00    +0.000 N 
ATOM     20  H   UNL     1       0.641   9.815  19.452  0.00  0.00    +0.000 HD
BRANCH  19  21
ATOM     21  C   UNL     1       0.084   9.118  21.344  0.00  0.00    +0.000 C 
ATOM     22  C   UNL     1       0.501   9.310  22.772  0.00  0.00    +0.000 C 
ATOM     23  C   UNL     1      -0.385  10.322  22.107  0.00  0.00    +0.000 C 
ENDBRANCH  19  21
ENDBRANCH  15  19
TORSDOF 2
ENDMDL
MODEL 4
REMARK VINA RESULT:      -7.0      4.393      7.599
REMARK  Name = 
REMARK  2 active torsions:
REMARK  status: ('A' for Active; 'I' for Inactive)
REMARK    1  A    between atoms: C_15  and  N_16
REMARK    2  A    between atoms: N_16  and  C_17
REMARK                            x       y       z     vdW  Elec       q    Type
REMARK                         _______ _______ _______ _____ _____    ______ ____
ROOT
ATOM      1 CL   UNL     1      -0.696  13.180  22.609  0.00  0.00    +0.000 Cl
ATOM      2  C   UNL     1      -0.566  11.507  22.377  0.00  0.00    +0.000 A 
ATOM      3  N   UNL     1      -0.413  10.604  23.397  0.00  0.00    +0.000 NA
ATOM      4  C   UNL     1      -0.126   9.465  22.795  0.00  0.00    +0.000 A 
ATOM      5  N   UNL     1       0.131   9.697  21.466  0.00  0.00    +0.000 N 
ATOM      6  C   UNL     1      -0.611  10.825  21.187  0.00  0.00    +0.000 A 
ATOM      7  C   UNL     1      -1.074  11.155  19.825  0.00  0.00    +0.000 C 
ATOM      8  N   UNL     1       0.060  11.620  19.083  0.00  0.00    +0.000 N 
ATOM      9  N   UNL     1       0.160  12.893  18.676  0.00  0.00    +0.000 NA
ATOM     10  C   UNL     1       1.432  12.934  18.287  0.00  0.00    +0.000 A 
ATOM     11  N   UNL     1       2.111  11.742  18.381  0.00  0.00    +0.000 NA
ATOM     12  C   UNL     1       1.231  10.921  18.925  0.00  0.00    +0.000 A 
ATOM     13  C   UNL     1       1.408   9.517  19.341  0.00  0.00    +0.000 A 
ATOM     14  C   UNL     1       2.088   8.671  18.451  0.00  0.00    +0.000 A 
ATOM     15  C   UNL     1       2.311   7.322  18.756  0.00  0.00    +0.000 A 
ATOM     16  C   UNL     1       2.050   6.871  20.051  0.00  0.00    +0.000 A 
ATOM     17  C   UNL     1       1.381   7.684  20.959  0.00  0.00    +0.000 A 
ATOM     18  C   UNL     1       0.963   8.963  20.574  0.00  0.00    +0.000 A 
ENDROOT
BRANCH  15  19
ATOM     19  N   UNL     1       2.787   6.410  17.791  0.00  0.00    +0.000 N 
ATOM     20  H   UNL     1       3.622   6.780  17.337  0.00  0.00    +0.000 HD
BRANCH  19  21
ATOM     21  C   UNL     1       2.931   5.004  18.198  0.00  0.00    +0.000 C 
ATOM     22  C   UNL     1       2.373   3.888  17.367  0.00  0.00    +0.000 C 
ATOM     23  C   UNL     1       3.856   4.108  17.428  0.00  0.00    +0.000 C 
ENDBRANCH  19  21
ENDBRANCH  15  19
TORSDOF 2
ENDMDL
MODEL 5
REMARK VINA RESULT:      -6.9      3.016      6.394
REMARK  Name = 
REMARK  2 active torsions:
REMARK  status: ('A' for Active; 'I' for Inactive)
REMARK    1  A    between atoms: C_15  and  N_16
REMARK    2  A    between atoms: N_16  and  C_17
REMARK                            x       y       z     vdW  Elec       q    Type
REMARK                         _______ _______ _______ _____ _____    ______ ____
ROOT
ATOM      1 CL   UNL     1       8.029   5.486  13.446  0.00  0.00    +0.000 Cl
ATOM      2  C   UNL     1       6.848   4.552  14.221  0.00  0.00    +0.000 A 
ATOM      3  N   UNL     1       5.934   3.773  13.559  0.00  0.00    +0.000 NA
ATOM      4  C   UNL     1       5.073   3.405  14.490  0.00  0.00    +0.000 A 
ATOM      5  N   UNL     1       5.300   4.122  15.638  0.00  0.00    +0.000 N 
ATOM      6  C   UNL     1       6.644   4.421  15.572  0.00  0.00    +0.000 A 
ATOM      7  C   UNL     1       7.454   4.709  16.771  0.00  0.00    +0.000 C 
ATOM      8  N   UNL     1       7.104   6.021  17.227  0.00  0.00    +0.000 N 
ATOM      9  N   UNL     1       7.973   7.040  17.169  0.00  0.00    +0.000 NA
ATOM     10  C   UNL     1       7.169   8.070  17.427  0.00  0.00    +0.000 A 
ATOM     11  N   UNL     1       5.862   7.740  17.693  0.00  0.00    +0.000 NA
ATOM     12  C   UNL     1       5.828   6.429  17.525  0.00  0.00    +0.000 A 
ATOM     13  C   UNL     1       4.672   5.516  17.599  0.00  0.00    +0.000 A 
ATOM     14  C   UNL     1       3.785   5.698  18.671  0.00  0.00    +0.000 A 
ATOM     15  C   UNL     1       2.655   4.884  18.826  0.00  0.00    +0.000 A 
ATOM     16  C   UNL     1       2.289   4.031  17.783  0.00  0.00    +0.000 A 
ATOM     17  C   UNL     1       3.143   3.830  16.705  0.00  0.00    +0.000 A 
ATOM     18  C   UNL     1       4.380   4.484  16.663  0.00  0.00    +0.000 A 
ENDROOT
BRANCH  15  19
ATOM     19  N   UNL     1       1.881   4.903  20.006  0.00  0.00    +0.000 N 
ATOM     20  H   UNL     1       0.898   4.748  19.786  0.00  0.00    +0.000 HD
BRANCH  19  21
ATOM     21  C   UNL     1       2.352   4.091  21.139  0.00  0.00    +0.000 C 
ATOM     22  C   UNL     1       1.622   2.856  21.572  0.00  0.00    +0.000 C 
ATOM     23  C   UNL     1       2.945   2.739  20.874  0.00  0.00    +0.000 C 
ENDBRANCH  19  21
ENDBRANCH  15  19
TORSDOF 2
ENDMDL
MODEL 6
REMARK VINA RESULT:      -6.9      2.904      6.194
REMARK  Name = 
REMARK  2 active torsions:
REMARK  status: ('A' for Active; 'I' for Inactive)
REMARK    1  A    between atoms: C_15  and  N_16
REMARK    2  A    between atoms: N_16  and  C_17
REMARK                            x       y       z     vdW  Elec       q    Type
REMARK                         _______ _______ _______ _____ _____    ______ ____
ROOT
ATOM      1 CL   UNL     1       4.186   1.107  18.196  0.00  0.00    +0.000 Cl
ATOM      2  C   UNL     1       3.846   2.633  17.544  0.00  0.00    +0.000 A 
ATOM      3  N   UNL     1       4.649   3.270  16.633  0.00  0.00    +0.000 NA
ATOM      4  C   UNL     1       4.163   4.496  16.560  0.00  0.00    +0.000 A 
ATOM      5  N   UNL     1       3.248   4.690  17.564  0.00  0.00    +0.000 N 
ATOM      6  C   UNL     1       2.755   3.425  17.801  0.00  0.00    +0.000 A 
ATOM      7  C   UNL     1       1.424   3.187  18.393  0.00  0.00    +0.000 C 
ATOM      8  N   UNL     1       1.508   3.501  19.788  0.00  0.00    +0.000 N 
ATOM      9  N   UNL     1       1.398   2.553  20.729  0.00  0.00    +0.000 NA
ATOM     10  C   UNL     1       1.793   3.225  21.809  0.00  0.00    +0.000 A 
ATOM     11  N   UNL     1       2.090   4.550  21.597  0.00  0.00    +0.000 NA
ATOM     12  C   UNL     1       1.938   4.702  20.293  0.00  0.00    +0.000 A 
ATOM     13  C   UNL     1       2.192   5.896  19.464  0.00  0.00    +0.000 A 
ATOM     14  C   UNL     1       1.728   7.124  19.960  0.00  0.00    +0.000 A 
ATOM     15  C   UNL     1       1.924   8.316  19.249  0.00  0.00    +0.000 A 
ATOM     16  C   UNL     1       2.781   8.311  18.148  0.00  0.00    +0.000 A 
ATOM     17  C   UNL     1       3.261   7.113  17.633  0.00  0.00    +0.000 A 
ATOM     18  C   UNL     1       2.881   5.900  18.220  0.00  0.00    +0.000 A 
ENDROOT
BRANCH  15  19
ATOM     19  N   UNL     1       1.276   9.515  19.615  0.00  0.00    +0.000 N 
ATOM     20  H   UNL     1       1.881  10.074  20.217  0.00  0.00    +0.000 HD
BRANCH  19  21
ATOM     21  C   UNL     1       0.648  10.301  18.543  0.00  0.00    +0.000 C 
ATOM     22  C   UNL     1      -0.817  10.184  18.243  0.00  0.00    +0.000 C 
ATOM     23  C   UNL     1      -0.283  11.421  18.905  0.00  0.00    +0.000 C 
ENDBRANCH  19  21
ENDBRANCH  15  19
TORSDOF 2
ENDMDL
MODEL 7
REMARK VINA RESULT:      -6.6      3.238      7.236
REMARK  Name = 
REMARK  2 active torsions:
REMARK  status: ('A' for Active; 'I' for Inactive)
REMARK    1  A    between atoms: C_15  and  N_16
REMARK    2  A    between atoms: N_16  and  C_17
REMARK                            x       y       z     vdW  Elec       q    Type
REMARK                         _______ _______ _______ _____ _____    ______ ____
ROOT
ATOM      1 CL   UNL     1       5.314   3.591  17.075  0.00  0.00    +0.000 Cl
ATOM      2  C   UNL     1       4.382   5.003  17.156  0.00  0.00    +0.000 A 
ATOM      3  N   UNL     1       4.810   6.227  16.711  0.00  0.00    +0.000 NA
ATOM      4  C   UNL     1       3.904   7.079  17.156  0.00  0.00    +0.000 A 
ATOM      5  N   UNL     1       3.076   6.447  18.049  0.00  0.00    +0.000 N 
ATOM      6  C   UNL     1       3.105   5.131  17.641  0.00  0.00    +0.000 A 
ATOM      7  C   UNL     1       2.013   4.183  17.936  0.00  0.00    +0.000 C 
ATOM      8  N   UNL     1       2.101   3.837  19.323  0.00  0.00    +0.000 N 
ATOM      9  N   UNL     1       2.432   2.600  19.719  0.00  0.00    +0.000 NA
ATOM     10  C   UNL     1       2.649   2.801  21.017  0.00  0.00    +0.000 A 
ATOM     11  N   UNL     1       2.420   4.083  21.456  0.00  0.00    +0.000 NA
ATOM     12  C   UNL     1       2.105   4.742  20.355  0.00  0.00    +0.000 A 
ATOM     13  C   UNL     1       1.828   6.181  20.183  0.00  0.00    +0.000 A 
ATOM     14  C   UNL     1       0.994   6.785  21.136  0.00  0.00    +0.000 A 
ATOM     15  C   UNL     1       0.674   8.148  21.062  0.00  0.00    +0.000 A 
ATOM     16  C   UNL     1       1.370   8.956  20.163  0.00  0.00    +0.000 A 
ATOM     17  C   UNL     1       2.207   8.390  19.208  0.00  0.00    +0.000 A 
ATOM     18  C   UNL     1       2.353   7.000  19.145  0.00  0.00    +0.000 A 
ENDROOT
BRANCH  15  19
ATOM     19  N   UNL     1      -0.332   8.720  21.870  0.00  0.00    +0.000 N 
ATOM     20  H   UNL     1      -0.625   8.060  22.589  0.00  0.00    +0.000 HD
BRANCH  19  21
ATOM     21  C   UNL     1      -0.092  10.074  22.394  0.00  0.00    +0.000 C 
ATOM     22  C   UNL     1      -0.793  11.269  21.823  0.00  0.00    +0.000 C 
ATOM     23  C   UNL     1      -1.172  10.756  23.181  0.00  0.00    +0.000 C 
ENDBRANCH  19  21
ENDBRANCH  15  19
TORSDOF 2
ENDMDL
MODEL 8
REMARK VINA RESULT:      -6.5      2.784      6.666
REMARK  Name = 
REMARK  2 active torsions:
REMARK  status: ('A' for Active; 'I' for Inactive)
REMARK    1  A    between atoms: C_15  and  N_16
REMARK    2  A    between atoms: N_16  and  C_17
REMARK                            x       y       z     vdW  Elec       q    Type
REMARK                         _______ _______ _______ _____ _____    ______ ____
ROOT
ATOM      1 CL   UNL     1       6.346   3.549  15.937  0.00  0.00    +0.000 Cl
ATOM      2  C   UNL     1       5.281   4.849  16.154  0.00  0.00    +0.000 A 
ATOM      3  N   UNL     1       5.551   6.132  15.755  0.00  0.00    +0.000 NA
ATOM      4  C   UNL     1       4.594   6.860  16.302  0.00  0.00    +0.000 A 
ATOM      5  N   UNL     1       3.895   6.099  17.206  0.00  0.00    +0.000 N 
ATOM      6  C   UNL     1       4.032   4.816  16.722  0.00  0.00    +0.000 A 
ATOM      7  C   UNL     1       3.065   3.743  17.026  0.00  0.00    +0.000 C 
ATOM      8  N   UNL     1       3.279   3.339  18.383  0.00  0.00    +0.000 N 
ATOM      9  N   UNL     1       3.760   2.125  18.687  0.00  0.00    +0.000 NA
ATOM     10  C   UNL     1       4.040   2.282  19.979  0.00  0.00    +0.000 A 
ATOM     11  N   UNL     1       3.709   3.508  20.505  0.00  0.00    +0.000 NA
ATOM     12  C   UNL     1       3.258   4.185  19.463  0.00  0.00    +0.000 A 
ATOM     13  C   UNL     1       2.824   5.593  19.392  0.00  0.00    +0.000 A 
ATOM     14  C   UNL     1       1.996   6.057  20.426  0.00  0.00    +0.000 A 
ATOM     15  C   UNL     1       1.534   7.380  20.450  0.00  0.00    +0.000 A 
ATOM     16  C   UNL     1       2.083   8.302  19.558  0.00  0.00    +0.000 A 
ATOM     17  C   UNL     1       2.909   7.878  18.524  0.00  0.00    +0.000 A 
ATOM     18  C   UNL     1       3.192   6.515  18.373  0.00  0.00    +0.000 A 
ENDROOT
BRANCH  15  19
ATOM     19  N   UNL     1       0.530   7.801  21.348  0.00  0.00    +0.000 N 
ATOM     20  H   UNL     1       0.286   7.043  21.985  0.00  0.00    +0.000 HD
BRANCH  19  21
ATOM     21  C   UNL     1       0.728   9.087  22.033  0.00  0.00    +0.000 C 
ATOM     22  C   UNL     1      -0.228  10.227  21.847  0.00  0.00    +0.000 C 
ATOM     23  C   UNL     1      -0.200   9.475  23.146  0.00  0.00    +0.000 C 
ENDBRANCH  19  21
ENDBRANCH  15  19
TORSDOF 2
ENDMDL
MODEL 9
REMARK VINA RESULT:      -6.4      4.805      7.520
REMARK  Name = 
REMARK  2 active torsions:
REMARK  status: ('A' for Active; 'I' for Inactive)
REMARK    1  A    between atoms: C_15  and  N_16
REMARK    2  A    between atoms: N_16  and  C_17
REMARK                            x       y       z     vdW  Elec       q    Type
REMARK                         _______ _______ _______ _____ _____    ______ ____
ROOT
ATOM      1 CL   UNL     1      -2.997  12.950  20.685  0.00  0.00    +0.000 Cl
ATOM      2  C   UNL     1      -1.806  12.379  19.624  0.00  0.00    +0.000 A 
ATOM      3  N   UNL     1      -1.964  12.310  18.264  0.00  0.00    +0.000 NA
ATOM      4  C   UNL     1      -0.925  11.613  17.842  0.00  0.00    +0.000 A 
ATOM      5  N   UNL     1      -0.274  11.059  18.916  0.00  0.00    +0.000 N 
ATOM      6  C   UNL     1      -0.549  11.933  19.946  0.00  0.00    +0.000 A 
ATOM      7  C   UNL     1       0.320  12.063  21.131  0.00  0.00    +0.000 C 
ATOM      8  N   UNL     1       0.111  10.906  21.951  0.00  0.00    +0.000 N 
ATOM      9  N   UNL     1      -0.474  10.994  23.154  0.00  0.00    +0.000 NA
ATOM     10  C   UNL     1      -0.697   9.709  23.419  0.00  0.00    +0.000 A 
ATOM     11  N   UNL     1      -0.234   8.827  22.472  0.00  0.00    +0.000 NA
ATOM     12  C   UNL     1       0.247   9.610  21.522  0.00  0.00    +0.000 A 
ATOM     13  C   UNL     1       0.812   9.236  20.211  0.00  0.00    +0.000 A 
ATOM     14  C   UNL     1       1.712   8.160  20.191  0.00  0.00    +0.000 A 
ATOM     15  C   UNL     1       2.299   7.726  18.995  0.00  0.00    +0.000 A 
ATOM     16  C   UNL     1       1.814   8.225  17.785  0.00  0.00    +0.000 A 
ATOM     17  C   UNL     1       0.919   9.288  17.769  0.00  0.00    +0.000 A 
ATOM     18  C   UNL     1       0.501   9.866  18.974  0.00  0.00    +0.000 A 
ENDROOT
BRANCH  15  19
ATOM     19  N   UNL     1       3.367   6.803  18.982  0.00  0.00    +0.000 N 
ATOM     20  H   UNL     1       3.429   6.323  19.879  0.00  0.00    +0.000 HD
BRANCH  19  21
ATOM     21  C   UNL     1       3.460   5.889  17.833  0.00  0.00    +0.000 C 
ATOM     22  C   UNL     1       4.086   4.533  17.961  0.00  0.00    +0.000 C 
ATOM     23  C   UNL     1       2.599   4.661  17.802  0.00  0.00    +0.000 C 
ENDBRANCH  19  21
ENDBRANCH  15  19
TORSDOF 2
ENDMDL
