MODEL 1
REMARK VINA RESULT:      -8.8      0.000      0.000
REMARK  Name = 
REMARK  7 active torsions:
REMARK  status: ('A' for Active; 'I' for Inactive)
REMARK    1  A    between atoms: C_1  and  C_2
REMARK    2  A    between atoms: C_5  and  C_7
REMARK    3  A    between atoms: C_7  and  C_8
REMARK    4  A    between atoms: C_8  and  C_9
REMARK    5  A    between atoms: N_11  and  C_12
REMARK    6  A    between atoms: N_15  and  C_16
REMARK    7  A    between atoms: C_16  and  C_17
REMARK                            x       y       z     vdW  Elec       q    Type
REMARK                         _______ _______ _______ _____ _____    ______ ____
ROOT
ATOM      1  C   UNL     1       2.213   5.222  19.909  0.00  0.00    +0.000 C 
ATOM      2  O   UNL     1       1.608   4.180  20.146  0.00  0.00    +0.000 OA
ATOM      3  N   UNL     1       1.513   6.395  19.839  0.00  0.00    +0.000 N 
ATOM      4  H   UNL     1       0.517   6.278  19.987  0.00  0.00    +0.000 HD
ENDROOT
BRANCH   3   5
ATOM      5  C   UNL     1       2.091   7.732  19.859  0.00  0.00    +0.000 C 
ATOM      6  C   UNL     1       1.369   8.645  20.843  0.00  0.00    +0.000 C 
ATOM      7  C   UNL     1       0.364   9.573  20.193  0.00  0.00    +0.000 C 
ATOM      8  N   UNL     1       1.020  10.295  19.095  0.00  0.00    +0.000 NA
ATOM      9  C   UNL     1       1.295   9.357  18.005  0.00  0.00    +0.000 C 
ATOM     10  C   UNL     1       2.295   8.289  18.442  0.00  0.00    +0.000 C 
BRANCH   8  11
ATOM     11  C   UNL     1       0.211  11.433  18.622  0.00  0.00    +0.000 C 
BRANCH  11  12
ATOM     12  C   UNL     1      -1.228  11.026  18.364  0.00  0.00    +0.000 A 
ATOM     13  C   UNL     1      -1.524  10.048  17.402  0.00  0.00    +0.000 A 
ATOM     14  C   UNL     1      -2.846   9.807  17.024  0.00  0.00    +0.000 A 
ATOM     15  C   UNL     1      -3.881  10.526  17.619  0.00  0.00    +0.000 A 
ATOM     16  C   UNL     1      -3.600  11.461  18.614  0.00  0.00    +0.000 A 
ATOM     17  C   UNL     1      -2.281  11.708  18.990  0.00  0.00    +0.000 A 
ENDBRANCH  11  12
ENDBRANCH   8  11
ENDBRANCH   3   5
BRANCH   1  18
ATOM     18  C   UNL     1       3.716   5.269  19.666  0.00  0.00    +0.000 C 
BRANCH  18  19
ATOM     19  C   UNL     1       4.204   3.915  19.190  0.00  0.00    +0.000 C 
BRANCH  19  24
ATOM     20  C   UNL     1       8.015   7.151  18.331  0.00  0.00    +0.000 C 
ATOM     21  C   UNL     1       7.041   6.405  17.427  0.00  0.00    +0.000 C 
ATOM     22  C   UNL     1       6.598   5.102  18.074  0.00  0.00    +0.000 C 
ATOM     23  N   UNL     1       5.608   4.434  17.217  0.00  0.00    +0.000 N 
ATOM     24  C   UNL     1       4.416   3.887  17.685  0.00  0.00    +0.000 C 
ATOM     25  O   UNL     1       3.493   3.479  16.975  0.00  0.00    +0.000 OA
ATOM     26  C   UNL     1       5.982   4.415  15.832  0.00  0.00    +0.000 A 
ATOM     27  C   UNL     1       5.389   3.557  14.896  0.00  0.00    +0.000 A 
ATOM     28  C   UNL     1       5.776   3.571  13.554  0.00  0.00    +0.000 A 
ATOM     29  C   UNL     1       6.779   4.434  13.124  0.00  0.00    +0.000 A 
ATOM     30  C   UNL     1       7.404   5.276  14.043  0.00  0.00    +0.000 A 
ATOM     31  C   UNL     1       7.010   5.269  15.381  0.00  0.00    +0.000 A 
ATOM     32  O   UNL     1       7.697   6.151  16.181  0.00  0.00    +0.000 OA
ENDBRANCH  19  24
ENDBRANCH  18  19
ENDBRANCH   1  18
TORSDOF 6
ENDMDL
MODEL 2
REMARK VINA RESULT:      -8.6      2.826     10.126
REMARK  Name = 
REMARK  7 active torsions:
REMARK  status: ('A' for Active; 'I' for Inactive)
REMARK    1  A    between atoms: C_1  and  C_2
REMARK    2  A    between atoms: C_5  and  C_7
REMARK    3  A    between atoms: C_7  and  C_8
REMARK    4  A    between atoms: C_8  and  C_9
REMARK    5  A    between atoms: N_11  and  C_12
REMARK    6  A    between atoms: N_15  and  C_16
REMARK    7  A    between atoms: C_16  and  C_17
REMARK                            x       y       z     vdW  Elec       q    Type
REMARK                         _______ _______ _______ _____ _____    ______ ____
ROOT
ATOM      1  C   UNL     1       1.540   8.697  19.713  0.00  0.00    +0.000 C 
ATOM      2  O   UNL     1       1.118   8.883  20.851  0.00  0.00    +0.000 OA
ATOM      3  N   UNL     1       2.168   7.516  19.422  0.00  0.00    +0.000 N 
ATOM      4  H   UNL     1       2.233   6.891  20.216  0.00  0.00    +0.000 HD
ENDROOT
BRANCH   3   5
ATOM      5  C   UNL     1       2.461   7.017  18.085  0.00  0.00    +0.000 C 
ATOM      6  C   UNL     1       2.184   5.523  17.967  0.00  0.00    +0.000 C 
ATOM      7  C   UNL     1       3.423   4.659  18.079  0.00  0.00    +0.000 C 
ATOM      8  N   UNL     1       4.432   5.146  17.129  0.00  0.00    +0.000 NA
ATOM      9  C   UNL     1       4.937   6.439  17.592  0.00  0.00    +0.000 C 
ATOM     10  C   UNL     1       3.833   7.493  17.585  0.00  0.00    +0.000 C 
BRANCH   8  11
ATOM     11  C   UNL     1       5.532   4.180  16.950  0.00  0.00    +0.000 C 
BRANCH  11  12
ATOM     12  C   UNL     1       6.057   4.191  15.526  0.00  0.00    +0.000 A 
ATOM     13  C   UNL     1       7.186   4.956  15.194  0.00  0.00    +0.000 A 
ATOM     14  C   UNL     1       7.557   5.124  13.860  0.00  0.00    +0.000 A 
ATOM     15  C   UNL     1       6.818   4.512  12.849  0.00  0.00    +0.000 A 
ATOM     16  C   UNL     1       5.726   3.708  13.173  0.00  0.00    +0.000 A 
ATOM     17  C   UNL     1       5.349   3.542  14.505  0.00  0.00    +0.000 A 
ENDBRANCH  11  12
ENDBRANCH   8  11
ENDBRANCH   3   5
BRANCH   1  18
ATOM     18  C   UNL     1       1.415   9.733  18.604  0.00  0.00    +0.000 C 
BRANCH  18  19
ATOM     19  C   UNL     1       0.090   9.565  17.886  0.00  0.00    +0.000 C 
BRANCH  19  24
ATOM     20  C   UNL     1      -3.321   9.997  14.158  0.00  0.00    +0.000 C 
ATOM     21  C   UNL     1      -3.108  10.721  15.482  0.00  0.00    +0.000 C 
ATOM     22  C   UNL     1      -2.436   9.805  16.493  0.00  0.00    +0.000 C 
ATOM     23  N   UNL     1      -2.179  10.544  17.737  0.00  0.00    +0.000 N 
ATOM     24  C   UNL     1      -0.970  10.510  18.428  0.00  0.00    +0.000 C 
ATOM     25  O   UNL     1      -0.667  11.246  19.370  0.00  0.00    +0.000 OA
ATOM     26  C   UNL     1      -3.299  11.329  18.168  0.00  0.00    +0.000 A 
ATOM     27  C   UNL     1      -3.418  11.833  19.470  0.00  0.00    +0.000 A 
ATOM     28  C   UNL     1      -4.523  12.599  19.853  0.00  0.00    +0.000 A 
ATOM     29  C   UNL     1      -5.540  12.863  18.942  0.00  0.00    +0.000 A 
ATOM     30  C   UNL     1      -5.458  12.347  17.649  0.00  0.00    +0.000 A 
ATOM     31  C   UNL     1      -4.350  11.591  17.265  0.00  0.00    +0.000 A 
ATOM     32  O   UNL     1      -4.386  11.150  15.963  0.00  0.00    +0.000 OA
ENDBRANCH  19  24
ENDBRANCH  18  19
ENDBRANCH   1  18
TORSDOF 6
ENDMDL
MODEL 3
REMARK VINA RESULT:      -8.6      1.425      2.503
REMARK  Name = 
REMARK  7 active torsions:
REMARK  status: ('A' for Active; 'I' for Inactive)
REMARK    1  A    between atoms: C_1  and  C_2
REMARK    2  A    between atoms: C_5  and  C_7
REMARK    3  A    between atoms: C_7  and  C_8
REMARK    4  A    between atoms: C_8  and  C_9
REMARK    5  A    between atoms: N_11  and  C_12
REMARK    6  A    between atoms: N_15  and  C_16
REMARK    7  A    between atoms: C_16  and  C_17
REMARK                            x       y       z     vdW  Elec       q    Type
REMARK                         _______ _______ _______ _____ _____    ______ ____
ROOT
ATOM      1  C   UNL     1       2.090   5.343  20.210  0.00  0.00    +0.000 C 
ATOM      2  O   UNL     1       1.538   4.282  20.489  0.00  0.00    +0.000 OA
ATOM      3  N   UNL     1       1.375   6.506  20.298  0.00  0.00    +0.000 N 
ATOM      4  H   UNL     1       0.415   6.366  20.588  0.00  0.00    +0.000 HD
ENDROOT
BRANCH   3   5
ATOM      5  C   UNL     1       1.937   7.850  20.290  0.00  0.00    +0.000 C 
ATOM      6  C   UNL     1       1.173   8.787  21.219  0.00  0.00    +0.000 C 
ATOM      7  C   UNL     1       0.177   9.679  20.507  0.00  0.00    +0.000 C 
ATOM      8  N   UNL     1       0.859  10.372  19.406  0.00  0.00    +0.000 NA
ATOM      9  C   UNL     1       1.179   9.401  18.358  0.00  0.00    +0.000 C 
ATOM     10  C   UNL     1       2.178   8.361  18.862  0.00  0.00    +0.000 C 
BRANCH   8  11
ATOM     11  C   UNL     1       0.051  11.483  18.870  0.00  0.00    +0.000 C 
BRANCH  11  12
ATOM     12  C   UNL     1       0.891  12.726  18.647  0.00  0.00    +0.000 A 
ATOM     13  C   UNL     1       2.270  12.614  18.410  0.00  0.00    +0.000 A 
ATOM     14  C   UNL     1       3.078  13.752  18.396  0.00  0.00    +0.000 A 
ATOM     15  C   UNL     1       2.513  15.009  18.598  0.00  0.00    +0.000 A 
ATOM     16  C   UNL     1       1.137  15.135  18.781  0.00  0.00    +0.000 A 
ATOM     17  C   UNL     1       0.327  14.000  18.800  0.00  0.00    +0.000 A 
ENDBRANCH  11  12
ENDBRANCH   8  11
ENDBRANCH   3   5
BRANCH   1  18
ATOM     18  C   UNL     1       3.538   5.425  19.747  0.00  0.00    +0.000 C 
BRANCH  18  19
ATOM     19  C   UNL     1       4.013   4.059  19.291  0.00  0.00    +0.000 C 
BRANCH  19  24
ATOM     20  C   UNL     1       8.010   7.068  18.450  0.00  0.00    +0.000 C 
ATOM     21  C   UNL     1       7.003   6.373  17.542  0.00  0.00    +0.000 C 
ATOM     22  C   UNL     1       6.481   5.101  18.191  0.00  0.00    +0.000 C 
ATOM     23  N   UNL     1       5.462   4.486  17.328  0.00  0.00    +0.000 N 
ATOM     24  C   UNL     1       4.236   4.011  17.788  0.00  0.00    +0.000 C 
ATOM     25  O   UNL     1       3.298   3.652  17.072  0.00  0.00    +0.000 OA
ATOM     26  C   UNL     1       5.846   4.438  15.947  0.00  0.00    +0.000 A 
ATOM     27  C   UNL     1       5.213   3.610  15.010  0.00  0.00    +0.000 A 
ATOM     28  C   UNL     1       5.613   3.594  13.672  0.00  0.00    +0.000 A 
ATOM     29  C   UNL     1       6.667   4.396  13.246  0.00  0.00    +0.000 A 
ATOM     30  C   UNL     1       7.331   5.206  14.166  0.00  0.00    +0.000 A 
ATOM     31  C   UNL     1       6.925   5.229  15.501  0.00  0.00    +0.000 A 
ATOM     32  O   UNL     1       7.655   6.075  16.303  0.00  0.00    +0.000 OA
ENDBRANCH  19  24
ENDBRANCH  18  19
ENDBRANCH   1  18
TORSDOF 6
ENDMDL
MODEL 4
REMARK VINA RESULT:      -8.5      1.690      2.814
REMARK  Name = 
REMARK  7 active torsions:
REMARK  status: ('A' for Active; 'I' for Inactive)
REMARK    1  A    between atoms: C_1  and  C_2
REMARK    2  A    between atoms: C_5  and  C_7
REMARK    3  A    between atoms: C_7  and  C_8
REMARK    4  A    between atoms: C_8  and  C_9
REMARK    5  A    between atoms: N_11  and  C_12
REMARK    6  A    between atoms: N_15  and  C_16
REMARK    7  A    between atoms: C_16  and  C_17
REMARK                            x       y       z     vdW  Elec       q    Type
REMARK                         _______ _______ _______ _____ _____    ______ ____
ROOT
ATOM      1  C   UNL     1       2.145   4.898  19.219  0.00  0.00    +0.000 C 
ATOM      2  O   UNL     1       1.369   3.947  19.186  0.00  0.00    +0.000 OA
ATOM      3  N   UNL     1       1.697   6.134  18.837  0.00  0.00    +0.000 N 
ATOM      4  H   UNL     1       0.729   6.135  18.541  0.00  0.00    +0.000 HD
ENDROOT
BRANCH   3   5
ATOM      5  C   UNL     1       2.377   7.397  19.087  0.00  0.00    +0.000 C 
ATOM      6  C   UNL     1       1.848   8.084  20.341  0.00  0.00    +0.000 C 
ATOM      7  C   UNL     1       0.849   9.188  20.060  0.00  0.00    +0.000 C 
ATOM      8  N   UNL     1       1.427  10.117  19.081  0.00  0.00    +0.000 NA
ATOM      9  C   UNL     1       1.500   9.453  17.779  0.00  0.00    +0.000 C 
ATOM     10  C   UNL     1       2.457   8.265  17.822  0.00  0.00    +0.000 C 
BRANCH   8  11
ATOM     11  C   UNL     1       0.660  11.373  18.993  0.00  0.00    +0.000 C 
BRANCH  11  12
ATOM     12  C   UNL     1       1.549  12.586  19.198  0.00  0.00    +0.000 A 
ATOM     13  C   UNL     1       2.251  13.138  18.116  0.00  0.00    +0.000 A 
ATOM     14  C   UNL     1       3.213  14.125  18.329  0.00  0.00    +0.000 A 
ATOM     15  C   UNL     1       3.468  14.582  19.621  0.00  0.00    +0.000 A 
ATOM     16  C   UNL     1       2.738  14.076  20.696  0.00  0.00    +0.000 A 
ATOM     17  C   UNL     1       1.778  13.086  20.487  0.00  0.00    +0.000 A 
ENDBRANCH  11  12
ENDBRANCH   8  11
ENDBRANCH   3   5
BRANCH   1  18
ATOM     18  C   UNL     1       3.599   4.765  19.651  0.00  0.00    +0.000 C 
BRANCH  18  19
ATOM     19  C   UNL     1       4.195   3.496  19.074  0.00  0.00    +0.000 C 
BRANCH  19  24
ATOM     20  C   UNL     1       7.987   6.822  18.535  0.00  0.00    +0.000 C 
ATOM     21  C   UNL     1       7.023   6.154  17.562  0.00  0.00    +0.000 C 
ATOM     22  C   UNL     1       6.587   4.794  18.086  0.00  0.00    +0.000 C 
ATOM     23  N   UNL     1       5.606   4.201  17.165  0.00  0.00    +0.000 N 
ATOM     24  C   UNL     1       4.415   3.606  17.573  0.00  0.00    +0.000 C 
ATOM     25  O   UNL     1       3.499   3.257  16.824  0.00  0.00    +0.000 OA
ATOM     26  C   UNL     1       5.988   4.309  15.787  0.00  0.00    +0.000 A 
ATOM     27  C   UNL     1       5.407   3.536  14.773  0.00  0.00    +0.000 A 
ATOM     28  C   UNL     1       5.802   3.674  13.440  0.00  0.00    +0.000 A 
ATOM     29  C   UNL     1       6.801   4.579  13.096  0.00  0.00    +0.000 A 
ATOM     30  C   UNL     1       7.415   5.338  14.092  0.00  0.00    +0.000 A 
ATOM     31  C   UNL     1       7.013   5.207  15.421  0.00  0.00    +0.000 A 
ATOM     32  O   UNL     1       7.689   6.019  16.302  0.00  0.00    +0.000 OA
ENDBRANCH  19  24
ENDBRANCH  18  19
ENDBRANCH   1  18
TORSDOF 6
ENDMDL
MODEL 5
REMARK VINA RESULT:      -8.5      3.073     10.236
REMARK  Name = 
REMARK  7 active torsions:
REMARK  status: ('A' for Active; 'I' for Inactive)
REMARK    1  A    between atoms: C_1  and  C_2
REMARK    2  A    between atoms: C_5  and  C_7
REMARK    3  A    between atoms: C_7  and  C_8
REMARK    4  A    between atoms: C_8  and  C_9
REMARK    5  A    between atoms: N_11  and  C_12
REMARK    6  A    between atoms: N_15  and  C_16
REMARK    7  A    between atoms: C_16  and  C_17
REMARK                            x       y       z     vdW  Elec       q    Type
REMARK                         _______ _______ _______ _____ _____    ______ ____
ROOT
ATOM      1  C   UNL     1       1.334   9.043  21.241  0.00  0.00    +0.000 C 
ATOM      2  O   UNL     1       1.309   9.649  22.309  0.00  0.00    +0.000 OA
ATOM      3  N   UNL     1       1.815   7.763  21.216  0.00  0.00    +0.000 N 
ATOM      4  H   UNL     1       2.127   7.433  22.122  0.00  0.00    +0.000 HD
ENDROOT
BRANCH   3   5
ATOM      5  C   UNL     1       1.650   6.815  20.122  0.00  0.00    +0.000 C 
ATOM      6  C   UNL     1       1.563   5.379  20.628  0.00  0.00    +0.000 C 
ATOM      7  C   UNL     1       2.862   4.608  20.509  0.00  0.00    +0.000 C 
ATOM      8  N   UNL     1       3.356   4.717  19.130  0.00  0.00    +0.000 NA
ATOM      9  C   UNL     1       3.810   6.088  18.893  0.00  0.00    +0.000 C 
ATOM     10  C   UNL     1       2.647   7.073  18.984  0.00  0.00    +0.000 C 
BRANCH   8  11
ATOM     11  C   UNL     1       4.432   3.747  18.852  0.00  0.00    +0.000 C 
BRANCH  11  12
ATOM     12  C   UNL     1       5.258   4.160  17.648  0.00  0.00    +0.000 A 
ATOM     13  C   UNL     1       4.734   4.025  16.352  0.00  0.00    +0.000 A 
ATOM     14  C   UNL     1       5.551   4.219  15.238  0.00  0.00    +0.000 A 
ATOM     15  C   UNL     1       6.889   4.569  15.408  0.00  0.00    +0.000 A 
ATOM     16  C   UNL     1       7.404   4.756  16.690  0.00  0.00    +0.000 A 
ATOM     17  C   UNL     1       6.592   4.559  17.806  0.00  0.00    +0.000 A 
ENDBRANCH  11  12
ENDBRANCH   8  11
ENDBRANCH   3   5
BRANCH   1  18
ATOM     18  C   UNL     1       0.870   9.660  19.929  0.00  0.00    +0.000 C 
BRANCH  18  19
ATOM     19  C   UNL     1       0.001  10.871  20.206  0.00  0.00    +0.000 C 
BRANCH  19  24
ATOM     20  C   UNL     1      -3.447  13.385  22.950  0.00  0.00    +0.000 C 
ATOM     21  C   UNL     1      -3.514  12.561  21.670  0.00  0.00    +0.000 C 
ATOM     22  C   UNL     1      -2.192  12.622  20.922  0.00  0.00    +0.000 C 
ATOM     23  N   UNL     1      -2.258  11.766  19.728  0.00  0.00    +0.000 N 
ATOM     24  C   UNL     1      -1.260  10.869  19.357  0.00  0.00    +0.000 C 
ATOM     25  O   UNL     1      -1.360  10.020  18.467  0.00  0.00    +0.000 OA
ATOM     26  C   UNL     1      -3.472  11.932  18.982  0.00  0.00    +0.000 A 
ATOM     27  C   UNL     1      -3.615  11.497  17.657  0.00  0.00    +0.000 A 
ATOM     28  C   UNL     1      -4.816  11.672  16.964  0.00  0.00    +0.000 A 
ATOM     29  C   UNL     1      -5.893  12.301  17.578  0.00  0.00    +0.000 A 
ATOM     30  C   UNL     1      -5.765  12.769  18.885  0.00  0.00    +0.000 A 
ATOM     31  C   UNL     1      -4.569  12.585  19.580  0.00  0.00    +0.000 A 
ATOM     32  O   UNL     1      -4.575  13.083  20.863  0.00  0.00    +0.000 OA
ENDBRANCH  19  24
ENDBRANCH  18  19
ENDBRANCH   1  18
TORSDOF 6
ENDMDL
MODEL 6
REMARK VINA RESULT:      -8.4      2.419      3.192
REMARK  Name = 
REMARK  7 active torsions:
REMARK  status: ('A' for Active; 'I' for Inactive)
REMARK    1  A    between atoms: C_1  and  C_2
REMARK    2  A    between atoms: C_5  and  C_7
REMARK    3  A    between atoms: C_7  and  C_8
REMARK    4  A    between atoms: C_8  and  C_9
REMARK    5  A    between atoms: N_11  and  C_12
REMARK    6  A    between atoms: N_15  and  C_16
REMARK    7  A    between atoms: C_16  and  C_17
REMARK                            x       y       z     vdW  Elec       q    Type
REMARK                         _______ _______ _______ _____ _____    ______ ____
ROOT
ATOM      1  C   UNL     1       1.831   6.075  20.518  0.00  0.00    +0.000 C 
ATOM      2  O   UNL     1       1.562   4.913  20.809  0.00  0.00    +0.000 OA
ATOM      3  N   UNL     1       1.035   7.080  20.995  0.00  0.00    +0.000 N 
ATOM      4  H   UNL     1       0.262   6.747  21.559  0.00  0.00    +0.000 HD
ENDROOT
BRANCH   3   5
ATOM      5  C   UNL     1       1.367   8.499  20.993  0.00  0.00    +0.000 C 
ATOM      6  C   UNL     1       1.003   9.165  22.315  0.00  0.00    +0.000 C 
ATOM      7  C   UNL     1      -0.306   9.926  22.279  0.00  0.00    +0.000 C 
ATOM      8  N   UNL     1      -0.287  10.853  21.139  0.00  0.00    +0.000 NA
ATOM      9  C   UNL     1      -0.364  10.083  19.897  0.00  0.00    +0.000 C 
ATOM     10  C   UNL     1       0.870   9.201  19.722  0.00  0.00    +0.000 C 
BRANCH   8  11
ATOM     11  C   UNL     1      -1.377  11.844  21.217  0.00  0.00    +0.000 C 
BRANCH  11  12
ATOM     12  C   UNL     1      -1.002  13.016  22.104  0.00  0.00    +0.000 A 
ATOM     13  C   UNL     1      -1.765  13.313  23.244  0.00  0.00    +0.000 A 
ATOM     14  C   UNL     1      -1.545  14.494  23.952  0.00  0.00    +0.000 A 
ATOM     15  C   UNL     1      -0.549  15.378  23.540  0.00  0.00    +0.000 A 
ATOM     16  C   UNL     1       0.248  15.067  22.439  0.00  0.00    +0.000 A 
ATOM     17  C   UNL     1       0.028  13.889  21.726  0.00  0.00    +0.000 A 
ENDBRANCH  11  12
ENDBRANCH   8  11
ENDBRANCH   3   5
BRANCH   1  18
ATOM     18  C   UNL     1       3.005   6.453  19.625  0.00  0.00    +0.000 C 
BRANCH  18  19
ATOM     19  C   UNL     1       3.947   5.273  19.483  0.00  0.00    +0.000 C 
BRANCH  19  24
ATOM     20  C   UNL     1       8.065   7.871  18.062  0.00  0.00    +0.000 C 
ATOM     21  C   UNL     1       7.030   7.042  17.311  0.00  0.00    +0.000 C 
ATOM     22  C   UNL     1       6.456   5.958  18.210  0.00  0.00    +0.000 C 
ATOM     23  N   UNL     1       5.412   5.216  17.487  0.00  0.00    +0.000 N 
ATOM     24  C   UNL     1       4.168   4.899  18.025  0.00  0.00    +0.000 C 
ATOM     25  O   UNL     1       3.216   4.435  17.393  0.00  0.00    +0.000 OA
ATOM     26  C   UNL     1       5.795   4.861  16.151  0.00  0.00    +0.000 A 
ATOM     27  C   UNL     1       5.129   3.881  15.404  0.00  0.00    +0.000 A 
ATOM     28  C   UNL     1       5.528   3.566  14.103  0.00  0.00    +0.000 A 
ATOM     29  C   UNL     1       6.614   4.216  13.528  0.00  0.00    +0.000 A 
ATOM     30  C   UNL     1       7.311   5.175  14.262  0.00  0.00    +0.000 A 
ATOM     31  C   UNL     1       6.906   5.496  15.558  0.00  0.00    +0.000 A 
ATOM     32  O   UNL     1       7.670   6.462  16.169  0.00  0.00    +0.000 OA
ENDBRANCH  19  24
ENDBRANCH  18  19
ENDBRANCH   1  18
TORSDOF 6
ENDMDL
MODEL 7
REMARK VINA RESULT:      -8.4      3.128      5.612
REMARK  Name = 
REMARK  7 active torsions:
REMARK  status: ('A' for Active; 'I' for Inactive)
REMARK    1  A    between atoms: C_1  and  C_2
REMARK    2  A    between atoms: C_5  and  C_7
REMARK    3  A    between atoms: C_7  and  C_8
REMARK    4  A    between atoms: C_8  and  C_9
REMARK    5  A    between atoms: N_11  and  C_12
REMARK    6  A    between atoms: N_15  and  C_16
REMARK    7  A    between atoms: C_16  and  C_17
REMARK                            x       y       z     vdW  Elec       q    Type
REMARK                         _______ _______ _______ _____ _____    ______ ____
ROOT
ATOM      1  C   UNL     1       1.778  10.692  18.158  0.00  0.00    +0.000 C 
ATOM      2  O   UNL     1       2.696  11.246  17.560  0.00  0.00    +0.000 OA
ATOM      3  N   UNL     1       1.052  11.409  19.071  0.00  0.00    +0.000 N 
ATOM      4  H   UNL     1       1.369  12.366  19.173  0.00  0.00    +0.000 HD
ENDROOT
BRANCH   3   5
ATOM      5  C   UNL     1      -0.226  11.008  19.643  0.00  0.00    +0.000 C 
ATOM      6  C   UNL     1      -1.324  12.020  19.337  0.00  0.00    +0.000 C 
ATOM      7  C   UNL     1      -1.616  12.971  20.479  0.00  0.00    +0.000 C 
ATOM      8  N   UNL     1      -1.860  12.191  21.699  0.00  0.00    +0.000 NA
ATOM      9  C   UNL     1      -0.601  11.588  22.139  0.00  0.00    +0.000 C 
ATOM     10  C   UNL     1      -0.087  10.582  21.112  0.00  0.00    +0.000 C 
BRANCH   8  11
ATOM     11  C   UNL     1      -2.456  13.013  22.769  0.00  0.00    +0.000 C 
BRANCH  11  12
ATOM     12  C   UNL     1      -3.952  12.783  22.881  0.00  0.00    +0.000 A 
ATOM     13  C   UNL     1      -4.749  12.740  21.726  0.00  0.00    +0.000 A 
ATOM     14  C   UNL     1      -6.140  12.722  21.829  0.00  0.00    +0.000 A 
ATOM     15  C   UNL     1      -6.745  12.727  23.085  0.00  0.00    +0.000 A 
ATOM     16  C   UNL     1      -5.961  12.717  24.237  0.00  0.00    +0.000 A 
ATOM     17  C   UNL     1      -4.570  12.739  24.138  0.00  0.00    +0.000 A 
ENDBRANCH  11  12
ENDBRANCH   8  11
ENDBRANCH   3   5
BRANCH   1  18
ATOM     18  C   UNL     1       1.417   9.228  17.947  0.00  0.00    +0.000 C 
BRANCH  18  19
ATOM     19  C   UNL     1       2.637   8.357  18.175  0.00  0.00    +0.000 C 
BRANCH  19  24
ATOM     20  C   UNL     1       4.989   4.416  16.016  0.00  0.00    +0.000 C 
ATOM     21  C   UNL     1       3.986   4.550  17.155  0.00  0.00    +0.000 C 
ATOM     22  C   UNL     1       4.131   5.899  17.842  0.00  0.00    +0.000 C 
ATOM     23  N   UNL     1       3.108   6.034  18.890  0.00  0.00    +0.000 N 
ATOM     24  C   UNL     1       2.324   7.170  19.071  0.00  0.00    +0.000 C 
ATOM     25  O   UNL     1       1.348   7.249  19.822  0.00  0.00    +0.000 OA
ATOM     26  C   UNL     1       2.982   4.862  19.708  0.00  0.00    +0.000 A 
ATOM     27  C   UNL     1       2.341   4.871  20.954  0.00  0.00    +0.000 A 
ATOM     28  C   UNL     1       2.233   3.708  21.721  0.00  0.00    +0.000 A 
ATOM     29  C   UNL     1       2.779   2.514  21.262  0.00  0.00    +0.000 A 
ATOM     30  C   UNL     1       3.447   2.487  20.039  0.00  0.00    +0.000 A 
ATOM     31  C   UNL     1       3.547   3.647  19.269  0.00  0.00    +0.000 A 
ATOM     32  O   UNL     1       4.220   3.485  18.081  0.00  0.00    +0.000 OA
ENDBRANCH  19  24
ENDBRANCH  18  19
ENDBRANCH   1  18
TORSDOF 6
ENDMDL
MODEL 8
REMARK VINA RESULT:      -8.3      3.535      9.730
REMARK  Name = 
REMARK  7 active torsions:
REMARK  status: ('A' for Active; 'I' for Inactive)
REMARK    1  A    between atoms: C_1  and  C_2
REMARK    2  A    between atoms: C_5  and  C_7
REMARK    3  A    between atoms: C_7  and  C_8
REMARK    4  A    between atoms: C_8  and  C_9
REMARK    5  A    between atoms: N_11  and  C_12
REMARK    6  A    between atoms: N_15  and  C_16
REMARK    7  A    between atoms: C_16  and  C_17
REMARK                            x       y       z     vdW  Elec       q    Type
REMARK                         _______ _______ _______ _____ _____    ______ ____
ROOT
ATOM      1  C   UNL     1       1.783   8.030  19.816  0.00  0.00    +0.000 C 
ATOM      2  O   UNL     1       1.517   8.091  21.013  0.00  0.00    +0.000 OA
ATOM      3  N   UNL     1       2.568   7.006  19.362  0.00  0.00    +0.000 N 
ATOM      4  H   UNL     1       2.873   6.378  20.096  0.00  0.00    +0.000 HD
ENDROOT
BRANCH   3   5
ATOM      5  C   UNL     1       2.737   6.620  17.967  0.00  0.00    +0.000 C 
ATOM      6  C   UNL     1       2.577   5.117  17.774  0.00  0.00    +0.000 C 
ATOM      7  C   UNL     1       3.891   4.368  17.678  0.00  0.00    +0.000 C 
ATOM      8  N   UNL     1       4.730   5.006  16.654  0.00  0.00    +0.000 NA
ATOM      9  C   UNL     1       5.174   6.310  17.148  0.00  0.00    +0.000 C 
ATOM     10  C   UNL     1       3.991   7.253  17.346  0.00  0.00    +0.000 C 
BRANCH   8  11
ATOM     11  C   UNL     1       5.879   4.161  16.279  0.00  0.00    +0.000 C 
BRANCH  11  12
ATOM     12  C   UNL     1       6.211   4.296  14.805  0.00  0.00    +0.000 A 
ATOM     13  C   UNL     1       5.509   3.544  13.850  0.00  0.00    +0.000 A 
ATOM     14  C   UNL     1       5.935   3.517  12.521  0.00  0.00    +0.000 A 
ATOM     15  C   UNL     1       7.051   4.256  12.132  0.00  0.00    +0.000 A 
ATOM     16  C   UNL     1       7.723   5.047  13.063  0.00  0.00    +0.000 A 
ATOM     17  C   UNL     1       7.303   5.073  14.393  0.00  0.00    +0.000 A 
ENDBRANCH  11  12
ENDBRANCH   8  11
ENDBRANCH   3   5
BRANCH   1  18
ATOM     18  C   UNL     1       1.294   9.060  18.807  0.00  0.00    +0.000 C 
BRANCH  18  19
ATOM     19  C   UNL     1       0.954  10.357  19.515  0.00  0.00    +0.000 C 
BRANCH  19  24
ATOM     20  C   UNL     1      -2.012  14.310  20.660  0.00  0.00    +0.000 C 
ATOM     21  C   UNL     1      -0.831  14.115  19.716  0.00  0.00    +0.000 C 
ATOM     22  C   UNL     1       0.097  13.028  20.235  0.00  0.00    +0.000 C 
ATOM     23  N   UNL     1       1.190  12.810  19.275  0.00  0.00    +0.000 N 
ATOM     24  C   UNL     1       1.616  11.554  18.852  0.00  0.00    +0.000 C 
ATOM     25  O   UNL     1       2.405  11.344  17.927  0.00  0.00    +0.000 OA
ATOM     26  C   UNL     1       1.771  14.031  18.796  0.00  0.00    +0.000 A 
ATOM     27  C   UNL     1       3.019  14.081  18.160  0.00  0.00    +0.000 A 
ATOM     28  C   UNL     1       3.550  15.289  17.702  0.00  0.00    +0.000 A 
ATOM     29  C   UNL     1       2.850  16.476  17.886  0.00  0.00    +0.000 A 
ATOM     30  C   UNL     1       1.620  16.456  18.542  0.00  0.00    +0.000 A 
ATOM     31  C   UNL     1       1.085  15.248  18.991  0.00  0.00    +0.000 A 
ATOM     32  O   UNL     1      -0.137  15.363  19.612  0.00  0.00    +0.000 OA
ENDBRANCH  19  24
ENDBRANCH  18  19
ENDBRANCH   1  18
TORSDOF 6
ENDMDL
MODEL 9
REMARK VINA RESULT:      -8.3      4.487     10.807
REMARK  Name = 
REMARK  7 active torsions:
REMARK  status: ('A' for Active; 'I' for Inactive)
REMARK    1  A    between atoms: C_1  and  C_2
REMARK    2  A    between atoms: C_5  and  C_7
REMARK    3  A    between atoms: C_7  and  C_8
REMARK    4  A    between atoms: C_8  and  C_9
REMARK    5  A    between atoms: N_11  and  C_12
REMARK    6  A    between atoms: N_15  and  C_16
REMARK    7  A    between atoms: C_16  and  C_17
REMARK                            x       y       z     vdW  Elec       q    Type
REMARK                         _______ _______ _______ _____ _____    ______ ____
ROOT
ATOM      1  C   UNL     1       1.166  12.202  20.051  0.00  0.00    +0.000 C 
ATOM      2  O   UNL     1       1.898  13.169  20.240  0.00  0.00    +0.000 OA
ATOM      3  N   UNL     1       1.503  11.291  19.087  0.00  0.00    +0.000 N 
ATOM      4  H   UNL     1       2.357  11.526  18.595  0.00  0.00    +0.000 HD
ENDROOT
BRANCH   3   5
ATOM      5  C   UNL     1       0.923   9.964  18.931  0.00  0.00    +0.000 C 
ATOM      6  C   UNL     1       0.839   9.226  20.262  0.00  0.00    +0.000 C 
ATOM      7  C   UNL     1       1.956   8.226  20.480  0.00  0.00    +0.000 C 
ATOM      8  N   UNL     1       2.031   7.333  19.317  0.00  0.00    +0.000 NA
ATOM      9  C   UNL     1       2.536   8.087  18.169  0.00  0.00    +0.000 C 
ATOM     10  C   UNL     1       1.563   9.193  17.768  0.00  0.00    +0.000 C 
BRANCH   8  11
ATOM     11  C   UNL     1       2.869   6.149  19.584  0.00  0.00    +0.000 C 
BRANCH  11  12
ATOM     12  C   UNL     1       2.135   4.862  19.258  0.00  0.00    +0.000 A 
ATOM     13  C   UNL     1       1.272   4.282  20.201  0.00  0.00    +0.000 A 
ATOM     14  C   UNL     1       0.746   3.007  19.986  0.00  0.00    +0.000 A 
ATOM     15  C   UNL     1       1.062   2.311  18.820  0.00  0.00    +0.000 A 
ATOM     16  C   UNL     1       1.876   2.901  17.854  0.00  0.00    +0.000 A 
ATOM     17  C   UNL     1       2.406   4.173  18.067  0.00  0.00    +0.000 A 
ENDBRANCH  11  12
ENDBRANCH   8  11
ENDBRANCH   3   5
BRANCH   1  18
ATOM     18  C   UNL     1      -0.121  11.973  20.833  0.00  0.00    +0.000 C 
BRANCH  18  19
ATOM     19  C   UNL     1      -1.081  13.123  20.595  0.00  0.00    +0.000 C 
BRANCH  19  24
ATOM     20  C   UNL     1      -4.365  12.927  24.456  0.00  0.00    +0.000 C 
ATOM     21  C   UNL     1      -4.412  12.459  23.006  0.00  0.00    +0.000 C 
ATOM     22  C   UNL     1      -3.526  13.332  22.131  0.00  0.00    +0.000 C 
ATOM     23  N   UNL     1      -3.533  12.820  20.753  0.00  0.00    +0.000 N 
ATOM     24  C   UNL     1      -2.388  12.650  19.979  0.00  0.00    +0.000 C 
ATOM     25  O   UNL     1      -2.342  12.067  18.894  0.00  0.00    +0.000 OA
ATOM     26  C   UNL     1      -4.847  12.492  20.280  0.00  0.00    +0.000 A 
ATOM     27  C   UNL     1      -5.145  12.319  18.922  0.00  0.00    +0.000 A 
ATOM     28  C   UNL     1      -6.437  11.995  18.499  0.00  0.00    +0.000 A 
ATOM     29  C   UNL     1      -7.461  11.851  19.428  0.00  0.00    +0.000 A 
ATOM     30  C   UNL     1      -7.195  12.046  20.783  0.00  0.00    +0.000 A 
ATOM     31  C   UNL     1      -5.903  12.361  21.205  0.00  0.00    +0.000 A 
ATOM     32  O   UNL     1      -5.772  12.518  22.565  0.00  0.00    +0.000 OA
ENDBRANCH  19  24
ENDBRANCH  18  19
ENDBRANCH   1  18
TORSDOF 6
ENDMDL
