MODEL 1
REMARK VINA RESULT:      -8.8      0.000      0.000
REMARK  Name = 
REMARK  4 active torsions:
REMARK  status: ('A' for Active; 'I' for Inactive)
REMARK    1  A    between atoms: C_1  and  O_2
REMARK    2  A    between atoms: O_2  and  C_3
REMARK    3  A    between atoms: C_18  and  C_19
REMARK    4  A    between atoms: C_22  and  C_23
REMARK                            x       y       z     vdW  Elec       q    Type
REMARK                         _______ _______ _______ _____ _____    ______ ____
ROOT
ATOM      1  C   UNL     1       5.783   4.352  15.099  0.00  0.00    +0.000 A 
ATOM      2  C   UNL     1       5.917   5.663  15.521  0.00  0.00    +0.000 A 
ATOM      3  C   UNL     1       5.109   6.159  16.545  0.00  0.00    +0.000 A 
ATOM      4  C   UNL     1       4.144   5.353  17.185  0.00  0.00    +0.000 A 
ATOM      5  C   UNL     1       3.311   5.824  18.237  0.00  0.00    +0.000 A 
ATOM      6  C   UNL     1       2.429   4.946  18.877  0.00  0.00    +0.000 A 
ATOM      7  C   UNL     1       2.293   3.636  18.429  0.00  0.00    +0.000 A 
ATOM      8  C   UNL     1       3.067   3.177  17.363  0.00  0.00    +0.000 A 
ATOM      9  C   UNL     1       4.008   4.015  16.745  0.00  0.00    +0.000 A 
ATOM     10  C   UNL     1       4.815   3.537  15.693  0.00  0.00    +0.000 A 
ATOM     11  O   UNL     1       1.633   5.306  19.934  0.00  0.00    +0.000 OA
ATOM     12  C   UNL     1       1.946   6.580  20.520  0.00  0.00    +0.000 C 
ATOM     13  N   UNL     1       2.214   7.569  19.510  0.00  0.00    +0.000 N 
ATOM     14  C   UNL     1       1.540   8.747  19.460  0.00  0.00    +0.000 A 
ATOM     15  N   UNL     1       0.655   9.151  20.350  0.00  0.00    +0.000 NA
ATOM     16  C   UNL     1       0.120  10.384  19.997  0.00  0.00    +0.000 A 
ATOM     17  C   UNL     1       0.610  10.915  18.825  0.00  0.00    +0.000 A 
ATOM     18  S   UNL     1       1.777   9.886  18.164  0.00  0.00    +0.000 S 
ATOM     19  C   UNL     1       3.350   7.265  18.671  0.00  0.00    +0.000 C 
ENDROOT
BRANCH  16  20
ATOM     20  C   UNL     1      -0.849  11.090  20.825  0.00  0.00    +0.000 A 
ATOM     21  C   UNL     1      -0.820  10.949  22.215  0.00  0.00    +0.000 A 
ATOM     22  C   UNL     1      -1.721  11.651  23.021  0.00  0.00    +0.000 A 
ATOM     23  C   UNL     1      -2.674  12.501  22.447  0.00  0.00    +0.000 A 
ATOM     24  C   UNL     1      -3.669  13.235  23.296  0.00  0.00    +0.000 C 
ATOM     25  C   UNL     1      -2.704  12.646  21.057  0.00  0.00    +0.000 A 
ATOM     26  C   UNL     1      -1.799  11.947  20.255  0.00  0.00    +0.000 A 
ENDBRANCH  16  20
BRANCH   1  28
ATOM     27  C   UNL     1       5.836   3.606  12.865  0.00  0.00    +0.000 C 
ATOM     28  O   UNL     1       6.528   3.780  14.100  0.00  0.00    +0.000 OA
ENDBRANCH   1  28
TORSDOF 2
ENDMDL
MODEL 2
REMARK VINA RESULT:      -8.5      0.899      1.336
REMARK  Name = 
REMARK  4 active torsions:
REMARK  status: ('A' for Active; 'I' for Inactive)
REMARK    1  A    between atoms: C_1  and  O_2
REMARK    2  A    between atoms: O_2  and  C_3
REMARK    3  A    between atoms: C_18  and  C_19
REMARK    4  A    between atoms: C_22  and  C_23
REMARK                            x       y       z     vdW  Elec       q    Type
REMARK                         _______ _______ _______ _____ _____    ______ ____
ROOT
ATOM      1  C   UNL     1       5.178   4.408  15.880  0.00  0.00    +0.000 A 
ATOM      2  C   UNL     1       5.293   5.764  16.128  0.00  0.00    +0.000 A 
ATOM      3  C   UNL     1       4.510   6.368  17.112  0.00  0.00    +0.000 A 
ATOM      4  C   UNL     1       3.589   5.629  17.886  0.00  0.00    +0.000 A 
ATOM      5  C   UNL     1       2.783   6.213  18.902  0.00  0.00    +0.000 A 
ATOM      6  C   UNL     1       1.948   5.404  19.682  0.00  0.00    +0.000 A 
ATOM      7  C   UNL     1       1.832   4.045  19.409  0.00  0.00    +0.000 A 
ATOM      8  C   UNL     1       2.578   3.471  18.380  0.00  0.00    +0.000 A 
ATOM      9  C   UNL     1       3.473   4.244  17.624  0.00  0.00    +0.000 A 
ATOM     10  C   UNL     1       4.254   3.654  16.610  0.00  0.00    +0.000 A 
ATOM     11  O   UNL     1       1.182   5.878  20.715  0.00  0.00    +0.000 OA
ATOM     12  C   UNL     1       1.482   7.222  21.123  0.00  0.00    +0.000 C 
ATOM     13  N   UNL     1       1.687   8.081  19.986  0.00  0.00    +0.000 N 
ATOM     14  C   UNL     1       0.981   9.228  19.815  0.00  0.00    +0.000 A 
ATOM     15  N   UNL     1       0.118   9.722  20.681  0.00  0.00    +0.000 NA
ATOM     16  C   UNL     1      -0.462  10.888  20.197  0.00  0.00    +0.000 A 
ATOM     17  C   UNL     1      -0.030  11.276  18.948  0.00  0.00    +0.000 A 
ATOM     18  S   UNL     1       1.140  10.197  18.377  0.00  0.00    +0.000 S 
ATOM     19  C   UNL     1       2.799   7.697  19.149  0.00  0.00    +0.000 C 
ENDROOT
BRANCH  16  20
ATOM     20  C   UNL     1      -1.419  11.673  20.966  0.00  0.00    +0.000 A 
ATOM     21  C   UNL     1      -2.373  12.456  20.311  0.00  0.00    +0.000 A 
ATOM     22  C   UNL     1      -3.319  13.184  21.038  0.00  0.00    +0.000 A 
ATOM     23  C   UNL     1      -3.321  13.146  22.438  0.00  0.00    +0.000 A 
ATOM     24  C   UNL     1      -4.308  13.947  23.233  0.00  0.00    +0.000 C 
ATOM     25  C   UNL     1      -2.369  12.362  23.096  0.00  0.00    +0.000 A 
ATOM     26  C   UNL     1      -1.428  11.633  22.366  0.00  0.00    +0.000 A 
ENDBRANCH  16  20
BRANCH   1  28
ATOM     27  C   UNL     1       6.731   4.552  14.114  0.00  0.00    +0.000 C 
ATOM     28  O   UNL     1       5.901   3.730  14.933  0.00  0.00    +0.000 OA
ENDBRANCH   1  28
TORSDOF 2
ENDMDL
MODEL 3
REMARK VINA RESULT:      -8.2      2.687     10.330
REMARK  Name = 
REMARK  4 active torsions:
REMARK  status: ('A' for Active; 'I' for Inactive)
REMARK    1  A    between atoms: C_1  and  O_2
REMARK    2  A    between atoms: O_2  and  C_3
REMARK    3  A    between atoms: C_18  and  C_19
REMARK    4  A    between atoms: C_22  and  C_23
REMARK                            x       y       z     vdW  Elec       q    Type
REMARK                         _______ _______ _______ _____ _____    ______ ____
ROOT
ATOM      1  C   UNL     1      -3.545  12.759  23.438  0.00  0.00    +0.000 A 
ATOM      2  C   UNL     1      -2.329  12.192  23.777  0.00  0.00    +0.000 A 
ATOM      3  C   UNL     1      -1.472  11.720  22.782  0.00  0.00    +0.000 A 
ATOM      4  C   UNL     1      -1.803  11.809  21.413  0.00  0.00    +0.000 A 
ATOM      5  C   UNL     1      -0.948  11.347  20.375  0.00  0.00    +0.000 A 
ATOM      6  C   UNL     1      -1.309  11.537  19.036  0.00  0.00    +0.000 A 
ATOM      7  C   UNL     1      -2.543  12.094  18.713  0.00  0.00    +0.000 A 
ATOM      8  C   UNL     1      -3.412  12.503  19.723  0.00  0.00    +0.000 A 
ATOM      9  C   UNL     1      -3.050  12.386  21.074  0.00  0.00    +0.000 A 
ATOM     10  C   UNL     1      -3.915  12.835  22.092  0.00  0.00    +0.000 A 
ATOM     11  O   UNL     1      -0.519  11.171  17.977  0.00  0.00    +0.000 OA
ATOM     12  C   UNL     1       0.828  10.812  18.324  0.00  0.00    +0.000 C 
ATOM     13  N   UNL     1       0.862   9.991  19.507  0.00  0.00    +0.000 N 
ATOM     14  C   UNL     1       1.469   8.777  19.523  0.00  0.00    +0.000 A 
ATOM     15  N   UNL     1       2.152   8.259  18.521  0.00  0.00    +0.000 NA
ATOM     16  C   UNL     1       2.619   6.990  18.839  0.00  0.00    +0.000 A 
ATOM     17  C   UNL     1       2.281   6.546  20.098  0.00  0.00    +0.000 A 
ATOM     18  S   UNL     1       1.398   7.734  20.915  0.00  0.00    +0.000 S 
ATOM     19  C   UNL     1       0.341  10.637  20.689  0.00  0.00    +0.000 C 
ENDROOT
BRANCH  16  20
ATOM     20  C   UNL     1       3.445   6.202  17.933  0.00  0.00    +0.000 A 
ATOM     21  C   UNL     1       4.413   6.827  17.142  0.00  0.00    +0.000 A 
ATOM     22  C   UNL     1       5.236   6.077  16.297  0.00  0.00    +0.000 A 
ATOM     23  C   UNL     1       5.098   4.686  16.223  0.00  0.00    +0.000 A 
ATOM     24  C   UNL     1       5.951   3.871  15.297  0.00  0.00    +0.000 C 
ATOM     25  C   UNL     1       4.132   4.057  17.014  0.00  0.00    +0.000 A 
ATOM     26  C   UNL     1       3.315   4.809  17.861  0.00  0.00    +0.000 A 
ENDBRANCH  16  20
BRANCH   1  28
ATOM     27  C   UNL     1      -5.771  12.720  24.210  0.00  0.00    +0.000 C 
ATOM     28  O   UNL     1      -4.451  13.245  24.345  0.00  0.00    +0.000 OA
ENDBRANCH   1  28
TORSDOF 2
ENDMDL
MODEL 4
REMARK VINA RESULT:      -7.8      2.572     10.192
REMARK  Name = 
REMARK  4 active torsions:
REMARK  status: ('A' for Active; 'I' for Inactive)
REMARK    1  A    between atoms: C_1  and  O_2
REMARK    2  A    between atoms: O_2  and  C_3
REMARK    3  A    between atoms: C_18  and  C_19
REMARK    4  A    between atoms: C_22  and  C_23
REMARK                            x       y       z     vdW  Elec       q    Type
REMARK                         _______ _______ _______ _____ _____    ______ ____
ROOT
ATOM      1  C   UNL     1      -2.934  12.213  23.247  0.00  0.00    +0.000 A 
ATOM      2  C   UNL     1      -1.777  11.528  23.576  0.00  0.00    +0.000 A 
ATOM      3  C   UNL     1      -0.896  11.115  22.576  0.00  0.00    +0.000 A 
ATOM      4  C   UNL     1      -1.142  11.382  21.212  0.00  0.00    +0.000 A 
ATOM      5  C   UNL     1      -0.261  10.982  20.171  0.00  0.00    +0.000 A 
ATOM      6  C   UNL     1      -0.532  11.348  18.847  0.00  0.00    +0.000 A 
ATOM      7  C   UNL     1      -1.707  12.021  18.531  0.00  0.00    +0.000 A 
ATOM      8  C   UNL     1      -2.606  12.372  19.538  0.00  0.00    +0.000 A 
ATOM      9  C   UNL     1      -2.330  12.077  20.882  0.00  0.00    +0.000 A 
ATOM     10  C   UNL     1      -3.221  12.466  21.902  0.00  0.00    +0.000 A 
ATOM     11  O   UNL     1       0.293  11.051  17.793  0.00  0.00    +0.000 OA
ATOM     12  C   UNL     1       1.593  10.563  18.162  0.00  0.00    +0.000 C 
ATOM     13  N   UNL     1       1.508   9.613  19.240  0.00  0.00    +0.000 N 
ATOM     14  C   UNL     1       2.036   8.365  19.144  0.00  0.00    +0.000 A 
ATOM     15  N   UNL     1       2.741   7.920  18.123  0.00  0.00    +0.000 NA
ATOM     16  C   UNL     1       3.109   6.593  18.313  0.00  0.00    +0.000 A 
ATOM     17  C   UNL     1       2.673   6.033  19.493  0.00  0.00    +0.000 A 
ATOM     18  S   UNL     1       1.821   7.178  20.400  0.00  0.00    +0.000 S 
ATOM     19  C   UNL     1       0.962  10.154  20.463  0.00  0.00    +0.000 C 
ENDROOT
BRANCH  16  20
ATOM     20  C   UNL     1       3.934   5.858  17.363  0.00  0.00    +0.000 A 
ATOM     21  C   UNL     1       3.931   4.461  17.364  0.00  0.00    +0.000 A 
ATOM     22  C   UNL     1       4.691   3.746  16.434  0.00  0.00    +0.000 A 
ATOM     23  C   UNL     1       5.474   4.420  15.489  0.00  0.00    +0.000 A 
ATOM     24  C   UNL     1       6.320   3.667  14.506  0.00  0.00    +0.000 C 
ATOM     25  C   UNL     1       5.479   5.817  15.484  0.00  0.00    +0.000 A 
ATOM     26  C   UNL     1       4.715   6.528  16.413  0.00  0.00    +0.000 A 
ENDBRANCH  16  20
BRANCH   1  28
ATOM     27  C   UNL     1      -3.708  14.017  24.549  0.00  0.00    +0.000 C 
ATOM     28  O   UNL     1      -3.859  12.654  24.158  0.00  0.00    +0.000 OA
ENDBRANCH   1  28
TORSDOF 2
ENDMDL
MODEL 5
REMARK VINA RESULT:      -7.6      1.339      2.161
REMARK  Name = 
REMARK  4 active torsions:
REMARK  status: ('A' for Active; 'I' for Inactive)
REMARK    1  A    between atoms: C_1  and  O_2
REMARK    2  A    between atoms: O_2  and  C_3
REMARK    3  A    between atoms: C_18  and  C_19
REMARK    4  A    between atoms: C_22  and  C_23
REMARK                            x       y       z     vdW  Elec       q    Type
REMARK                         _______ _______ _______ _____ _____    ______ ____
ROOT
ATOM      1  C   UNL     1       4.649   5.168  16.551  0.00  0.00    +0.000 A 
ATOM      2  C   UNL     1       4.591   6.550  16.553  0.00  0.00    +0.000 A 
ATOM      3  C   UNL     1       3.825   7.221  17.507  0.00  0.00    +0.000 A 
ATOM      4  C   UNL     1       3.097   6.527  18.496  0.00  0.00    +0.000 A 
ATOM      5  C   UNL     1       2.314   7.181  19.487  0.00  0.00    +0.000 A 
ATOM      6  C   UNL     1       1.680   6.430  20.484  0.00  0.00    +0.000 A 
ATOM      7  C   UNL     1       1.734   5.041  20.459  0.00  0.00    +0.000 A 
ATOM      8  C   UNL     1       2.455   4.387  19.460  0.00  0.00    +0.000 A 
ATOM      9  C   UNL     1       3.156   5.113  18.486  0.00  0.00    +0.000 A 
ATOM     10  C   UNL     1       3.915   4.451  17.501  0.00  0.00    +0.000 A 
ATOM     11  O   UNL     1       0.954   6.985  21.506  0.00  0.00    +0.000 OA
ATOM     12  C   UNL     1       1.096   8.408  21.645  0.00  0.00    +0.000 C 
ATOM     13  N   UNL     1       1.068   9.064  20.364  0.00  0.00    +0.000 N 
ATOM     14  C   UNL     1       0.192  10.064  20.086  0.00  0.00    +0.000 A 
ATOM     15  N   UNL     1      -0.648  10.596  20.952  0.00  0.00    +0.000 NA
ATOM     16  C   UNL     1      -1.432  11.573  20.351  0.00  0.00    +0.000 A 
ATOM     17  C   UNL     1      -1.178  11.779  19.013  0.00  0.00    +0.000 A 
ATOM     18  S   UNL     1       0.076  10.767  18.497  0.00  0.00    +0.000 S 
ATOM     19  C   UNL     1       2.140   8.676  19.478  0.00  0.00    +0.000 C 
ENDROOT
BRANCH  16  20
ATOM     20  C   UNL     1      -2.414  12.360  21.084  0.00  0.00    +0.000 A 
ATOM     21  C   UNL     1      -2.488  12.271  22.477  0.00  0.00    +0.000 A 
ATOM     22  C   UNL     1      -3.402  13.048  23.194  0.00  0.00    +0.000 A 
ATOM     23  C   UNL     1      -4.266  13.924  22.526  0.00  0.00    +0.000 A 
ATOM     24  C   UNL     1      -5.275  14.739  23.279  0.00  0.00    +0.000 C 
ATOM     25  C   UNL     1      -4.195  14.017  21.134  0.00  0.00    +0.000 A 
ATOM     26  C   UNL     1      -3.277  13.242  20.421  0.00  0.00    +0.000 A 
ENDBRANCH  16  20
BRANCH   1  28
ATOM     27  C   UNL     1       6.651   4.960  15.327  0.00  0.00    +0.000 C 
ATOM     28  O   UNL     1       5.370   4.424  15.653  0.00  0.00    +0.000 OA
ENDBRANCH   1  28
TORSDOF 2
ENDMDL
MODEL 6
REMARK VINA RESULT:      -7.5      3.566     10.871
REMARK  Name = 
REMARK  4 active torsions:
REMARK  status: ('A' for Active; 'I' for Inactive)
REMARK    1  A    between atoms: C_1  and  O_2
REMARK    2  A    between atoms: O_2  and  C_3
REMARK    3  A    between atoms: C_18  and  C_19
REMARK    4  A    between atoms: C_22  and  C_23
REMARK                            x       y       z     vdW  Elec       q    Type
REMARK                         _______ _______ _______ _____ _____    ______ ____
ROOT
ATOM      1  C   UNL     1      -5.770  14.461  22.297  0.00  0.00    +0.000 A 
ATOM      2  C   UNL     1      -4.435  14.363  22.647  0.00  0.00    +0.000 A 
ATOM      3  C   UNL     1      -3.544  13.661  21.833  0.00  0.00    +0.000 A 
ATOM      4  C   UNL     1      -3.963  13.040  20.637  0.00  0.00    +0.000 A 
ATOM      5  C   UNL     1      -3.080  12.325  19.783  0.00  0.00    +0.000 A 
ATOM      6  C   UNL     1      -3.551  11.800  18.573  0.00  0.00    +0.000 A 
ATOM      7  C   UNL     1      -4.899  11.893  18.244  0.00  0.00    +0.000 A 
ATOM      8  C   UNL     1      -5.785  12.545  19.101  0.00  0.00    +0.000 A 
ATOM      9  C   UNL     1      -5.331  13.140  20.288  0.00  0.00    +0.000 A 
ATOM     10  C   UNL     1      -6.221  13.832  21.133  0.00  0.00    +0.000 A 
ATOM     11  O   UNL     1      -2.754  11.146  17.668  0.00  0.00    +0.000 OA
ATOM     12  C   UNL     1      -1.343  11.257  17.914  0.00  0.00    +0.000 C 
ATOM     13  N   UNL     1      -1.042  11.102  19.314  0.00  0.00    +0.000 N 
ATOM     14  C   UNL     1      -0.155  10.176  19.760  0.00  0.00    +0.000 A 
ATOM     15  N   UNL     1       0.578   9.397  18.989  0.00  0.00    +0.000 NA
ATOM     16  C   UNL     1       1.361   8.537  19.750  0.00  0.00    +0.000 A 
ATOM     17  C   UNL     1       1.214   8.670  21.113  0.00  0.00    +0.000 A 
ATOM     18  S   UNL     1       0.112   9.905  21.460  0.00  0.00    +0.000 S 
ATOM     19  C   UNL     1      -1.640  12.106  20.161  0.00  0.00    +0.000 C 
ENDROOT
BRANCH  16  20
ATOM     20  C   UNL     1       2.304   7.597  19.159  0.00  0.00    +0.000 A 
ATOM     21  C   UNL     1       3.020   7.948  18.012  0.00  0.00    +0.000 A 
ATOM     22  C   UNL     1       3.954   7.068  17.457  0.00  0.00    +0.000 A 
ATOM     23  C   UNL     1       4.182   5.815  18.040  0.00  0.00    +0.000 A 
ATOM     24  C   UNL     1       5.157   4.847  17.438  0.00  0.00    +0.000 C 
ATOM     25  C   UNL     1       3.469   5.461  19.188  0.00  0.00    +0.000 A 
ATOM     26  C   UNL     1       2.539   6.345  19.742  0.00  0.00    +0.000 A 
ENDBRANCH  16  20
BRANCH   1  28
ATOM     27  C   UNL     1      -7.236  14.391  24.140  0.00  0.00    +0.000 C 
ATOM     28  O   UNL     1      -6.717  15.126  23.033  0.00  0.00    +0.000 OA
ENDBRANCH   1  28
TORSDOF 2
ENDMDL
MODEL 7
REMARK VINA RESULT:      -7.4      3.047     10.487
REMARK  Name = 
REMARK  4 active torsions:
REMARK  status: ('A' for Active; 'I' for Inactive)
REMARK    1  A    between atoms: C_1  and  O_2
REMARK    2  A    between atoms: O_2  and  C_3
REMARK    3  A    between atoms: C_18  and  C_19
REMARK    4  A    between atoms: C_22  and  C_23
REMARK                            x       y       z     vdW  Elec       q    Type
REMARK                         _______ _______ _______ _____ _____    ______ ____
ROOT
ATOM      1  C   UNL     1      -4.845  13.318  22.717  0.00  0.00    +0.000 A 
ATOM      2  C   UNL     1      -3.548  13.035  23.108  0.00  0.00    +0.000 A 
ATOM      3  C   UNL     1      -2.639  12.499  22.194  0.00  0.00    +0.000 A 
ATOM      4  C   UNL     1      -3.000  12.237  20.855  0.00  0.00    +0.000 A 
ATOM      5  C   UNL     1      -2.096  11.701  19.897  0.00  0.00    +0.000 A 
ATOM      6  C   UNL     1      -2.503  11.538  18.568  0.00  0.00    +0.000 A 
ATOM      7  C   UNL     1      -3.815  11.812  18.195  0.00  0.00    +0.000 A 
ATOM      8  C   UNL     1      -4.725  12.288  19.138  0.00  0.00    +0.000 A 
ATOM      9  C   UNL     1      -4.329  12.524  20.464  0.00  0.00    +0.000 A 
ATOM     10  C   UNL     1      -5.241  13.042  21.405  0.00  0.00    +0.000 A 
ATOM     11  O   UNL     1      -1.678  11.080  17.572  0.00  0.00    +0.000 OA
ATOM     12  C   UNL     1      -0.285  11.020  17.921  0.00  0.00    +0.000 C 
ATOM     13  N   UNL     1      -0.101  10.490  19.247  0.00  0.00    +0.000 N 
ATOM     14  C   UNL     1       0.696   9.418  19.489  0.00  0.00    +0.000 A 
ATOM     15  N   UNL     1       1.441   8.810  18.587  0.00  0.00    +0.000 NA
ATOM     16  C   UNL     1       2.113   7.729  19.143  0.00  0.00    +0.000 A 
ATOM     17  C   UNL     1       1.871   7.520  20.482  0.00  0.00    +0.000 A 
ATOM     18  S   UNL     1       0.817   8.704  21.073  0.00  0.00    +0.000 S 
ATOM     19  C   UNL     1      -0.704  11.287  20.290  0.00  0.00    +0.000 C 
ENDROOT
BRANCH  16  20
ATOM     20  C   UNL     1       3.044   6.903  18.384  0.00  0.00    +0.000 A 
ATOM     21  C   UNL     1       3.168   5.540  18.670  0.00  0.00    +0.000 A 
ATOM     22  C   UNL     1       4.031   4.731  17.925  0.00  0.00    +0.000 A 
ATOM     23  C   UNL     1       4.792   5.276  16.883  0.00  0.00    +0.000 A 
ATOM     24  C   UNL     1       5.746   4.428  16.097  0.00  0.00    +0.000 C 
ATOM     25  C   UNL     1       4.670   6.638  16.594  0.00  0.00    +0.000 A 
ATOM     26  C   UNL     1       3.803   7.442  17.338  0.00  0.00    +0.000 A 
ENDBRANCH  16  20
BRANCH   1  28
ATOM     27  C   UNL     1      -6.532  12.873  24.301  0.00  0.00    +0.000 C 
ATOM     28  O   UNL     1      -5.806  13.840  23.545  0.00  0.00    +0.000 OA
ENDBRANCH   1  28
TORSDOF 2
ENDMDL
MODEL 8
REMARK VINA RESULT:      -7.4      4.093     11.056
REMARK  Name = 
REMARK  4 active torsions:
REMARK  status: ('A' for Active; 'I' for Inactive)
REMARK    1  A    between atoms: C_1  and  O_2
REMARK    2  A    between atoms: O_2  and  C_3
REMARK    3  A    between atoms: C_18  and  C_19
REMARK    4  A    between atoms: C_22  and  C_23
REMARK                            x       y       z     vdW  Elec       q    Type
REMARK                         _______ _______ _______ _____ _____    ______ ____
ROOT
ATOM      1  C   UNL     1      -6.925  14.493  21.594  0.00  0.00    +0.000 A 
ATOM      2  C   UNL     1      -5.565  14.681  21.768  0.00  0.00    +0.000 A 
ATOM      3  C   UNL     1      -4.651  13.933  21.024  0.00  0.00    +0.000 A 
ATOM      4  C   UNL     1      -5.072  12.976  20.076  0.00  0.00    +0.000 A 
ATOM      5  C   UNL     1      -4.167  12.205  19.296  0.00  0.00    +0.000 A 
ATOM      6  C   UNL     1      -4.657  11.329  18.320  0.00  0.00    +0.000 A 
ATOM      7  C   UNL     1      -6.027  11.140  18.170  0.00  0.00    +0.000 A 
ATOM      8  C   UNL     1      -6.923  11.852  18.966  0.00  0.00    +0.000 A 
ATOM      9  C   UNL     1      -6.464  12.786  19.908  0.00  0.00    +0.000 A 
ATOM     10  C   UNL     1      -7.373  13.532  20.683  0.00  0.00    +0.000 A 
ATOM     11  O   UNL     1      -3.853  10.591  17.490  0.00  0.00    +0.000 OA
ATOM     12  C   UNL     1      -2.466  10.964  17.504  0.00  0.00    +0.000 C 
ATOM     13  N   UNL     1      -2.004  11.211  18.845  0.00  0.00    +0.000 N 
ATOM     14  C   UNL     1      -0.929  10.567  19.367  0.00  0.00    +0.000 A 
ATOM     15  N   UNL     1      -0.152   9.734  18.704  0.00  0.00    +0.000 NA
ATOM     16  C   UNL     1       0.841   9.216  19.527  0.00  0.00    +0.000 A 
ATOM     17  C   UNL     1       0.809   9.666  20.828  0.00  0.00    +0.000 A 
ATOM     18  S   UNL     1      -0.451  10.775  21.028  0.00  0.00    +0.000 S 
ATOM     19  C   UNL     1      -2.681  12.300  19.511  0.00  0.00    +0.000 C 
ENDROOT
BRANCH  16  20
ATOM     20  C   UNL     1       1.870   8.304  19.045  0.00  0.00    +0.000 A 
ATOM     21  C   UNL     1       2.193   7.159  19.779  0.00  0.00    +0.000 A 
ATOM     22  C   UNL     1       3.153   6.258  19.308  0.00  0.00    +0.000 A 
ATOM     23  C   UNL     1       3.813   6.492  18.096  0.00  0.00    +0.000 A 
ATOM     24  C   UNL     1       4.868   5.552  17.594  0.00  0.00    +0.000 C 
ATOM     25  C   UNL     1       3.491   7.636  17.359  0.00  0.00    +0.000 A 
ATOM     26  C   UNL     1       2.529   8.531  17.830  0.00  0.00    +0.000 A 
ENDBRANCH  16  20
BRANCH   1  28
ATOM     27  C   UNL     1      -7.412  16.256  23.080  0.00  0.00    +0.000 C 
ATOM     28  O   UNL     1      -7.894  15.178  22.281  0.00  0.00    +0.000 OA
ENDBRANCH   1  28
TORSDOF 2
ENDMDL
MODEL 9
REMARK VINA RESULT:      -7.3      3.379     10.708
REMARK  Name = 
REMARK  4 active torsions:
REMARK  status: ('A' for Active; 'I' for Inactive)
REMARK    1  A    between atoms: C_1  and  O_2
REMARK    2  A    between atoms: O_2  and  C_3
REMARK    3  A    between atoms: C_18  and  C_19
REMARK    4  A    between atoms: C_22  and  C_23
REMARK                            x       y       z     vdW  Elec       q    Type
REMARK                         _______ _______ _______ _____ _____    ______ ____
ROOT
ATOM      1  C   UNL     1      -5.379  13.998  22.341  0.00  0.00    +0.000 A 
ATOM      2  C   UNL     1      -4.045  13.843  22.673  0.00  0.00    +0.000 A 
ATOM      3  C   UNL     1      -3.172  13.198  21.796  0.00  0.00    +0.000 A 
ATOM      4  C   UNL     1      -3.607  12.693  20.552  0.00  0.00    +0.000 A 
ATOM      5  C   UNL     1      -2.742  12.040  19.633  0.00  0.00    +0.000 A 
ATOM      6  C   UNL     1      -3.228  11.633  18.384  0.00  0.00    +0.000 A 
ATOM      7  C   UNL     1      -4.575  11.781  18.073  0.00  0.00    +0.000 A 
ATOM      8  C   UNL     1      -5.445  12.372  18.988  0.00  0.00    +0.000 A 
ATOM      9  C   UNL     1      -4.974  12.851  20.221  0.00  0.00    +0.000 A 
ATOM     10  C   UNL     1      -5.847  13.483  21.128  0.00  0.00    +0.000 A 
ATOM     11  O   UNL     1      -2.448  11.046  17.421  0.00  0.00    +0.000 OA
ATOM     12  C   UNL     1      -1.034  11.107  17.668  0.00  0.00    +0.000 C 
ATOM     13  N   UNL     1      -0.731  10.823  19.046  0.00  0.00    +0.000 N 
ATOM     14  C   UNL     1       0.140   9.844  19.404  0.00  0.00    +0.000 A 
ATOM     15  N   UNL     1       0.854   9.123  18.563  0.00  0.00    +0.000 NA
ATOM     16  C   UNL     1       1.622   8.183  19.241  0.00  0.00    +0.000 A 
ATOM     17  C   UNL     1       1.483   8.199  20.610  0.00  0.00    +0.000 A 
ATOM     18  S   UNL     1       0.407   9.419  21.072  0.00  0.00    +0.000 S 
ATOM     19  C   UNL     1      -1.305  11.760  19.983  0.00  0.00    +0.000 C 
ENDROOT
BRANCH  16  20
ATOM     20  C   UNL     1       2.544   7.281  18.564  0.00  0.00    +0.000 A 
ATOM     21  C   UNL     1       2.422   5.898  18.729  0.00  0.00    +0.000 A 
ATOM     22  C   UNL     1       3.277   5.021  18.056  0.00  0.00    +0.000 A 
ATOM     23  C   UNL     1       4.277   5.515  17.209  0.00  0.00    +0.000 A 
ATOM     24  C   UNL     1       5.224   4.589  16.506  0.00  0.00    +0.000 C 
ATOM     25  C   UNL     1       4.401   6.897  17.040  0.00  0.00    +0.000 A 
ATOM     26  C   UNL     1       3.541   7.770  17.711  0.00  0.00    +0.000 A 
ENDBRANCH  16  20
BRANCH   1  28
ATOM     27  C   UNL     1      -6.450  16.015  22.920  0.00  0.00    +0.000 C 
ATOM     28  O   UNL     1      -6.309  14.613  23.139  0.00  0.00    +0.000 OA
ENDBRANCH   1  28
TORSDOF 2
ENDMDL
