MODEL 1
REMARK VINA RESULT:      -8.1      0.000      0.000
REMARK  Name = 
REMARK  10 active torsions:
REMARK  status: ('A' for Active; 'I' for Inactive)
REMARK    1  A    between atoms: C_1  and  S_2
REMARK    2  A    between atoms: S_2  and  C_3
REMARK    3  A    between atoms: C_3  and  C_4
REMARK    4  A    between atoms: C_6  and  N_7
REMARK    5  A    between atoms: N_12  and  C_13
REMARK    6  A    between atoms: C_13  and  C_14
REMARK    7  A    between atoms: C_13  and  C_15
REMARK    8  A    between atoms: C_15  and  C_16
REMARK    9  A    between atoms: C_26  and  O_27
REMARK   10  A    between atoms: C_28  and  O_29
REMARK                            x       y       z     vdW  Elec       q    Type
REMARK                         _______ _______ _______ _____ _____    ______ ____
ROOT
ATOM      1  N   UNL     1       2.483   5.397  19.792  0.00  0.00    +0.000 N 
ATOM      2  C   UNL     1       1.817   5.691  20.956  0.00  0.00    +0.000 A 
ATOM      3  N   UNL     1       1.402   6.941  20.988  0.00  0.00    +0.000 NA
ATOM      4  C   UNL     1       1.855   7.491  19.803  0.00  0.00    +0.000 A 
ATOM      5  C   UNL     1       1.688   8.767  19.224  0.00  0.00    +0.000 A 
ATOM      6  N   UNL     1       0.937   9.770  19.843  0.00  0.00    +0.000 N 
ATOM      7  N   UNL     1       2.279   8.993  18.022  0.00  0.00    +0.000 NA
ATOM      8  C   UNL     1       2.973   7.999  17.439  0.00  0.00    +0.000 A 
ATOM      9  N   UNL     1       3.138   6.735  17.867  0.00  0.00    +0.000 NA
ATOM     10  C   UNL     1       2.560   6.553  19.066  0.00  0.00    +0.000 A 
ATOM     11  H   UNL     1       0.389   9.390  20.610  0.00  0.00    +0.000 HD
ENDROOT
BRANCH   1  14
ATOM     12  C   UNL     1       4.330   3.279  17.698  0.00  0.00    +0.000 C 
ATOM     13  O   UNL     1       4.241   4.071  18.910  0.00  0.00    +0.000 OA
ATOM     14  C   UNL     1       2.877   4.066  19.375  0.00  0.00    +0.000 C 
ATOM     15  C   UNL     1       2.012   3.460  18.270  0.00  0.00    +0.000 C 
ATOM     16  C   UNL     1       3.002   2.522  17.602  0.00  0.00    +0.000 C 
BRANCH  15  17
ATOM     17  O   UNL     1       0.880   2.754  18.780  0.00  0.00    +0.000 OA
ATOM     18  H   UNL     1       1.151   1.813  18.842  0.00  0.00    +0.000 HD
ENDBRANCH  15  17
BRANCH  16  19
ATOM     19  O   UNL     1       3.029   1.301  18.369  0.00  0.00    +0.000 OA
ATOM     20  H   UNL     1       3.051   0.543  17.755  0.00  0.00    +0.000 HD
ENDBRANCH  16  19
BRANCH  12  21
ATOM     21  C   UNL     1       4.592   4.170  16.474  0.00  0.00    +0.000 C 
BRANCH  21  23
ATOM     22  C   UNL     1       6.376   4.145  14.358  0.00  0.00    +0.000 C 
ATOM     23  S   UNL     1       6.388   4.316  16.158  0.00  0.00    +0.000 S 
ENDBRANCH  21  23
ENDBRANCH  12  21
ENDBRANCH   1  14
BRANCH   6  24
ATOM     24  C   UNL     1       0.253  10.727  18.964  0.00  0.00    +0.000 C 
ATOM     25  C   UNL     1       0.915  12.095  19.165  0.00  0.00    +0.000 C 
BRANCH  24  26
ATOM     26  C   UNL     1      -1.259  10.770  19.281  0.00  0.00    +0.000 C 
BRANCH  26  27
ATOM     27  C   UNL     1      -2.152  10.750  18.059  0.00  0.00    +0.000 A 
ATOM     28  C   UNL     1      -3.304  11.549  18.000  0.00  0.00    +0.000 A 
ATOM     29  C   UNL     1      -4.145  11.500  16.888  0.00  0.00    +0.000 A 
ATOM     30  C   UNL     1      -3.840  10.664  15.816  0.00  0.00    +0.000 A 
ATOM     31  C   UNL     1      -2.690   9.877  15.856  0.00  0.00    +0.000 A 
ATOM     32  C   UNL     1      -1.850   9.921  16.969  0.00  0.00    +0.000 A 
ENDBRANCH  26  27
ENDBRANCH  24  26
ENDBRANCH   6  24
TORSDOF 8
ENDMDL
MODEL 2
REMARK VINA RESULT:      -8.0      0.546      1.071
REMARK  Name = 
REMARK  10 active torsions:
REMARK  status: ('A' for Active; 'I' for Inactive)
REMARK    1  A    between atoms: C_1  and  S_2
REMARK    2  A    between atoms: S_2  and  C_3
REMARK    3  A    between atoms: C_3  and  C_4
REMARK    4  A    between atoms: C_6  and  N_7
REMARK    5  A    between atoms: N_12  and  C_13
REMARK    6  A    between atoms: C_13  and  C_14
REMARK    7  A    between atoms: C_13  and  C_15
REMARK    8  A    between atoms: C_15  and  C_16
REMARK    9  A    between atoms: C_26  and  O_27
REMARK   10  A    between atoms: C_28  and  O_29
REMARK                            x       y       z     vdW  Elec       q    Type
REMARK                         _______ _______ _______ _____ _____    ______ ____
ROOT
ATOM      1  N   UNL     1       2.472   5.486  19.773  0.00  0.00    +0.000 N 
ATOM      2  C   UNL     1       1.817   5.742  20.953  0.00  0.00    +0.000 A 
ATOM      3  N   UNL     1       1.391   6.987  21.023  0.00  0.00    +0.000 NA
ATOM      4  C   UNL     1       1.824   7.573  19.849  0.00  0.00    +0.000 A 
ATOM      5  C   UNL     1       1.638   8.863  19.306  0.00  0.00    +0.000 A 
ATOM      6  N   UNL     1       0.885   9.841  19.961  0.00  0.00    +0.000 N 
ATOM      7  N   UNL     1       2.213   9.127  18.104  0.00  0.00    +0.000 NA
ATOM      8  C   UNL     1       2.909   8.155  17.486  0.00  0.00    +0.000 A 
ATOM      9  N   UNL     1       3.091   6.882  17.878  0.00  0.00    +0.000 NA
ATOM     10  C   UNL     1       2.529   6.662  19.078  0.00  0.00    +0.000 A 
ATOM     11  H   UNL     1       0.350   9.435  20.724  0.00  0.00    +0.000 HD
ENDROOT
BRANCH   1  14
ATOM     12  C   UNL     1       4.342   3.444  17.626  0.00  0.00    +0.000 C 
ATOM     13  O   UNL     1       4.241   4.195  18.863  0.00  0.00    +0.000 OA
ATOM     14  C   UNL     1       2.873   4.171  19.316  0.00  0.00    +0.000 C 
ATOM     15  C   UNL     1       2.019   3.599  18.185  0.00  0.00    +0.000 C 
ATOM     16  C   UNL     1       3.017   2.687  17.494  0.00  0.00    +0.000 C 
BRANCH  15  17
ATOM     17  O   UNL     1       0.885   2.874  18.662  0.00  0.00    +0.000 OA
ATOM     18  H   UNL     1       0.487   2.443  17.875  0.00  0.00    +0.000 HD
ENDBRANCH  15  17
BRANCH  16  19
ATOM     19  O   UNL     1       3.041   1.442  18.220  0.00  0.00    +0.000 OA
ATOM     20  H   UNL     1       2.155   1.276  18.594  0.00  0.00    +0.000 HD
ENDBRANCH  16  19
BRANCH  12  21
ATOM     21  C   UNL     1       4.611   4.376  16.434  0.00  0.00    +0.000 C 
BRANCH  21  23
ATOM     22  C   UNL     1       7.257   4.581  17.222  0.00  0.00    +0.000 C 
ATOM     23  S   UNL     1       6.293   4.100  15.770  0.00  0.00    +0.000 S 
ENDBRANCH  21  23
ENDBRANCH  12  21
ENDBRANCH   1  14
BRANCH   6  24
ATOM     24  C   UNL     1       0.183  10.815  19.116  0.00  0.00    +0.000 C 
ATOM     25  C   UNL     1       0.791  12.194  19.394  0.00  0.00    +0.000 C 
BRANCH  24  26
ATOM     26  C   UNL     1      -1.336  10.790  19.408  0.00  0.00    +0.000 C 
BRANCH  26  27
ATOM     27  C   UNL     1      -2.206  10.732  18.171  0.00  0.00    +0.000 A 
ATOM     28  C   UNL     1      -1.841   9.938  17.074  0.00  0.00    +0.000 A 
ATOM     29  C   UNL     1      -2.626   9.916  15.921  0.00  0.00    +0.000 A 
ATOM     30  C   UNL     1      -3.792  10.676  15.853  0.00  0.00    +0.000 A 
ATOM     31  C   UNL     1      -4.174  11.458  16.943  0.00  0.00    +0.000 A 
ATOM     32  C   UNL     1      -3.388  11.484  18.095  0.00  0.00    +0.000 A 
ENDBRANCH  26  27
ENDBRANCH  24  26
ENDBRANCH   6  24
TORSDOF 8
ENDMDL
MODEL 3
REMARK VINA RESULT:      -7.9      1.209      1.548
REMARK  Name = 
REMARK  10 active torsions:
REMARK  status: ('A' for Active; 'I' for Inactive)
REMARK    1  A    between atoms: C_1  and  S_2
REMARK    2  A    between atoms: S_2  and  C_3
REMARK    3  A    between atoms: C_3  and  C_4
REMARK    4  A    between atoms: C_6  and  N_7
REMARK    5  A    between atoms: N_12  and  C_13
REMARK    6  A    between atoms: C_13  and  C_14
REMARK    7  A    between atoms: C_13  and  C_15
REMARK    8  A    between atoms: C_15  and  C_16
REMARK    9  A    between atoms: C_26  and  O_27
REMARK   10  A    between atoms: C_28  and  O_29
REMARK                            x       y       z     vdW  Elec       q    Type
REMARK                         _______ _______ _______ _____ _____    ______ ____
ROOT
ATOM      1  N   UNL     1       2.685   5.676  19.667  0.00  0.00    +0.000 N 
ATOM      2  C   UNL     1       1.919   5.819  20.797  0.00  0.00    +0.000 A 
ATOM      3  N   UNL     1       1.357   7.009  20.869  0.00  0.00    +0.000 NA
ATOM      4  C   UNL     1       1.814   7.680  19.750  0.00  0.00    +0.000 A 
ATOM      5  C   UNL     1       1.533   8.962  19.232  0.00  0.00    +0.000 A 
ATOM      6  N   UNL     1       0.632   9.832  19.852  0.00  0.00    +0.000 N 
ATOM      7  N   UNL     1       2.166   9.329  18.087  0.00  0.00    +0.000 NA
ATOM      8  C   UNL     1       3.007   8.459  17.499  0.00  0.00    +0.000 A 
ATOM      9  N   UNL     1       3.293   7.198  17.868  0.00  0.00    +0.000 NA
ATOM     10  C   UNL     1       2.669   6.876  19.012  0.00  0.00    +0.000 A 
ATOM     11  H   UNL     1       0.087   9.345  20.558  0.00  0.00    +0.000 HD
ENDROOT
BRANCH   1  14
ATOM     12  C   UNL     1       5.315   3.888  18.198  0.00  0.00    +0.000 C 
ATOM     13  O   UNL     1       4.688   4.438  19.384  0.00  0.00    +0.000 OA
ATOM     14  C   UNL     1       3.257   4.428  19.205  0.00  0.00    +0.000 C 
ATOM     15  C   UNL     1       2.974   4.097  17.741  0.00  0.00    +0.000 C 
ATOM     16  C   UNL     1       4.182   3.245  17.392  0.00  0.00    +0.000 C 
BRANCH  15  17
ATOM     17  O   UNL     1       1.754   3.377  17.563  0.00  0.00    +0.000 OA
ATOM     18  H   UNL     1       1.986   2.568  17.060  0.00  0.00    +0.000 HD
ENDBRANCH  15  17
BRANCH  16  19
ATOM     19  O   UNL     1       3.908   1.901  17.838  0.00  0.00    +0.000 OA
ATOM     20  H   UNL     1       2.961   1.711  17.705  0.00  0.00    +0.000 HD
ENDBRANCH  16  19
BRANCH  12  21
ATOM     21  C   UNL     1       6.056   4.978  17.409  0.00  0.00    +0.000 C 
BRANCH  21  23
ATOM     22  C   UNL     1       7.439   7.374  17.493  0.00  0.00    +0.000 C 
ATOM     23  S   UNL     1       7.209   5.889  18.498  0.00  0.00    +0.000 S 
ENDBRANCH  21  23
ENDBRANCH  12  21
ENDBRANCH   1  14
BRANCH   6  24
ATOM     24  C   UNL     1      -0.104  10.758  18.982  0.00  0.00    +0.000 C 
ATOM     25  C   UNL     1       0.349  12.180  19.330  0.00  0.00    +0.000 C 
BRANCH  24  26
ATOM     26  C   UNL     1      -1.629  10.581  19.169  0.00  0.00    +0.000 C 
BRANCH  26  27
ATOM     27  C   UNL     1      -2.421  10.607  17.880  0.00  0.00    +0.000 A 
ATOM     28  C   UNL     1      -2.046   9.805  16.793  0.00  0.00    +0.000 A 
ATOM     29  C   UNL     1      -2.756   9.859  15.593  0.00  0.00    +0.000 A 
ATOM     30  C   UNL     1      -3.857  10.703  15.469  0.00  0.00    +0.000 A 
ATOM     31  C   UNL     1      -4.249  11.495  16.548  0.00  0.00    +0.000 A 
ATOM     32  C   UNL     1      -3.538  11.445  17.747  0.00  0.00    +0.000 A 
ENDBRANCH  26  27
ENDBRANCH  24  26
ENDBRANCH   6  24
TORSDOF 8
ENDMDL
MODEL 4
REMARK VINA RESULT:      -7.8      1.041      1.066
REMARK  Name = 
REMARK  10 active torsions:
REMARK  status: ('A' for Active; 'I' for Inactive)
REMARK    1  A    between atoms: C_1  and  S_2
REMARK    2  A    between atoms: S_2  and  C_3
REMARK    3  A    between atoms: C_3  and  C_4
REMARK    4  A    between atoms: C_6  and  N_7
REMARK    5  A    between atoms: N_12  and  C_13
REMARK    6  A    between atoms: C_13  and  C_14
REMARK    7  A    between atoms: C_13  and  C_15
REMARK    8  A    between atoms: C_15  and  C_16
REMARK    9  A    between atoms: C_26  and  O_27
REMARK   10  A    between atoms: C_28  and  O_29
REMARK                            x       y       z     vdW  Elec       q    Type
REMARK                         _______ _______ _______ _____ _____    ______ ____
ROOT
ATOM      1  N   UNL     1       2.466   6.029  19.599  0.00  0.00    +0.000 N 
ATOM      2  C   UNL     1       1.836   6.193  20.808  0.00  0.00    +0.000 A 
ATOM      3  N   UNL     1       1.318   7.398  20.938  0.00  0.00    +0.000 NA
ATOM      4  C   UNL     1       1.664   8.055  19.773  0.00  0.00    +0.000 A 
ATOM      5  C   UNL     1       1.361   9.344  19.285  0.00  0.00    +0.000 A 
ATOM      6  N   UNL     1       0.559  10.239  19.999  0.00  0.00    +0.000 N 
ATOM      7  N   UNL     1       1.871   9.694  18.075  0.00  0.00    +0.000 NA
ATOM      8  C   UNL     1       2.617   8.800  17.399  0.00  0.00    +0.000 A 
ATOM      9  N   UNL     1       2.909   7.532  17.738  0.00  0.00    +0.000 NA
ATOM     10  C   UNL     1       2.408   7.228  18.946  0.00  0.00    +0.000 A 
ATOM     11  H   UNL     1       0.084   9.767  20.764  0.00  0.00    +0.000 HD
ENDROOT
BRANCH   1  14
ATOM     12  C   UNL     1       4.714   4.202  17.628  0.00  0.00    +0.000 C 
ATOM     13  O   UNL     1       4.379   4.813  18.900  0.00  0.00    +0.000 OA
ATOM     14  C   UNL     1       2.949   4.765  19.081  0.00  0.00    +0.000 C 
ATOM     15  C   UNL     1       2.327   4.338  17.752  0.00  0.00    +0.000 C 
ATOM     16  C   UNL     1       3.440   3.489  17.164  0.00  0.00    +0.000 C 
BRANCH  15  17
ATOM     17  O   UNL     1       1.125   3.587  17.922  0.00  0.00    +0.000 OA
ATOM     18  H   UNL     1       0.709   3.920  18.746  0.00  0.00    +0.000 HD
ENDBRANCH  15  17
BRANCH  16  19
ATOM     19  O   UNL     1       3.329   2.171  17.737  0.00  0.00    +0.000 OA
ATOM     20  H   UNL     1       3.122   1.534  17.027  0.00  0.00    +0.000 HD
ENDBRANCH  16  19
BRANCH  12  21
ATOM     21  C   UNL     1       5.202   5.255  16.621  0.00  0.00    +0.000 C 
BRANCH  21  23
ATOM     22  C   UNL     1       7.696   4.543  17.587  0.00  0.00    +0.000 C 
ATOM     23  S   UNL     1       6.750   6.035  17.205  0.00  0.00    +0.000 S 
ENDBRANCH  21  23
ENDBRANCH  12  21
ENDBRANCH   1  14
BRANCH   6  24
ATOM     24  C   UNL     1      -0.245  11.183  19.215  0.00  0.00    +0.000 C 
ATOM     25  C   UNL     1       0.025  12.589  19.763  0.00  0.00    +0.000 C 
BRANCH  24  26
ATOM     26  C   UNL     1      -1.745  10.816  19.295  0.00  0.00    +0.000 C 
BRANCH  26  27
ATOM     27  C   UNL     1      -2.440  10.742  17.952  0.00  0.00    +0.000 A 
ATOM     28  C   UNL     1      -3.584  11.511  17.694  0.00  0.00    +0.000 A 
ATOM     29  C   UNL     1      -4.244  11.412  16.469  0.00  0.00    +0.000 A 
ATOM     30  C   UNL     1      -3.763  10.555  15.482  0.00  0.00    +0.000 A 
ATOM     31  C   UNL     1      -2.617   9.797  15.720  0.00  0.00    +0.000 A 
ATOM     32  C   UNL     1      -1.958   9.891  16.946  0.00  0.00    +0.000 A 
ENDBRANCH  26  27
ENDBRANCH  24  26
ENDBRANCH   6  24
TORSDOF 8
ENDMDL
MODEL 5
REMARK VINA RESULT:      -7.3      1.924      2.861
REMARK  Name = 
REMARK  10 active torsions:
REMARK  status: ('A' for Active; 'I' for Inactive)
REMARK    1  A    between atoms: C_1  and  S_2
REMARK    2  A    between atoms: S_2  and  C_3
REMARK    3  A    between atoms: C_3  and  C_4
REMARK    4  A    between atoms: C_6  and  N_7
REMARK    5  A    between atoms: N_12  and  C_13
REMARK    6  A    between atoms: C_13  and  C_14
REMARK    7  A    between atoms: C_13  and  C_15
REMARK    8  A    between atoms: C_15  and  C_16
REMARK    9  A    between atoms: C_26  and  O_27
REMARK   10  A    between atoms: C_28  and  O_29
REMARK                            x       y       z     vdW  Elec       q    Type
REMARK                         _______ _______ _______ _____ _____    ______ ____
ROOT
ATOM      1  N   UNL     1       2.826   6.498  18.998  0.00  0.00    +0.000 N 
ATOM      2  C   UNL     1       2.223   6.259  20.208  0.00  0.00    +0.000 A 
ATOM      3  N   UNL     1       1.495   7.282  20.610  0.00  0.00    +0.000 NA
ATOM      4  C   UNL     1       1.668   8.241  19.630  0.00  0.00    +0.000 A 
ATOM      5  C   UNL     1       1.112   9.526  19.450  0.00  0.00    +0.000 A 
ATOM      6  N   UNL     1       0.185  10.065  20.347  0.00  0.00    +0.000 N 
ATOM      7  N   UNL     1       1.502  10.232  18.357  0.00  0.00    +0.000 NA
ATOM      8  C   UNL     1       2.375   9.674  17.498  0.00  0.00    +0.000 A 
ATOM      9  N   UNL     1       2.911   8.442  17.537  0.00  0.00    +0.000 NA
ATOM     10  C   UNL     1       2.522   7.781  18.639  0.00  0.00    +0.000 A 
ATOM     11  H   UNL     1      -0.164   9.350  20.979  0.00  0.00    +0.000 HD
ENDROOT
BRANCH   1  14
ATOM     12  C   UNL     1       3.511   3.147  18.236  0.00  0.00    +0.000 C 
ATOM     13  O   UNL     1       2.692   4.329  18.047  0.00  0.00    +0.000 OA
ATOM     14  C   UNL     1       3.517   5.500  18.205  0.00  0.00    +0.000 C 
ATOM     15  C   UNL     1       4.861   5.049  18.774  0.00  0.00    +0.000 C 
ATOM     16  C   UNL     1       4.960   3.641  18.215  0.00  0.00    +0.000 C 
BRANCH  15  17
ATOM     17  O   UNL     1       5.947   5.867  18.338  0.00  0.00    +0.000 OA
ATOM     18  H   UNL     1       5.577   6.472  17.659  0.00  0.00    +0.000 HD
ENDBRANCH  15  17
BRANCH  16  19
ATOM     19  O   UNL     1       5.467   3.743  16.869  0.00  0.00    +0.000 OA
ATOM     20  H   UNL     1       5.772   2.863  16.578  0.00  0.00    +0.000 HD
ENDBRANCH  16  19
BRANCH  12  21
ATOM     21  C   UNL     1       3.150   2.429  19.547  0.00  0.00    +0.000 C 
BRANCH  21  23
ATOM     22  C   UNL     1       1.443   2.793  21.695  0.00  0.00    +0.000 C 
ATOM     23  S   UNL     1       1.363   2.594  19.900  0.00  0.00    +0.000 S 
ENDBRANCH  21  23
ENDBRANCH  12  21
ENDBRANCH   1  14
BRANCH   6  24
ATOM     24  C   UNL     1      -0.810  10.993  19.796  0.00  0.00    +0.000 C 
ATOM     25  C   UNL     1      -1.018  12.112  20.823  0.00  0.00    +0.000 C 
BRANCH  24  26
ATOM     26  C   UNL     1      -2.130  10.251  19.484  0.00  0.00    +0.000 C 
BRANCH  26  27
ATOM     27  C   UNL     1      -2.646  10.463  18.077  0.00  0.00    +0.000 A 
ATOM     28  C   UNL     1      -3.782  11.250  17.842  0.00  0.00    +0.000 A 
ATOM     29  C   UNL     1      -4.277  11.413  16.547  0.00  0.00    +0.000 A 
ATOM     30  C   UNL     1      -3.636  10.804  15.471  0.00  0.00    +0.000 A 
ATOM     31  C   UNL     1      -2.496  10.031  15.690  0.00  0.00    +0.000 A 
ATOM     32  C   UNL     1      -2.002   9.864  16.984  0.00  0.00    +0.000 A 
ENDBRANCH  26  27
ENDBRANCH  24  26
ENDBRANCH   6  24
TORSDOF 8
ENDMDL
MODEL 6
REMARK VINA RESULT:      -7.2      1.155      1.547
REMARK  Name = 
REMARK  10 active torsions:
REMARK  status: ('A' for Active; 'I' for Inactive)
REMARK    1  A    between atoms: C_1  and  S_2
REMARK    2  A    between atoms: S_2  and  C_3
REMARK    3  A    between atoms: C_3  and  C_4
REMARK    4  A    between atoms: C_6  and  N_7
REMARK    5  A    between atoms: N_12  and  C_13
REMARK    6  A    between atoms: C_13  and  C_14
REMARK    7  A    between atoms: C_13  and  C_15
REMARK    8  A    between atoms: C_15  and  C_16
REMARK    9  A    between atoms: C_26  and  O_27
REMARK   10  A    between atoms: C_28  and  O_29
REMARK                            x       y       z     vdW  Elec       q    Type
REMARK                         _______ _______ _______ _____ _____    ______ ____
ROOT
ATOM      1  N   UNL     1       2.046   6.654  20.415  0.00  0.00    +0.000 N 
ATOM      2  C   UNL     1       1.408   7.121  21.538  0.00  0.00    +0.000 A 
ATOM      3  N   UNL     1       0.945   8.343  21.373  0.00  0.00    +0.000 NA
ATOM      4  C   UNL     1       1.336   8.697  20.096  0.00  0.00    +0.000 A 
ATOM      5  C   UNL     1       1.099   9.849  19.315  0.00  0.00    +0.000 A 
ATOM      6  N   UNL     1       0.330  10.917  19.784  0.00  0.00    +0.000 N 
ATOM      7  N   UNL     1       1.640   9.885  18.070  0.00  0.00    +0.000 NA
ATOM      8  C   UNL     1       2.353   8.829  17.637  0.00  0.00    +0.000 A 
ATOM      9  N   UNL     1       2.582   7.663  18.267  0.00  0.00    +0.000 NA
ATOM     10  C   UNL     1       2.052   7.670  19.501  0.00  0.00    +0.000 A 
ATOM     11  H   UNL     1      -0.176  10.656  20.626  0.00  0.00    +0.000 HD
ENDROOT
BRANCH   1  14
ATOM     12  C   UNL     1       3.877   4.266  18.621  0.00  0.00    +0.000 C 
ATOM     13  O   UNL     1       3.815   5.256  19.679  0.00  0.00    +0.000 OA
ATOM     14  C   UNL     1       2.477   5.285  20.216  0.00  0.00    +0.000 C 
ATOM     15  C   UNL     1       1.586   4.463  19.286  0.00  0.00    +0.000 C 
ATOM     16  C   UNL     1       2.582   3.457  18.736  0.00  0.00    +0.000 C 
BRANCH  15  17
ATOM     17  O   UNL     1       0.514   3.819  19.977  0.00  0.00    +0.000 OA
ATOM     18  H   UNL     1       0.285   4.405  20.730  0.00  0.00    +0.000 HD
ENDBRANCH  15  17
BRANCH  16  19
ATOM     19  O   UNL     1       2.703   2.393  19.702  0.00  0.00    +0.000 OA
ATOM     20  H   UNL     1       3.005   2.769  20.550  0.00  0.00    +0.000 HD
ENDBRANCH  16  19
BRANCH  12  21
ATOM     21  C   UNL     1       4.036   4.935  17.247  0.00  0.00    +0.000 C 
BRANCH  21  23
ATOM     22  C   UNL     1       5.665   5.335  15.045  0.00  0.00    +0.000 C 
ATOM     23  S   UNL     1       5.256   4.030  16.228  0.00  0.00    +0.000 S 
ENDBRANCH  21  23
ENDBRANCH  12  21
ENDBRANCH   1  14
BRANCH   6  24
ATOM     24  C   UNL     1      -0.420  11.686  18.783  0.00  0.00    +0.000 C 
ATOM     25  C   UNL     1      -0.081  13.167  18.987  0.00  0.00    +0.000 C 
BRANCH  24  26
ATOM     26  C   UNL     1      -1.937  11.422  18.921  0.00  0.00    +0.000 C 
BRANCH  26  27
ATOM     27  C   UNL     1      -2.617  11.009  17.633  0.00  0.00    +0.000 A 
ATOM     28  C   UNL     1      -2.023  10.066  16.781  0.00  0.00    +0.000 A 
ATOM     29  C   UNL     1      -2.634   9.715  15.576  0.00  0.00    +0.000 A 
ATOM     30  C   UNL     1      -3.850  10.290  15.215  0.00  0.00    +0.000 A 
ATOM     31  C   UNL     1      -4.458  11.217  16.061  0.00  0.00    +0.000 A 
ATOM     32  C   UNL     1      -3.847  11.572  17.264  0.00  0.00    +0.000 A 
ENDBRANCH  26  27
ENDBRANCH  24  26
ENDBRANCH   6  24
TORSDOF 8
ENDMDL
MODEL 7
REMARK VINA RESULT:      -7.2      2.020      2.998
REMARK  Name = 
REMARK  10 active torsions:
REMARK  status: ('A' for Active; 'I' for Inactive)
REMARK    1  A    between atoms: C_1  and  S_2
REMARK    2  A    between atoms: S_2  and  C_3
REMARK    3  A    between atoms: C_3  and  C_4
REMARK    4  A    between atoms: C_6  and  N_7
REMARK    5  A    between atoms: N_12  and  C_13
REMARK    6  A    between atoms: C_13  and  C_14
REMARK    7  A    between atoms: C_13  and  C_15
REMARK    8  A    between atoms: C_15  and  C_16
REMARK    9  A    between atoms: C_26  and  O_27
REMARK   10  A    between atoms: C_28  and  O_29
REMARK                            x       y       z     vdW  Elec       q    Type
REMARK                         _______ _______ _______ _____ _____    ______ ____
ROOT
ATOM      1  N   UNL     1       2.405   7.043  19.232  0.00  0.00    +0.000 N 
ATOM      2  C   UNL     1       1.819   6.888  20.464  0.00  0.00    +0.000 A 
ATOM      3  N   UNL     1       1.176   7.972  20.847  0.00  0.00    +0.000 NA
ATOM      4  C   UNL     1       1.390   8.884  19.831  0.00  0.00    +0.000 A 
ATOM      5  C   UNL     1       0.922  10.199  19.621  0.00  0.00    +0.000 A 
ATOM      6  N   UNL     1       0.059  10.832  20.520  0.00  0.00    +0.000 N 
ATOM      7  N   UNL     1       1.331  10.839  18.495  0.00  0.00    +0.000 NA
ATOM      8  C   UNL     1       2.140  10.193  17.634  0.00  0.00    +0.000 A 
ATOM      9  N   UNL     1       2.588   8.927  17.703  0.00  0.00    +0.000 NA
ATOM     10  C   UNL     1       2.183   8.333  18.836  0.00  0.00    +0.000 A 
ATOM     11  H   UNL     1      -0.323  10.164  21.185  0.00  0.00    +0.000 HD
ENDROOT
BRANCH   1  14
ATOM     12  C   UNL     1       2.240   3.839  17.824  0.00  0.00    +0.000 C 
ATOM     13  O   UNL     1       1.987   5.263  17.721  0.00  0.00    +0.000 OA
ATOM     14  C   UNL     1       3.003   5.974  18.457  0.00  0.00    +0.000 C 
ATOM     15  C   UNL     1       3.784   4.949  19.278  0.00  0.00    +0.000 C 
ATOM     16  C   UNL     1       3.649   3.711  18.409  0.00  0.00    +0.000 C 
BRANCH  15  17
ATOM     17  O   UNL     1       5.152   5.316  19.462  0.00  0.00    +0.000 OA
ATOM     18  H   UNL     1       5.410   5.814  18.657  0.00  0.00    +0.000 HD
ENDBRANCH  15  17
BRANCH  16  19
ATOM     19  O   UNL     1       4.660   3.787  17.384  0.00  0.00    +0.000 OA
ATOM     20  H   UNL     1       4.256   3.560  16.525  0.00  0.00    +0.000 HD
ENDBRANCH  16  19
BRANCH  12  21
ATOM     21  C   UNL     1       1.175   3.151  18.692  0.00  0.00    +0.000 C 
BRANCH  21  23
ATOM     22  C   UNL     1       1.496   2.863  21.426  0.00  0.00    +0.000 C 
ATOM     23  S   UNL     1       1.959   2.019  19.896  0.00  0.00    +0.000 S 
ENDBRANCH  21  23
ENDBRANCH  12  21
ENDBRANCH   1  14
BRANCH   6  24
ATOM     24  C   UNL     1      -0.882  11.810  19.962  0.00  0.00    +0.000 C 
ATOM     25  C   UNL     1      -0.877  13.036  20.883  0.00  0.00    +0.000 C 
BRANCH  24  26
ATOM     26  C   UNL     1      -2.295  11.194  19.838  0.00  0.00    +0.000 C 
BRANCH  26  27
ATOM     27  C   UNL     1      -2.774  11.017  18.413  0.00  0.00    +0.000 A 
ATOM     28  C   UNL     1      -2.051  10.228  17.507  0.00  0.00    +0.000 A 
ATOM     29  C   UNL     1      -2.475  10.098  16.184  0.00  0.00    +0.000 A 
ATOM     30  C   UNL     1      -3.632  10.742  15.754  0.00  0.00    +0.000 A 
ATOM     31  C   UNL     1      -4.368  11.517  16.649  0.00  0.00    +0.000 A 
ATOM     32  C   UNL     1      -3.944  11.652  17.971  0.00  0.00    +0.000 A 
ENDBRANCH  26  27
ENDBRANCH  24  26
ENDBRANCH   6  24
TORSDOF 8
ENDMDL
MODEL 8
REMARK VINA RESULT:      -7.1      2.327      4.167
REMARK  Name = 
REMARK  10 active torsions:
REMARK  status: ('A' for Active; 'I' for Inactive)
REMARK    1  A    between atoms: C_1  and  S_2
REMARK    2  A    between atoms: S_2  and  C_3
REMARK    3  A    between atoms: C_3  and  C_4
REMARK    4  A    between atoms: C_6  and  N_7
REMARK    5  A    between atoms: N_12  and  C_13
REMARK    6  A    between atoms: C_13  and  C_14
REMARK    7  A    between atoms: C_13  and  C_15
REMARK    8  A    between atoms: C_15  and  C_16
REMARK    9  A    between atoms: C_26  and  O_27
REMARK   10  A    between atoms: C_28  and  O_29
REMARK                            x       y       z     vdW  Elec       q    Type
REMARK                         _______ _______ _______ _____ _____    ______ ____
ROOT
ATOM      1  N   UNL     1       3.009   6.974  18.629  0.00  0.00    +0.000 N 
ATOM      2  C   UNL     1       3.145   7.627  17.429  0.00  0.00    +0.000 A 
ATOM      3  N   UNL     1       2.466   8.756  17.399  0.00  0.00    +0.000 NA
ATOM      4  C   UNL     1       1.829   8.815  18.624  0.00  0.00    +0.000 A 
ATOM      5  C   UNL     1       1.007   9.795  19.221  0.00  0.00    +0.000 A 
ATOM      6  N   UNL     1       0.696  10.995  18.576  0.00  0.00    +0.000 N 
ATOM      7  N   UNL     1       0.528   9.539  20.465  0.00  0.00    +0.000 NA
ATOM      8  C   UNL     1       0.867   8.386  21.071  0.00  0.00    +0.000 A 
ATOM      9  N   UNL     1       1.691   7.422  20.625  0.00  0.00    +0.000 NA
ATOM     10  C   UNL     1       2.129   7.697  19.386  0.00  0.00    +0.000 A 
ATOM     11  H   UNL     1       1.292  11.134  17.764  0.00  0.00    +0.000 HD
ENDROOT
BRANCH   1  14
ATOM     12  C   UNL     1       5.162   4.319  17.862  0.00  0.00    +0.000 C 
ATOM     13  O   UNL     1       4.975   5.709  18.230  0.00  0.00    +0.000 OA
ATOM     14  C   UNL     1       3.788   5.824  19.040  0.00  0.00    +0.000 C 
ATOM     15  C   UNL     1       3.046   4.490  18.969  0.00  0.00    +0.000 C 
ATOM     16  C   UNL     1       4.196   3.524  18.746  0.00  0.00    +0.000 C 
BRANCH  15  17
ATOM     17  O   UNL     1       2.332   4.191  20.168  0.00  0.00    +0.000 OA
ATOM     18  H   UNL     1       2.651   4.829  20.842  0.00  0.00    +0.000 HD
ENDBRANCH  15  17
BRANCH  16  19
ATOM     19  O   UNL     1       4.773   3.232  20.034  0.00  0.00    +0.000 OA
ATOM     20  H   UNL     1       5.508   2.601  19.916  0.00  0.00    +0.000 HD
ENDBRANCH  16  19
BRANCH  12  21
ATOM     21  C   UNL     1       4.902   4.105  16.363  0.00  0.00    +0.000 C 
BRANCH  21  23
ATOM     22  C   UNL     1       6.746   4.575  14.352  0.00  0.00    +0.000 C 
ATOM     23  S   UNL     1       5.583   5.494  15.387  0.00  0.00    +0.000 S 
ENDBRANCH  21  23
ENDBRANCH  12  21
ENDBRANCH   1  14
BRANCH   6  24
ATOM     24  C   UNL     1       0.470  12.169  19.428  0.00  0.00    +0.000 C 
ATOM     25  C   UNL     1      -0.319  13.194  18.606  0.00  0.00    +0.000 C 
BRANCH  24  26
ATOM     26  C   UNL     1       1.816  12.747  19.924  0.00  0.00    +0.000 C 
BRANCH  26  27
ATOM     27  C   UNL     1       2.214  14.051  19.266  0.00  0.00    +0.000 A 
ATOM     28  C   UNL     1       3.012  14.057  18.112  0.00  0.00    +0.000 A 
ATOM     29  C   UNL     1       3.408  15.262  17.530  0.00  0.00    +0.000 A 
ATOM     30  C   UNL     1       3.001  16.473  18.084  0.00  0.00    +0.000 A 
ATOM     31  C   UNL     1       2.194  16.480  19.221  0.00  0.00    +0.000 A 
ATOM     32  C   UNL     1       1.801  15.277  19.807  0.00  0.00    +0.000 A 
ENDBRANCH  26  27
ENDBRANCH  24  26
ENDBRANCH   6  24
TORSDOF 8
ENDMDL
MODEL 9
REMARK VINA RESULT:      -7.1      2.441      4.704
REMARK  Name = 
REMARK  10 active torsions:
REMARK  status: ('A' for Active; 'I' for Inactive)
REMARK    1  A    between atoms: C_1  and  S_2
REMARK    2  A    between atoms: S_2  and  C_3
REMARK    3  A    between atoms: C_3  and  C_4
REMARK    4  A    between atoms: C_6  and  N_7
REMARK    5  A    between atoms: N_12  and  C_13
REMARK    6  A    between atoms: C_13  and  C_14
REMARK    7  A    between atoms: C_13  and  C_15
REMARK    8  A    between atoms: C_15  and  C_16
REMARK    9  A    between atoms: C_26  and  O_27
REMARK   10  A    between atoms: C_28  and  O_29
REMARK                            x       y       z     vdW  Elec       q    Type
REMARK                         _______ _______ _______ _____ _____    ______ ____
ROOT
ATOM      1  N   UNL     1       2.597   6.859  18.941  0.00  0.00    +0.000 N 
ATOM      2  C   UNL     1       2.860   7.292  17.665  0.00  0.00    +0.000 A 
ATOM      3  N   UNL     1       2.409   8.512  17.452  0.00  0.00    +0.000 NA
ATOM      4  C   UNL     1       1.791   8.869  18.635  0.00  0.00    +0.000 A 
ATOM      5  C   UNL     1       1.170  10.063  19.059  0.00  0.00    +0.000 A 
ATOM      6  N   UNL     1       1.097  11.192  18.240  0.00  0.00    +0.000 N 
ATOM      7  N   UNL     1       0.646  10.088  20.312  0.00  0.00    +0.000 NA
ATOM      8  C   UNL     1       0.757   8.993  21.088  0.00  0.00    +0.000 A 
ATOM      9  N   UNL     1       1.382   7.836  20.810  0.00  0.00    +0.000 NA
ATOM     10  C   UNL     1       1.869   7.838  19.559  0.00  0.00    +0.000 A 
ATOM     11  H   UNL     1       1.710  11.096  17.435  0.00  0.00    +0.000 HD
ENDROOT
BRANCH   1  14
ATOM     12  C   UNL     1       5.061   4.373  19.084  0.00  0.00    +0.000 C 
ATOM     13  O   UNL     1       4.581   5.680  19.489  0.00  0.00    +0.000 OA
ATOM     14  C   UNL     1       3.140   5.655  19.537  0.00  0.00    +0.000 C 
ATOM     15  C   UNL     1       2.676   4.354  18.886  0.00  0.00    +0.000 C 
ATOM     16  C   UNL     1       3.851   3.439  19.183  0.00  0.00    +0.000 C 
BRANCH  15  17
ATOM     17  O   UNL     1       1.464   3.854  19.454  0.00  0.00    +0.000 OA
ATOM     18  H   UNL     1       0.971   3.434  18.717  0.00  0.00    +0.000 HD
ENDBRANCH  15  17
BRANCH  16  19
ATOM     19  O   UNL     1       3.679   2.932  20.521  0.00  0.00    +0.000 OA
ATOM     20  H   UNL     1       4.320   2.211  20.671  0.00  0.00    +0.000 HD
ENDBRANCH  16  19
BRANCH  12  21
ATOM     21  C   UNL     1       5.659   4.418  17.669  0.00  0.00    +0.000 C 
BRANCH  21  23
ATOM     22  C   UNL     1       7.362   6.592  17.483  0.00  0.00    +0.000 C 
ATOM     23  S   UNL     1       7.446   4.804  17.738  0.00  0.00    +0.000 S 
ENDBRANCH  21  23
ENDBRANCH  12  21
ENDBRANCH   1  14
BRANCH   6  24
ATOM     24  C   UNL     1       1.096  12.500  18.907  0.00  0.00    +0.000 C 
ATOM     25  C   UNL     1      -0.325  13.066  18.817  0.00  0.00    +0.000 C 
BRANCH  24  26
ATOM     26  C   UNL     1       2.131  13.444  18.253  0.00  0.00    +0.000 C 
BRANCH  26  27
ATOM     27  C   UNL     1       3.158  14.004  19.213  0.00  0.00    +0.000 A 
ATOM     28  C   UNL     1       3.002  13.850  20.599  0.00  0.00    +0.000 A 
ATOM     29  C   UNL     1       3.931  14.401  21.483  0.00  0.00    +0.000 A 
ATOM     30  C   UNL     1       5.032  15.099  20.995  0.00  0.00    +0.000 A 
ATOM     31  C   UNL     1       5.206  15.246  19.619  0.00  0.00    +0.000 A 
ATOM     32  C   UNL     1       4.277  14.700  18.734  0.00  0.00    +0.000 A 
ENDBRANCH  26  27
ENDBRANCH  24  26
ENDBRANCH   6  24
TORSDOF 8
ENDMDL
