MODEL 1
REMARK VINA RESULT:      -8.9      0.000      0.000
REMARK  Name = 
REMARK  6 active torsions:
REMARK  status: ('A' for Active; 'I' for Inactive)
REMARK    1  A    between atoms: C_2  and  C_3
REMARK    2  A    between atoms: C_3  and  C_4
REMARK    3  A    between atoms: C_4  and  C_5
REMARK    4  A    between atoms: C_10  and  C_12
REMARK    5  A    between atoms: N_22  and  C_23
REMARK    6  A    between atoms: C_23  and  C_24
REMARK                            x       y       z     vdW  Elec       q    Type
REMARK                         _______ _______ _______ _____ _____    ______ ____
ROOT
ATOM      1  C   UNL     1       2.713   5.305  19.093  0.00  0.00    +0.000 C 
ATOM      2  C   UNL     1       2.245   5.167  20.548  0.00  0.00    +0.000 C 
ATOM      3  C   UNL     1       1.282   6.260  21.003  0.00  0.00    +0.000 C 
ATOM      4  C   UNL     1       1.657   7.671  20.540  0.00  0.00    +0.000 C 
ATOM      5  N   UNL     1       2.184   7.734  19.175  0.00  0.00    +0.000 N 
ATOM      6  C   UNL     1       1.968   8.765  18.236  0.00  0.00    +0.000 C 
ATOM      7  O   UNL     1       2.613   8.785  17.185  0.00  0.00    +0.000 OA
ATOM      8  C   UNL     1       3.202   6.738  18.849  0.00  0.00    +0.000 C 
ENDROOT
BRANCH   6   9
ATOM      9  C   UNL     1       0.885   9.711  18.420  0.00  0.00    +0.000 A 
ATOM     10  C   UNL     1      -0.395   9.652  17.891  0.00  0.00    +0.000 A 
ATOM     11  C   UNL     1      -1.138  10.699  18.486  0.00  0.00    +0.000 A 
ATOM     12  C   UNL     1      -2.485  11.100  18.484  0.00  0.00    +0.000 A 
ATOM     13  C   UNL     1      -2.854  12.206  19.260  0.00  0.00    +0.000 A 
ATOM     14  C   UNL     1      -1.901  12.927  19.986  0.00  0.00    +0.000 A 
ATOM     15  C   UNL     1      -0.551  12.556  19.980  0.00  0.00    +0.000 A 
ATOM     16  C   UNL     1      -0.224  11.423  19.240  0.00  0.00    +0.000 A 
ATOM     17  O   UNL     1       1.009  10.845  19.175  0.00  0.00    +0.000 OA
ENDBRANCH   6   9
BRANCH   1  18
ATOM     18  C   UNL     1       1.710   4.788  18.024  0.00  0.00    +0.000 C 
BRANCH  18  19
ATOM     19  C   UNL     1       2.109   3.535  17.248  0.00  0.00    +0.000 C 
BRANCH  19  21
ATOM     20  O   UNL     1       4.051   2.254  17.926  0.00  0.00    +0.000 OA
ATOM     21  C   UNL     1       3.584   3.194  17.301  0.00  0.00    +0.000 C 
ATOM     22  N   UNL     1       4.330   4.057  16.520  0.00  0.00    +0.000 N 
ATOM     23  H   UNL     1       3.869   4.817  16.039  0.00  0.00    +0.000 HD
BRANCH  22  24
ATOM     24  C   UNL     1       5.741   3.870  16.287  0.00  0.00    +0.000 C 
BRANCH  24  25
ATOM     25  C   UNL     1       6.572   4.937  16.955  0.00  0.00    +0.000 A 
ATOM     26  C   UNL     1       6.550   6.262  16.484  0.00  0.00    +0.000 A 
ATOM     27  C   UNL     1       7.249   7.269  17.156  0.00  0.00    +0.000 A 
ATOM     28  C   UNL     1       7.970   6.956  18.302  0.00  0.00    +0.000 A 
ATOM     29  F   UNL     1       8.620   7.929  18.958  0.00  0.00    +0.000 F 
ATOM     30  C   UNL     1       8.009   5.650  18.770  0.00  0.00    +0.000 A 
ATOM     31  F   UNL     1       8.700   5.351  19.880  0.00  0.00    +0.000 F 
ATOM     32  C   UNL     1       7.319   4.639  18.105  0.00  0.00    +0.000 A 
ENDBRANCH  24  25
ENDBRANCH  22  24
ENDBRANCH  19  21
ENDBRANCH  18  19
ENDBRANCH   1  18
TORSDOF 6
ENDMDL
MODEL 2
REMARK VINA RESULT:      -8.7      1.843      2.898
REMARK  Name = 
REMARK  6 active torsions:
REMARK  status: ('A' for Active; 'I' for Inactive)
REMARK    1  A    between atoms: C_2  and  C_3
REMARK    2  A    between atoms: C_3  and  C_4
REMARK    3  A    between atoms: C_4  and  C_5
REMARK    4  A    between atoms: C_10  and  C_12
REMARK    5  A    between atoms: N_22  and  C_23
REMARK    6  A    between atoms: C_23  and  C_24
REMARK                            x       y       z     vdW  Elec       q    Type
REMARK                         _______ _______ _______ _____ _____    ______ ____
ROOT
ATOM      1  C   UNL     1       2.657   2.254  19.444  0.00  0.00    +0.000 C 
ATOM      2  C   UNL     1       1.292   2.084  20.123  0.00  0.00    +0.000 C 
ATOM      3  C   UNL     1       0.494   3.378  20.258  0.00  0.00    +0.000 C 
ATOM      4  C   UNL     1       1.322   4.593  20.689  0.00  0.00    +0.000 C 
ATOM      5  N   UNL     1       2.652   4.658  20.081  0.00  0.00    +0.000 N 
ATOM      6  C   UNL     1       3.336   5.825  19.677  0.00  0.00    +0.000 C 
ATOM      7  O   UNL     1       4.522   5.758  19.344  0.00  0.00    +0.000 OA
ATOM      8  C   UNL     1       3.415   3.413  20.105  0.00  0.00    +0.000 C 
ENDROOT
BRANCH   6   9
ATOM      9  C   UNL     1       2.619   7.071  19.495  0.00  0.00    +0.000 A 
ATOM     10  C   UNL     1       2.430   7.780  18.319  0.00  0.00    +0.000 A 
ATOM     11  C   UNL     1       1.529   8.832  18.610  0.00  0.00    +0.000 A 
ATOM     12  C   UNL     1       0.845   9.803  17.859  0.00  0.00    +0.000 A 
ATOM     13  C   UNL     1      -0.024  10.675  18.527  0.00  0.00    +0.000 A 
ATOM     14  C   UNL     1      -0.177  10.615  19.916  0.00  0.00    +0.000 A 
ATOM     15  C   UNL     1       0.514   9.669  20.682  0.00  0.00    +0.000 A 
ATOM     16  C   UNL     1       1.332   8.785  19.983  0.00  0.00    +0.000 A 
ATOM     17  O   UNL     1       2.017   7.739  20.526  0.00  0.00    +0.000 OA
ENDBRANCH   6   9
BRANCH   1  18
ATOM     18  C   UNL     1       2.619   2.328  17.892  0.00  0.00    +0.000 C 
BRANCH  18  19
ATOM     19  C   UNL     1       3.951   2.187  17.159  0.00  0.00    +0.000 C 
BRANCH  19  21
ATOM     20  O   UNL     1       3.893   4.537  16.567  0.00  0.00    +0.000 OA
ATOM     21  C   UNL     1       4.491   3.470  16.561  0.00  0.00    +0.000 C 
ATOM     22  N   UNL     1       5.759   3.292  16.043  0.00  0.00    +0.000 N 
ATOM     23  H   UNL     1       6.183   2.374  16.069  0.00  0.00    +0.000 HD
BRANCH  22  24
ATOM     24  C   UNL     1       6.554   4.386  15.539  0.00  0.00    +0.000 C 
BRANCH  24  25
ATOM     25  C   UNL     1       7.039   5.291  16.644  0.00  0.00    +0.000 A 
ATOM     26  C   UNL     1       7.580   4.752  17.825  0.00  0.00    +0.000 A 
ATOM     27  C   UNL     1       8.112   5.587  18.811  0.00  0.00    +0.000 A 
ATOM     28  C   UNL     1       8.109   6.964  18.620  0.00  0.00    +0.000 A 
ATOM     29  F   UNL     1       8.642   7.761  19.557  0.00  0.00    +0.000 F 
ATOM     30  C   UNL     1       7.568   7.508  17.463  0.00  0.00    +0.000 A 
ATOM     31  F   UNL     1       7.571   8.836  17.277  0.00  0.00    +0.000 F 
ATOM     32  C   UNL     1       7.032   6.684  16.476  0.00  0.00    +0.000 A 
ENDBRANCH  24  25
ENDBRANCH  22  24
ENDBRANCH  19  21
ENDBRANCH  18  19
ENDBRANCH   1  18
TORSDOF 6
ENDMDL
MODEL 3
REMARK VINA RESULT:      -8.6      0.484      1.201
REMARK  Name = 
REMARK  6 active torsions:
REMARK  status: ('A' for Active; 'I' for Inactive)
REMARK    1  A    between atoms: C_2  and  C_3
REMARK    2  A    between atoms: C_3  and  C_4
REMARK    3  A    between atoms: C_4  and  C_5
REMARK    4  A    between atoms: C_10  and  C_12
REMARK    5  A    between atoms: N_22  and  C_23
REMARK    6  A    between atoms: C_23  and  C_24
REMARK                            x       y       z     vdW  Elec       q    Type
REMARK                         _______ _______ _______ _____ _____    ______ ____
ROOT
ATOM      1  C   UNL     1       2.648   5.280  19.228  0.00  0.00    +0.000 C 
ATOM      2  C   UNL     1       2.202   5.194  20.694  0.00  0.00    +0.000 C 
ATOM      3  C   UNL     1       1.238   6.298  21.121  0.00  0.00    +0.000 C 
ATOM      4  C   UNL     1       1.597   7.693  20.599  0.00  0.00    +0.000 C 
ATOM      5  N   UNL     1       2.104   7.707  19.225  0.00  0.00    +0.000 N 
ATOM      6  C   UNL     1       1.867   8.700  18.251  0.00  0.00    +0.000 C 
ATOM      7  O   UNL     1       2.496   8.684  17.191  0.00  0.00    +0.000 OA
ATOM      8  C   UNL     1       3.123   6.706  18.922  0.00  0.00    +0.000 C 
ENDROOT
BRANCH   6   9
ATOM      9  C   UNL     1       0.780   9.646  18.416  0.00  0.00    +0.000 A 
ATOM     10  C   UNL     1      -0.467   9.621  17.812  0.00  0.00    +0.000 A 
ATOM     11  C   UNL     1      -1.237  10.647  18.410  0.00  0.00    +0.000 A 
ATOM     12  C   UNL     1      -2.579  11.058  18.349  0.00  0.00    +0.000 A 
ATOM     13  C   UNL     1      -2.987  12.131  19.152  0.00  0.00    +0.000 A 
ATOM     14  C   UNL     1      -2.073  12.811  19.964  0.00  0.00    +0.000 A 
ATOM     15  C   UNL     1      -0.728  12.429  20.019  0.00  0.00    +0.000 A 
ATOM     16  C   UNL     1      -0.365  11.328  19.248  0.00  0.00    +0.000 A 
ATOM     17  O   UNL     1       0.866  10.743  19.228  0.00  0.00    +0.000 OA
ENDBRANCH   6   9
BRANCH   1  18
ATOM     18  C   UNL     1       1.632   4.717  18.194  0.00  0.00    +0.000 C 
BRANCH  18  19
ATOM     19  C   UNL     1       2.085   3.521  17.360  0.00  0.00    +0.000 C 
BRANCH  19  21
ATOM     20  O   UNL     1       4.204   2.426  17.792  0.00  0.00    +0.000 OA
ATOM     21  C   UNL     1       3.586   3.339  17.265  0.00  0.00    +0.000 C 
ATOM     22  N   UNL     1       4.163   4.314  16.474  0.00  0.00    +0.000 N 
ATOM     23  H   UNL     1       3.583   5.043  16.080  0.00  0.00    +0.000 HD
BRANCH  22  24
ATOM     24  C   UNL     1       5.559   4.293  16.109  0.00  0.00    +0.000 C 
BRANCH  24  25
ATOM     25  C   UNL     1       6.388   5.196  16.987  0.00  0.00    +0.000 A 
ATOM     26  C   UNL     1       7.158   4.664  18.037  0.00  0.00    +0.000 A 
ATOM     27  C   UNL     1       7.996   5.487  18.795  0.00  0.00    +0.000 A 
ATOM     28  C   UNL     1       8.071   6.844  18.504  0.00  0.00    +0.000 A 
ATOM     29  F   UNL     1       8.894   7.626  19.218  0.00  0.00    +0.000 F 
ATOM     30  C   UNL     1       7.308   7.383  17.478  0.00  0.00    +0.000 A 
ATOM     31  F   UNL     1       7.386   8.691  17.194  0.00  0.00    +0.000 F 
ATOM     32  C   UNL     1       6.467   6.572  16.719  0.00  0.00    +0.000 A 
ENDBRANCH  24  25
ENDBRANCH  22  24
ENDBRANCH  19  21
ENDBRANCH  18  19
ENDBRANCH   1  18
TORSDOF 6
ENDMDL
MODEL 4
REMARK VINA RESULT:      -8.5      0.701      1.176
REMARK  Name = 
REMARK  6 active torsions:
REMARK  status: ('A' for Active; 'I' for Inactive)
REMARK    1  A    between atoms: C_2  and  C_3
REMARK    2  A    between atoms: C_3  and  C_4
REMARK    3  A    between atoms: C_4  and  C_5
REMARK    4  A    between atoms: C_10  and  C_12
REMARK    5  A    between atoms: N_22  and  C_23
REMARK    6  A    between atoms: C_23  and  C_24
REMARK                            x       y       z     vdW  Elec       q    Type
REMARK                         _______ _______ _______ _____ _____    ______ ____
ROOT
ATOM      1  C   UNL     1       2.792   5.653  18.923  0.00  0.00    +0.000 C 
ATOM      2  C   UNL     1       2.490   5.362  20.399  0.00  0.00    +0.000 C 
ATOM      3  C   UNL     1       1.417   6.260  21.008  0.00  0.00    +0.000 C 
ATOM      4  C   UNL     1       1.525   7.737  20.614  0.00  0.00    +0.000 C 
ATOM      5  N   UNL     1       1.905   7.958  19.217  0.00  0.00    +0.000 N 
ATOM      6  C   UNL     1       1.445   8.992  18.373  0.00  0.00    +0.000 C 
ATOM      7  O   UNL     1       1.978   9.173  17.276  0.00  0.00    +0.000 OA
ATOM      8  C   UNL     1       3.029   7.158  18.738  0.00  0.00    +0.000 C 
ENDROOT
BRANCH   6   9
ATOM      9  C   UNL     1       0.251   9.741  18.714  0.00  0.00    +0.000 A 
ATOM     10  C   UNL     1       0.060  10.594  19.790  0.00  0.00    +0.000 A 
ATOM     11  C   UNL     1      -1.196  11.218  19.606  0.00  0.00    +0.000 A 
ATOM     12  C   UNL     1      -1.907  12.249  20.243  0.00  0.00    +0.000 A 
ATOM     13  C   UNL     1      -3.151  12.626  19.721  0.00  0.00    +0.000 A 
ATOM     14  C   UNL     1      -3.699  11.964  18.617  0.00  0.00    +0.000 A 
ATOM     15  C   UNL     1      -3.015  10.920  17.985  0.00  0.00    +0.000 A 
ATOM     16  C   UNL     1      -1.760  10.602  18.497  0.00  0.00    +0.000 A 
ATOM     17  O   UNL     1      -0.897   9.684  17.974  0.00  0.00    +0.000 OA
ENDBRANCH   6   9
BRANCH   1  18
ATOM     18  C   UNL     1       1.785   5.043  17.908  0.00  0.00    +0.000 C 
BRANCH  18  19
ATOM     19  C   UNL     1       2.213   3.766  17.191  0.00  0.00    +0.000 C 
BRANCH  19  21
ATOM     20  O   UNL     1       4.170   2.596  18.013  0.00  0.00    +0.000 OA
ATOM     21  C   UNL     1       3.692   3.448  17.279  0.00  0.00    +0.000 C 
ATOM     22  N   UNL     1       4.427   4.216  16.396  0.00  0.00    +0.000 N 
ATOM     23  H   UNL     1       3.956   4.907  15.827  0.00  0.00    +0.000 HD
BRANCH  22  24
ATOM     24  C   UNL     1       5.839   4.016  16.181  0.00  0.00    +0.000 C 
BRANCH  24  25
ATOM     25  C   UNL     1       6.674   5.039  16.910  0.00  0.00    +0.000 A 
ATOM     26  C   UNL     1       6.722   6.373  16.465  0.00  0.00    +0.000 A 
ATOM     27  C   UNL     1       7.422   7.341  17.190  0.00  0.00    +0.000 A 
ATOM     28  C   UNL     1       8.074   6.982  18.364  0.00  0.00    +0.000 A 
ATOM     29  F   UNL     1       8.724   7.919  19.069  0.00  0.00    +0.000 F 
ATOM     30  C   UNL     1       8.042   5.668  18.808  0.00  0.00    +0.000 A 
ATOM     31  F   UNL     1       8.666   5.324  19.944  0.00  0.00    +0.000 F 
ATOM     32  C   UNL     1       7.350   4.694  18.090  0.00  0.00    +0.000 A 
ENDBRANCH  24  25
ENDBRANCH  22  24
ENDBRANCH  19  21
ENDBRANCH  18  19
ENDBRANCH   1  18
TORSDOF 6
ENDMDL
MODEL 5
REMARK VINA RESULT:      -8.4      3.107      4.207
REMARK  Name = 
REMARK  6 active torsions:
REMARK  status: ('A' for Active; 'I' for Inactive)
REMARK    1  A    between atoms: C_2  and  C_3
REMARK    2  A    between atoms: C_3  and  C_4
REMARK    3  A    between atoms: C_4  and  C_5
REMARK    4  A    between atoms: C_10  and  C_12
REMARK    5  A    between atoms: N_22  and  C_23
REMARK    6  A    between atoms: C_23  and  C_24
REMARK                            x       y       z     vdW  Elec       q    Type
REMARK                         _______ _______ _______ _____ _____    ______ ____
ROOT
ATOM      1  C   UNL     1       2.853   2.034  19.024  0.00  0.00    +0.000 C 
ATOM      2  C   UNL     1       1.362   1.770  19.273  0.00  0.00    +0.000 C 
ATOM      3  C   UNL     1       0.508   3.032  19.353  0.00  0.00    +0.000 C 
ATOM      4  C   UNL     1       1.139   4.177  20.152  0.00  0.00    +0.000 C 
ATOM      5  N   UNL     1       2.581   4.327  19.947  0.00  0.00    +0.000 N 
ATOM      6  C   UNL     1       3.304   5.539  19.905  0.00  0.00    +0.000 C 
ATOM      7  O   UNL     1       4.537   5.520  19.904  0.00  0.00    +0.000 OA
ATOM      8  C   UNL     1       3.357   3.091  20.015  0.00  0.00    +0.000 C 
ENDROOT
BRANCH   6   9
ATOM      9  C   UNL     1       2.615   6.798  19.700  0.00  0.00    +0.000 A 
ATOM     10  C   UNL     1       2.548   7.551  18.538  0.00  0.00    +0.000 A 
ATOM     11  C   UNL     1       1.629   8.600  18.777  0.00  0.00    +0.000 A 
ATOM     12  C   UNL     1       1.029   9.605  17.999  0.00  0.00    +0.000 A 
ATOM     13  C   UNL     1       0.102  10.459  18.609  0.00  0.00    +0.000 A 
ATOM     14  C   UNL     1      -0.191  10.349  19.972  0.00  0.00    +0.000 A 
ATOM     15  C   UNL     1       0.415   9.369  20.767  0.00  0.00    +0.000 A 
ATOM     16  C   UNL     1       1.294   8.504  20.121  0.00  0.00    +0.000 A 
ATOM     17  O   UNL     1       1.916   7.432  20.689  0.00  0.00    +0.000 OA
ENDBRANCH   6   9
BRANCH   1  18
ATOM     18  C   UNL     1       3.237   2.321  17.544  0.00  0.00    +0.000 C 
BRANCH  18  19
ATOM     19  C   UNL     1       2.999   3.739  17.031  0.00  0.00    +0.000 C 
BRANCH  19  21
ATOM     20  O   UNL     1       4.338   5.716  16.616  0.00  0.00    +0.000 OA
ATOM     21  C   UNL     1       4.253   4.497  16.645  0.00  0.00    +0.000 C 
ATOM     22  N   UNL     1       5.299   3.637  16.368  0.00  0.00    +0.000 N 
ATOM     23  H   UNL     1       5.144   2.638  16.406  0.00  0.00    +0.000 HD
BRANCH  22  24
ATOM     24  C   UNL     1       6.640   4.102  16.109  0.00  0.00    +0.000 C 
BRANCH  24  25
ATOM     25  C   UNL     1       6.901   4.284  14.635  0.00  0.00    +0.000 A 
ATOM     26  C   UNL     1       6.176   3.546  13.682  0.00  0.00    +0.000 A 
ATOM     27  C   UNL     1       6.353   3.778  12.315  0.00  0.00    +0.000 A 
ATOM     28  C   UNL     1       7.253   4.751  11.895  0.00  0.00    +0.000 A 
ATOM     29  F   UNL     1       7.402   4.988  10.584  0.00  0.00    +0.000 F 
ATOM     30  C   UNL     1       7.982   5.478  12.825  0.00  0.00    +0.000 A 
ATOM     31  F   UNL     1       8.844   6.421  12.419  0.00  0.00    +0.000 F 
ATOM     32  C   UNL     1       7.815   5.252  14.190  0.00  0.00    +0.000 A 
ENDBRANCH  24  25
ENDBRANCH  22  24
ENDBRANCH  19  21
ENDBRANCH  18  19
ENDBRANCH   1  18
TORSDOF 6
ENDMDL
MODEL 6
REMARK VINA RESULT:      -8.4      3.304      4.248
REMARK  Name = 
REMARK  6 active torsions:
REMARK  status: ('A' for Active; 'I' for Inactive)
REMARK    1  A    between atoms: C_2  and  C_3
REMARK    2  A    between atoms: C_3  and  C_4
REMARK    3  A    between atoms: C_4  and  C_5
REMARK    4  A    between atoms: C_10  and  C_12
REMARK    5  A    between atoms: N_22  and  C_23
REMARK    6  A    between atoms: C_23  and  C_24
REMARK                            x       y       z     vdW  Elec       q    Type
REMARK                         _______ _______ _______ _____ _____    ______ ____
ROOT
ATOM      1  C   UNL     1       2.807   2.112  19.192  0.00  0.00    +0.000 C 
ATOM      2  C   UNL     1       1.329   1.835  19.499  0.00  0.00    +0.000 C 
ATOM      3  C   UNL     1       0.461   3.087  19.580  0.00  0.00    +0.000 C 
ATOM      4  C   UNL     1       1.103   4.259  20.330  0.00  0.00    +0.000 C 
ATOM      5  N   UNL     1       2.535   4.422  20.072  0.00  0.00    +0.000 N 
ATOM      6  C   UNL     1       3.239   5.642  19.977  0.00  0.00    +0.000 C 
ATOM      7  O   UNL     1       4.472   5.639  19.934  0.00  0.00    +0.000 OA
ATOM      8  C   UNL     1       3.329   3.198  20.141  0.00  0.00    +0.000 C 
ENDROOT
BRANCH   6   9
ATOM      9  C   UNL     1       2.526   6.887  19.768  0.00  0.00    +0.000 A 
ATOM     10  C   UNL     1       2.440   7.632  18.602  0.00  0.00    +0.000 A 
ATOM     11  C   UNL     1       1.502   8.665  18.839  0.00  0.00    +0.000 A 
ATOM     12  C   UNL     1       0.881   9.653  18.057  0.00  0.00    +0.000 A 
ATOM     13  C   UNL     1      -0.059  10.494  18.667  0.00  0.00    +0.000 A 
ATOM     14  C   UNL     1      -0.343  10.387  20.032  0.00  0.00    +0.000 A 
ATOM     15  C   UNL     1       0.284   9.423  20.830  0.00  0.00    +0.000 A 
ATOM     16  C   UNL     1       1.176   8.571  20.185  0.00  0.00    +0.000 A 
ATOM     17  O   UNL     1       1.820   7.514  20.756  0.00  0.00    +0.000 OA
ENDBRANCH   6   9
BRANCH   1  18
ATOM     18  C   UNL     1       3.135   2.370  17.694  0.00  0.00    +0.000 C 
BRANCH  18  19
ATOM     19  C   UNL     1       2.918   3.788  17.172  0.00  0.00    +0.000 C 
BRANCH  19  21
ATOM     20  O   UNL     1       4.273   5.709  16.580  0.00  0.00    +0.000 OA
ATOM     21  C   UNL     1       4.174   4.497  16.708  0.00  0.00    +0.000 C 
ATOM     22  N   UNL     1       5.206   3.605  16.487  0.00  0.00    +0.000 N 
ATOM     23  H   UNL     1       5.041   2.615  16.607  0.00  0.00    +0.000 HD
BRANCH  22  24
ATOM     24  C   UNL     1       6.547   4.030  16.171  0.00  0.00    +0.000 C 
BRANCH  24  25
ATOM     25  C   UNL     1       6.732   4.273  14.694  0.00  0.00    +0.000 A 
ATOM     26  C   UNL     1       7.644   5.241  14.235  0.00  0.00    +0.000 A 
ATOM     27  C   UNL     1       7.882   5.405  12.867  0.00  0.00    +0.000 A 
ATOM     28  C   UNL     1       7.212   4.601  11.953  0.00  0.00    +0.000 A 
ATOM     29  F   UNL     1       7.461   4.744  10.643  0.00  0.00    +0.000 F 
ATOM     30  C   UNL     1       6.301   3.650  12.392  0.00  0.00    +0.000 A 
ATOM     31  F   UNL     1       5.661   2.870  11.510  0.00  0.00    +0.000 F 
ATOM     32  C   UNL     1       6.055   3.481  13.753  0.00  0.00    +0.000 A 
ENDBRANCH  24  25
ENDBRANCH  22  24
ENDBRANCH  19  21
ENDBRANCH  18  19
ENDBRANCH   1  18
TORSDOF 6
ENDMDL
MODEL 7
REMARK VINA RESULT:      -8.3      2.940      4.376
REMARK  Name = 
REMARK  6 active torsions:
REMARK  status: ('A' for Active; 'I' for Inactive)
REMARK    1  A    between atoms: C_2  and  C_3
REMARK    2  A    between atoms: C_3  and  C_4
REMARK    3  A    between atoms: C_4  and  C_5
REMARK    4  A    between atoms: C_10  and  C_12
REMARK    5  A    between atoms: N_22  and  C_23
REMARK    6  A    between atoms: C_23  and  C_24
REMARK                            x       y       z     vdW  Elec       q    Type
REMARK                         _______ _______ _______ _____ _____    ______ ____
ROOT
ATOM      1  C   UNL     1       3.156   2.034  18.894  0.00  0.00    +0.000 C 
ATOM      2  C   UNL     1       2.647   2.105  17.449  0.00  0.00    +0.000 C 
ATOM      3  C   UNL     1       2.255   3.507  16.991  0.00  0.00    +0.000 C 
ATOM      4  C   UNL     1       1.474   4.319  18.028  0.00  0.00    +0.000 C 
ATOM      5  N   UNL     1       1.943   4.144  19.404  0.00  0.00    +0.000 N 
ATOM      6  C   UNL     1       1.990   5.133  20.410  0.00  0.00    +0.000 C 
ATOM      7  O   UNL     1       2.238   4.815  21.575  0.00  0.00    +0.000 OA
ATOM      8  C   UNL     1       2.172   2.762  19.818  0.00  0.00    +0.000 C 
ENDROOT
BRANCH   6   9
ATOM      9  C   UNL     1       1.910   6.539  20.062  0.00  0.00    +0.000 A 
ATOM     10  C   UNL     1       2.358   7.155  18.904  0.00  0.00    +0.000 A 
ATOM     11  C   UNL     1       1.907   8.495  18.946  0.00  0.00    +0.000 A 
ATOM     12  C   UNL     1       1.908   9.582  18.056  0.00  0.00    +0.000 A 
ATOM     13  C   UNL     1       1.306  10.780  18.463  0.00  0.00    +0.000 A 
ATOM     14  C   UNL     1       0.756  10.911  19.742  0.00  0.00    +0.000 A 
ATOM     15  C   UNL     1       0.767   9.845  20.649  0.00  0.00    +0.000 A 
ATOM     16  C   UNL     1       1.328   8.654  20.198  0.00  0.00    +0.000 A 
ATOM     17  O   UNL     1       1.357   7.478  20.887  0.00  0.00    +0.000 OA
ENDBRANCH   6   9
BRANCH   1  18
ATOM     18  C   UNL     1       4.639   2.454  19.095  0.00  0.00    +0.000 C 
BRANCH  18  19
ATOM     19  C   UNL     1       4.896   3.724  19.902  0.00  0.00    +0.000 C 
BRANCH  19  21
ATOM     20  O   UNL     1       6.762   5.262  19.736  0.00  0.00    +0.000 OA
ATOM     21  C   UNL     1       5.781   4.747  19.220  0.00  0.00    +0.000 C 
ATOM     22  N   UNL     1       5.363   4.994  17.926  0.00  0.00    +0.000 N 
ATOM     23  H   UNL     1       4.534   4.533  17.575  0.00  0.00    +0.000 HD
BRANCH  22  24
ATOM     24  C   UNL     1       6.110   5.824  17.013  0.00  0.00    +0.000 C 
BRANCH  24  25
ATOM     25  C   UNL     1       6.293   5.164  15.669  0.00  0.00    +0.000 A 
ATOM     26  C   UNL     1       5.384   4.189  15.219  0.00  0.00    +0.000 A 
ATOM     27  C   UNL     1       5.501   3.642  13.938  0.00  0.00    +0.000 A 
ATOM     28  C   UNL     1       6.525   4.069  13.100  0.00  0.00    +0.000 A 
ATOM     29  F   UNL     1       6.620   3.559  11.864  0.00  0.00    +0.000 F 
ATOM     30  C   UNL     1       7.435   5.021  13.537  0.00  0.00    +0.000 A 
ATOM     31  F   UNL     1       8.418   5.438  12.725  0.00  0.00    +0.000 F 
ATOM     32  C   UNL     1       7.329   5.570  14.813  0.00  0.00    +0.000 A 
ENDBRANCH  24  25
ENDBRANCH  22  24
ENDBRANCH  19  21
ENDBRANCH  18  19
ENDBRANCH   1  18
TORSDOF 6
ENDMDL
MODEL 8
REMARK VINA RESULT:      -8.2      1.962      3.302
REMARK  Name = 
REMARK  6 active torsions:
REMARK  status: ('A' for Active; 'I' for Inactive)
REMARK    1  A    between atoms: C_2  and  C_3
REMARK    2  A    between atoms: C_3  and  C_4
REMARK    3  A    between atoms: C_4  and  C_5
REMARK    4  A    between atoms: C_10  and  C_12
REMARK    5  A    between atoms: N_22  and  C_23
REMARK    6  A    between atoms: C_23  and  C_24
REMARK                            x       y       z     vdW  Elec       q    Type
REMARK                         _______ _______ _______ _____ _____    ______ ____
ROOT
ATOM      1  C   UNL     1       3.134   1.909  19.033  0.00  0.00    +0.000 C 
ATOM      2  C   UNL     1       1.668   1.548  19.306  0.00  0.00    +0.000 C 
ATOM      3  C   UNL     1       0.736   2.751  19.414  0.00  0.00    +0.000 C 
ATOM      4  C   UNL     1       1.307   3.928  20.212  0.00  0.00    +0.000 C 
ATOM      5  N   UNL     1       2.732   4.172  19.983  0.00  0.00    +0.000 N 
ATOM      6  C   UNL     1       3.375   5.428  19.939  0.00  0.00    +0.000 C 
ATOM      7  O   UNL     1       4.606   5.489  19.917  0.00  0.00    +0.000 OA
ATOM      8  C   UNL     1       3.587   2.988  20.025  0.00  0.00    +0.000 C 
ENDROOT
BRANCH   6   9
ATOM      9  C   UNL     1       2.602   6.642  19.759  0.00  0.00    +0.000 A 
ATOM     10  C   UNL     1       1.747   7.248  20.666  0.00  0.00    +0.000 A 
ATOM     11  C   UNL     1       1.361   8.488  20.105  0.00  0.00    +0.000 A 
ATOM     12  C   UNL     1       0.636   9.608  20.550  0.00  0.00    +0.000 A 
ATOM     13  C   UNL     1       0.498  10.701  19.685  0.00  0.00    +0.000 A 
ATOM     14  C   UNL     1       1.027  10.667  18.391  0.00  0.00    +0.000 A 
ATOM     15  C   UNL     1       1.732   9.551  17.924  0.00  0.00    +0.000 A 
ATOM     16  C   UNL     1       1.895   8.501  18.824  0.00  0.00    +0.000 A 
ATOM     17  O   UNL     1       2.620   7.369  18.601  0.00  0.00    +0.000 OA
ENDBRANCH   6   9
BRANCH   1  18
ATOM     18  C   UNL     1       3.471   2.233  17.550  0.00  0.00    +0.000 C 
BRANCH  18  19
ATOM     19  C   UNL     1       3.101   3.625  17.044  0.00  0.00    +0.000 C 
BRANCH  19  21
ATOM     20  O   UNL     1       4.240   5.665  16.402  0.00  0.00    +0.000 OA
ATOM     21  C   UNL     1       4.264   4.450  16.535  0.00  0.00    +0.000 C 
ATOM     22  N   UNL     1       5.369   3.661  16.278  0.00  0.00    +0.000 N 
ATOM     23  H   UNL     1       5.306   2.660  16.405  0.00  0.00    +0.000 HD
BRANCH  22  24
ATOM     24  C   UNL     1       6.651   4.213  15.914  0.00  0.00    +0.000 C 
BRANCH  24  25
ATOM     25  C   UNL     1       7.130   5.239  16.911  0.00  0.00    +0.000 A 
ATOM     26  C   UNL     1       7.591   4.843  18.180  0.00  0.00    +0.000 A 
ATOM     27  C   UNL     1       8.118   5.782  19.072  0.00  0.00    +0.000 A 
ATOM     28  C   UNL     1       8.190   7.118  18.698  0.00  0.00    +0.000 A 
ATOM     29  F   UNL     1       8.719   8.012  19.546  0.00  0.00    +0.000 F 
ATOM     30  C   UNL     1       7.729   7.523  17.453  0.00  0.00    +0.000 A 
ATOM     31  F   UNL     1       7.805   8.812  17.090  0.00  0.00    +0.000 F 
ATOM     32  C   UNL     1       7.198   6.595  16.559  0.00  0.00    +0.000 A 
ENDBRANCH  24  25
ENDBRANCH  22  24
ENDBRANCH  19  21
ENDBRANCH  18  19
ENDBRANCH   1  18
TORSDOF 6
ENDMDL
MODEL 9
REMARK VINA RESULT:      -8.1      3.880      6.470
REMARK  Name = 
REMARK  6 active torsions:
REMARK  status: ('A' for Active; 'I' for Inactive)
REMARK    1  A    between atoms: C_2  and  C_3
REMARK    2  A    between atoms: C_3  and  C_4
REMARK    3  A    between atoms: C_4  and  C_5
REMARK    4  A    between atoms: C_10  and  C_12
REMARK    5  A    between atoms: N_22  and  C_23
REMARK    6  A    between atoms: C_23  and  C_24
REMARK                            x       y       z     vdW  Elec       q    Type
REMARK                         _______ _______ _______ _____ _____    ______ ____
ROOT
ATOM      1  C   UNL     1      -0.547  10.231  20.245  0.00  0.00    +0.000 C 
ATOM      2  C   UNL     1      -1.466  10.142  19.019  0.00  0.00    +0.000 C 
ATOM      3  C   UNL     1      -1.477  11.398  18.152  0.00  0.00    +0.000 C 
ATOM      4  C   UNL     1      -1.515  12.713  18.937  0.00  0.00    +0.000 C 
ATOM      5  N   UNL     1      -0.691  12.712  20.148  0.00  0.00    +0.000 N 
ATOM      6  C   UNL     1       0.043  13.800  20.666  0.00  0.00    +0.000 C 
ATOM      7  O   UNL     1       0.551  13.721  21.787  0.00  0.00    +0.000 OA
ATOM      8  C   UNL     1      -0.831  11.535  21.001  0.00  0.00    +0.000 C 
ENDROOT
BRANCH   6   9
ATOM      9  C   UNL     1       0.342  14.948  19.832  0.00  0.00    +0.000 A 
ATOM     10  C   UNL     1       1.586  15.392  19.412  0.00  0.00    +0.000 A 
ATOM     11  C   UNL     1       1.361  16.437  18.484  0.00  0.00    +0.000 A 
ATOM     12  C   UNL     1       2.163  17.201  17.620  0.00  0.00    +0.000 A 
ATOM     13  C   UNL     1       1.544  18.148  16.795  0.00  0.00    +0.000 A 
ATOM     14  C   UNL     1       0.163  18.365  16.859  0.00  0.00    +0.000 A 
ATOM     15  C   UNL     1      -0.647  17.629  17.730  0.00  0.00    +0.000 A 
ATOM     16  C   UNL     1      -0.009  16.662  18.501  0.00  0.00    +0.000 A 
ATOM     17  O   UNL     1      -0.624  15.782  19.342  0.00  0.00    +0.000 OA
ENDBRANCH   6   9
BRANCH   1  18
ATOM     18  C   UNL     1       0.961   9.981  19.961  0.00  0.00    +0.000 C 
BRANCH  18  19
ATOM     19  C   UNL     1       1.379   9.862  18.497  0.00  0.00    +0.000 C 
BRANCH  19  21
ATOM     20  O   UNL     1       2.681   8.401  17.067  0.00  0.00    +0.000 OA
ATOM     21  C   UNL     1       2.184   8.623  18.161  0.00  0.00    +0.000 C 
ATOM     22  N   UNL     1       2.316   7.794  19.259  0.00  0.00    +0.000 N 
ATOM     23  H   UNL     1       1.866   8.044  20.129  0.00  0.00    +0.000 HD
BRANCH  22  24
ATOM     24  C   UNL     1       3.149   6.616  19.247  0.00  0.00    +0.000 C 
BRANCH  24  25
ATOM     25  C   UNL     1       2.339   5.350  19.124  0.00  0.00    +0.000 A 
ATOM     26  C   UNL     1       2.113   4.763  17.865  0.00  0.00    +0.000 A 
ATOM     27  C   UNL     1       1.439   3.543  17.758  0.00  0.00    +0.000 A 
ATOM     28  C   UNL     1       0.991   2.903  18.908  0.00  0.00    +0.000 A 
ATOM     29  F   UNL     1       0.366   1.722  18.803  0.00  0.00    +0.000 F 
ATOM     30  C   UNL     1       1.198   3.477  20.154  0.00  0.00    +0.000 A 
ATOM     31  F   UNL     1       0.771   2.856  21.263  0.00  0.00    +0.000 F 
ATOM     32  C   UNL     1       1.865   4.695  20.271  0.00  0.00    +0.000 A 
ENDBRANCH  24  25
ENDBRANCH  22  24
ENDBRANCH  19  21
ENDBRANCH  18  19
ENDBRANCH   1  18
TORSDOF 6
ENDMDL
