MODEL 1
REMARK VINA RESULT:      -7.4      0.000      0.000
REMARK  Name = 
REMARK  5 active torsions:
REMARK  status: ('A' for Active; 'I' for Inactive)
REMARK    1  A    between atoms: N_1  and  N_2
REMARK    2  A    between atoms: C_3  and  C_5
REMARK    3  A    between atoms: C_9  and  O_10
REMARK    4  A    between atoms: O_10  and  C_11
REMARK    5  A    between atoms: C_11  and  C_12
REMARK                            x       y       z     vdW  Elec       q    Type
REMARK                         _______ _______ _______ _____ _____    ______ ____
ROOT
ATOM      1  C   UNL     1       5.518   4.961  17.450  0.00  0.00    +0.000 A 
ATOM      2  S   UNL     1       6.284   4.162  16.125  0.00  0.00    +0.000 S 
ATOM      3  C   UNL     1       5.856   5.389  15.029  0.00  0.00    +0.000 A 
ATOM      4  C   UNL     1       5.132   6.388  15.636  0.00  0.00    +0.000 A 
ATOM      5  C   UNL     1       4.905   6.135  17.029  0.00  0.00    +0.000 A 
ENDROOT
BRANCH   1   7
ATOM      6  N   UNL     1       4.963   3.083  18.859  0.00  0.00    +0.000 N 
ATOM      7  C   UNL     1       5.612   4.320  18.755  0.00  0.00    +0.000 C 
ATOM      8  O   UNL     1       6.191   4.800  19.734  0.00  0.00    +0.000 OA
ATOM      9  H   UNL     1       4.552   2.685  18.018  0.00  0.00    +0.000 HD
BRANCH   6  10
ATOM     10  N   UNL     1       5.104   2.300  20.028  0.00  0.00    +0.000 NA
ATOM     11  H   UNL     1       4.562   1.441  19.926  0.00  0.00    +0.000 HD
ATOM     12  H   UNL     1       4.657   2.823  20.794  0.00  0.00    +0.000 HD
ENDBRANCH   6  10
ENDBRANCH   1   7
BRANCH   5  13
ATOM     13  O   UNL     1       4.213   6.928  17.905  0.00  0.00    +0.000 OA
BRANCH  13  14
ATOM     14  C   UNL     1       2.790   6.747  17.838  0.00  0.00    +0.000 C 
BRANCH  14  15
ATOM     15  C   UNL     1       2.285   5.582  18.663  0.00  0.00    +0.000 A 
ATOM     16  C   UNL     1       2.367   5.676  20.068  0.00  0.00    +0.000 A 
ATOM     17  C   UNL     1       1.892   4.648  20.882  0.00  0.00    +0.000 A 
ATOM     18  C   UNL     1       1.326   3.525  20.297  0.00  0.00    +0.000 A 
ATOM     19  F   UNL     1       0.868   2.537  21.077  0.00  0.00    +0.000 F 
ATOM     20  C   UNL     1       1.221   3.415  18.915  0.00  0.00    +0.000 A 
ATOM     21  C   UNL     1       1.694   4.445  18.096  0.00  0.00    +0.000 A 
ENDBRANCH  14  15
ENDBRANCH  13  14
ENDBRANCH   5  13
TORSDOF 5
ENDMDL
MODEL 2
REMARK VINA RESULT:      -7.4      0.498      1.238
REMARK  Name = 
REMARK  5 active torsions:
REMARK  status: ('A' for Active; 'I' for Inactive)
REMARK    1  A    between atoms: N_1  and  N_2
REMARK    2  A    between atoms: C_3  and  C_5
REMARK    3  A    between atoms: C_9  and  O_10
REMARK    4  A    between atoms: O_10  and  C_11
REMARK    5  A    between atoms: C_11  and  C_12
REMARK                            x       y       z     vdW  Elec       q    Type
REMARK                         _______ _______ _______ _____ _____    ______ ____
ROOT
ATOM      1  C   UNL     1       5.566   4.944  17.574  0.00  0.00    +0.000 A 
ATOM      2  S   UNL     1       6.607   4.408  16.305  0.00  0.00    +0.000 S 
ATOM      3  C   UNL     1       6.034   5.587  15.223  0.00  0.00    +0.000 A 
ATOM      4  C   UNL     1       5.060   6.375  15.792  0.00  0.00    +0.000 A 
ATOM      5  C   UNL     1       4.760   5.991  17.141  0.00  0.00    +0.000 A 
ENDROOT
BRANCH   1   7
ATOM      6  N   UNL     1       4.968   3.044  18.935  0.00  0.00    +0.000 N 
ATOM      7  C   UNL     1       5.670   4.253  18.853  0.00  0.00    +0.000 C 
ATOM      8  O   UNL     1       6.300   4.672  19.828  0.00  0.00    +0.000 OA
ATOM      9  H   UNL     1       4.513   2.695  18.094  0.00  0.00    +0.000 HD
BRANCH   6  10
ATOM     10  N   UNL     1       5.107   2.215  20.072  0.00  0.00    +0.000 NA
ATOM     11  H   UNL     1       4.422   1.460  20.024  0.00  0.00    +0.000 HD
ATOM     12  H   UNL     1       4.843   2.781  20.890  0.00  0.00    +0.000 HD
ENDBRANCH   6  10
ENDBRANCH   1   7
BRANCH   5  13
ATOM     13  O   UNL     1       3.836   6.566  17.971  0.00  0.00    +0.000 OA
BRANCH  13  14
ATOM     14  C   UNL     1       2.518   6.014  17.827  0.00  0.00    +0.000 C 
BRANCH  14  15
ATOM     15  C   UNL     1       2.118   5.089  18.958  0.00  0.00    +0.000 A 
ATOM     16  C   UNL     1       1.412   3.912  18.638  0.00  0.00    +0.000 A 
ATOM     17  C   UNL     1       1.042   3.007  19.632  0.00  0.00    +0.000 A 
ATOM     18  C   UNL     1       1.383   3.271  20.951  0.00  0.00    +0.000 A 
ATOM     19  F   UNL     1       1.030   2.402  21.907  0.00  0.00    +0.000 F 
ATOM     20  C   UNL     1       2.091   4.418  21.290  0.00  0.00    +0.000 A 
ATOM     21  C   UNL     1       2.466   5.325  20.295  0.00  0.00    +0.000 A 
ENDBRANCH  14  15
ENDBRANCH  13  14
ENDBRANCH   5  13
TORSDOF 5
ENDMDL
MODEL 3
REMARK VINA RESULT:      -7.3      1.652      1.671
REMARK  Name = 
REMARK  5 active torsions:
REMARK  status: ('A' for Active; 'I' for Inactive)
REMARK    1  A    between atoms: N_1  and  N_2
REMARK    2  A    between atoms: C_3  and  C_5
REMARK    3  A    between atoms: C_9  and  O_10
REMARK    4  A    between atoms: O_10  and  C_11
REMARK    5  A    between atoms: C_11  and  C_12
REMARK                            x       y       z     vdW  Elec       q    Type
REMARK                         _______ _______ _______ _____ _____    ______ ____
ROOT
ATOM      1  C   UNL     1       6.671   5.158  16.925  0.00  0.00    +0.000 A 
ATOM      2  S   UNL     1       7.037   4.421  15.406  0.00  0.00    +0.000 S 
ATOM      3  C   UNL     1       5.720   5.166  14.632  0.00  0.00    +0.000 A 
ATOM      4  C   UNL     1       4.995   5.953  15.497  0.00  0.00    +0.000 A 
ATOM      5  C   UNL     1       5.519   5.930  16.833  0.00  0.00    +0.000 A 
ENDROOT
BRANCH   1   7
ATOM      6  N   UNL     1       7.312   5.585  19.211  0.00  0.00    +0.000 N 
ATOM      7  C   UNL     1       7.573   4.873  18.034  0.00  0.00    +0.000 C 
ATOM      8  O   UNL     1       8.523   4.087  17.981  0.00  0.00    +0.000 OA
ATOM      9  H   UNL     1       6.484   6.176  19.242  0.00  0.00    +0.000 HD
BRANCH   6  10
ATOM     10  N   UNL     1       8.027   5.291  20.395  0.00  0.00    +0.000 NA
ATOM     11  H   UNL     1       7.370   5.193  21.170  0.00  0.00    +0.000 HD
ATOM     12  H   UNL     1       8.596   6.120  20.615  0.00  0.00    +0.000 HD
ENDBRANCH   6  10
ENDBRANCH   1   7
BRANCH   5  13
ATOM     13  O   UNL     1       5.021   6.594  17.921  0.00  0.00    +0.000 OA
BRANCH  13  14
ATOM     14  C   UNL     1       3.601   6.805  17.860  0.00  0.00    +0.000 C 
BRANCH  14  15
ATOM     15  C   UNL     1       2.794   5.716  18.535  0.00  0.00    +0.000 A 
ATOM     16  C   UNL     1       2.671   5.752  19.939  0.00  0.00    +0.000 A 
ATOM     17  C   UNL     1       1.917   4.794  20.615  0.00  0.00    +0.000 A 
ATOM     18  C   UNL     1       1.274   3.800  19.890  0.00  0.00    +0.000 A 
ATOM     19  F   UNL     1       0.548   2.879  20.537  0.00  0.00    +0.000 F 
ATOM     20  C   UNL     1       1.369   3.752  18.504  0.00  0.00    +0.000 A 
ATOM     21  C   UNL     1       2.122   4.713  17.824  0.00  0.00    +0.000 A 
ENDBRANCH  14  15
ENDBRANCH  13  14
ENDBRANCH   5  13
TORSDOF 5
ENDMDL
MODEL 4
REMARK VINA RESULT:      -7.3      1.434      1.837
REMARK  Name = 
REMARK  5 active torsions:
REMARK  status: ('A' for Active; 'I' for Inactive)
REMARK    1  A    between atoms: N_1  and  N_2
REMARK    2  A    between atoms: C_3  and  C_5
REMARK    3  A    between atoms: C_9  and  O_10
REMARK    4  A    between atoms: O_10  and  C_11
REMARK    5  A    between atoms: C_11  and  C_12
REMARK                            x       y       z     vdW  Elec       q    Type
REMARK                         _______ _______ _______ _____ _____    ______ ____
ROOT
ATOM      1  C   UNL     1       6.064   5.424  17.567  0.00  0.00    +0.000 A 
ATOM      2  S   UNL     1       6.812   4.474  16.334  0.00  0.00    +0.000 S 
ATOM      3  C   UNL     1       6.011   5.309  15.088  0.00  0.00    +0.000 A 
ATOM      4  C   UNL     1       5.176   6.285  15.580  0.00  0.00    +0.000 A 
ATOM      5  C   UNL     1       5.175   6.339  17.014  0.00  0.00    +0.000 A 
ENDROOT
BRANCH   1   7
ATOM      6  N   UNL     1       7.771   5.448  19.272  0.00  0.00    +0.000 N 
ATOM      7  C   UNL     1       6.444   5.140  18.945  0.00  0.00    +0.000 C 
ATOM      8  O   UNL     1       5.696   4.646  19.792  0.00  0.00    +0.000 OA
ATOM      9  H   UNL     1       8.343   5.914  18.571  0.00  0.00    +0.000 HD
BRANCH   6  10
ATOM     10  N   UNL     1       8.216   5.351  20.611  0.00  0.00    +0.000 NA
ATOM     11  H   UNL     1       9.235   5.403  20.632  0.00  0.00    +0.000 HD
ATOM     12  H   UNL     1       7.978   4.404  20.937  0.00  0.00    +0.000 HD
ENDBRANCH   6  10
ENDBRANCH   1   7
BRANCH   5  13
ATOM     13  O   UNL     1       4.446   7.187  17.802  0.00  0.00    +0.000 OA
BRANCH  13  14
ATOM     14  C   UNL     1       3.027   7.043  17.635  0.00  0.00    +0.000 C 
BRANCH  14  15
ATOM     15  C   UNL     1       2.419   5.957  18.497  0.00  0.00    +0.000 A 
ATOM     16  C   UNL     1       1.946   4.790  17.863  0.00  0.00    +0.000 A 
ATOM     17  C   UNL     1       1.402   3.743  18.605  0.00  0.00    +0.000 A 
ATOM     18  C   UNL     1       1.337   3.852  19.987  0.00  0.00    +0.000 A 
ATOM     19  F   UNL     1       0.817   2.846  20.702  0.00  0.00    +0.000 F 
ATOM     20  C   UNL     1       1.810   4.986  20.637  0.00  0.00    +0.000 A 
ATOM     21  C   UNL     1       2.358   6.037  19.895  0.00  0.00    +0.000 A 
ENDBRANCH  14  15
ENDBRANCH  13  14
ENDBRANCH   5  13
TORSDOF 5
ENDMDL
MODEL 5
REMARK VINA RESULT:      -7.2      1.697      1.697
REMARK  Name = 
REMARK  5 active torsions:
REMARK  status: ('A' for Active; 'I' for Inactive)
REMARK    1  A    between atoms: N_1  and  N_2
REMARK    2  A    between atoms: C_3  and  C_5
REMARK    3  A    between atoms: C_9  and  O_10
REMARK    4  A    between atoms: O_10  and  C_11
REMARK    5  A    between atoms: C_11  and  C_12
REMARK                            x       y       z     vdW  Elec       q    Type
REMARK                         _______ _______ _______ _____ _____    ______ ____
ROOT
ATOM      1  C   UNL     1       6.593   5.626  17.493  0.00  0.00    +0.000 A 
ATOM      2  S   UNL     1       7.341   4.716  16.229  0.00  0.00    +0.000 S 
ATOM      3  C   UNL     1       5.925   4.700  15.288  0.00  0.00    +0.000 A 
ATOM      4  C   UNL     1       4.889   5.356  15.911  0.00  0.00    +0.000 A 
ATOM      5  C   UNL     1       5.256   5.868  17.200  0.00  0.00    +0.000 A 
ENDROOT
BRANCH   1   7
ATOM      6  N   UNL     1       7.321   5.133  19.740  0.00  0.00    +0.000 N 
ATOM      7  C   UNL     1       7.426   5.985  18.633  0.00  0.00    +0.000 C 
ATOM      8  O   UNL     1       8.169   6.970  18.677  0.00  0.00    +0.000 OA
ATOM      9  H   UNL     1       6.750   4.295  19.648  0.00  0.00    +0.000 HD
BRANCH   6  10
ATOM     10  N   UNL     1       8.183   5.295  20.849  0.00  0.00    +0.000 NA
ATOM     11  H   UNL     1       8.800   6.091  20.683  0.00  0.00    +0.000 HD
ATOM     12  H   UNL     1       8.794   4.468  20.876  0.00  0.00    +0.000 HD
ENDBRANCH   6  10
ENDBRANCH   1   7
BRANCH   5  13
ATOM     13  O   UNL     1       4.452   6.554  18.069  0.00  0.00    +0.000 OA
BRANCH  13  14
ATOM     14  C   UNL     1       3.051   6.323  17.855  0.00  0.00    +0.000 C 
BRANCH  14  15
ATOM     15  C   UNL     1       2.454   5.290  18.789  0.00  0.00    +0.000 A 
ATOM     16  C   UNL     1       2.629   5.467  20.176  0.00  0.00    +0.000 A 
ATOM     17  C   UNL     1       2.079   4.566  21.087  0.00  0.00    +0.000 A 
ATOM     18  C   UNL     1       1.344   3.488  20.615  0.00  0.00    +0.000 A 
ATOM     19  F   UNL     1       0.813   2.623  21.489  0.00  0.00    +0.000 F 
ATOM     20  C   UNL     1       1.145   3.300  19.253  0.00  0.00    +0.000 A 
ATOM     21  C   UNL     1       1.694   4.204  18.338  0.00  0.00    +0.000 A 
ENDBRANCH  14  15
ENDBRANCH  13  14
ENDBRANCH   5  13
TORSDOF 5
ENDMDL
MODEL 6
REMARK VINA RESULT:      -7.2      1.734      2.076
REMARK  Name = 
REMARK  5 active torsions:
REMARK  status: ('A' for Active; 'I' for Inactive)
REMARK    1  A    between atoms: N_1  and  N_2
REMARK    2  A    between atoms: C_3  and  C_5
REMARK    3  A    between atoms: C_9  and  O_10
REMARK    4  A    between atoms: O_10  and  C_11
REMARK    5  A    between atoms: C_11  and  C_12
REMARK                            x       y       z     vdW  Elec       q    Type
REMARK                         _______ _______ _______ _____ _____    ______ ____
ROOT
ATOM      1  C   UNL     1       6.494   5.455  17.386  0.00  0.00    +0.000 A 
ATOM      2  S   UNL     1       7.270   4.573  16.120  0.00  0.00    +0.000 S 
ATOM      3  C   UNL     1       5.830   4.421  15.230  0.00  0.00    +0.000 A 
ATOM      4  C   UNL     1       4.766   5.010  15.872  0.00  0.00    +0.000 A 
ATOM      5  C   UNL     1       5.133   5.583  17.134  0.00  0.00    +0.000 A 
ENDROOT
BRANCH   1   7
ATOM      6  N   UNL     1       7.304   5.100  19.631  0.00  0.00    +0.000 N 
ATOM      7  C   UNL     1       7.332   5.909  18.488  0.00  0.00    +0.000 C 
ATOM      8  O   UNL     1       8.017   6.936  18.471  0.00  0.00    +0.000 OA
ATOM      9  H   UNL     1       6.781   4.228  19.589  0.00  0.00    +0.000 HD
BRANCH   6  10
ATOM     10  N   UNL     1       8.182   5.359  20.709  0.00  0.00    +0.000 NA
ATOM     11  H   UNL     1       7.918   4.778  21.505  0.00  0.00    +0.000 HD
ATOM     12  H   UNL     1       8.016   6.330  21.004  0.00  0.00    +0.000 HD
ENDBRANCH   6  10
ENDBRANCH   1   7
BRANCH   5  13
ATOM     13  O   UNL     1       4.305   6.227  18.014  0.00  0.00    +0.000 OA
BRANCH  13  14
ATOM     14  C   UNL     1       2.920   5.887  17.848  0.00  0.00    +0.000 C 
BRANCH  14  15
ATOM     15  C   UNL     1       2.370   5.014  18.957  0.00  0.00    +0.000 A 
ATOM     16  C   UNL     1       1.517   3.949  18.604  0.00  0.00    +0.000 A 
ATOM     17  C   UNL     1       1.002   3.093  19.577  0.00  0.00    +0.000 A 
ATOM     18  C   UNL     1       1.344   3.292  20.907  0.00  0.00    +0.000 A 
ATOM     19  F   UNL     1       0.852   2.470  21.843  0.00  0.00    +0.000 F 
ATOM     20  C   UNL     1       2.195   4.327  21.278  0.00  0.00    +0.000 A 
ATOM     21  C   UNL     1       2.714   5.185  20.304  0.00  0.00    +0.000 A 
ENDBRANCH  14  15
ENDBRANCH  13  14
ENDBRANCH   5  13
TORSDOF 5
ENDMDL
MODEL 7
REMARK VINA RESULT:      -7.1      3.461      5.273
REMARK  Name = 
REMARK  5 active torsions:
REMARK  status: ('A' for Active; 'I' for Inactive)
REMARK    1  A    between atoms: N_1  and  N_2
REMARK    2  A    between atoms: C_3  and  C_5
REMARK    3  A    between atoms: C_9  and  O_10
REMARK    4  A    between atoms: O_10  and  C_11
REMARK    5  A    between atoms: C_11  and  C_12
REMARK                            x       y       z     vdW  Elec       q    Type
REMARK                         _______ _______ _______ _____ _____    ______ ____
ROOT
ATOM      1  C   UNL     1       2.953   3.078  19.521  0.00  0.00    +0.000 A 
ATOM      2  S   UNL     1       1.279   3.486  19.639  0.00  0.00    +0.000 S 
ATOM      3  C   UNL     1       1.234   4.108  18.057  0.00  0.00    +0.000 A 
ATOM      4  C   UNL     1       2.461   4.028  17.440  0.00  0.00    +0.000 A 
ATOM      5  C   UNL     1       3.469   3.463  18.290  0.00  0.00    +0.000 A 
ENDROOT
BRANCH   1   7
ATOM      6  N   UNL     1       4.803   1.829  20.438  0.00  0.00    +0.000 N 
ATOM      7  C   UNL     1       3.559   2.427  20.676  0.00  0.00    +0.000 C 
ATOM      8  O   UNL     1       3.043   2.362  21.796  0.00  0.00    +0.000 OA
ATOM      9  H   UNL     1       5.230   1.956  19.523  0.00  0.00    +0.000 HD
BRANCH   6  10
ATOM     10  N   UNL     1       5.553   1.293  21.511  0.00  0.00    +0.000 NA
ATOM     11  H   UNL     1       5.211   0.355  21.726  0.00  0.00    +0.000 HD
ATOM     12  H   UNL     1       5.341   1.865  22.340  0.00  0.00    +0.000 HD
ENDBRANCH   6  10
ENDBRANCH   1   7
BRANCH   5  13
ATOM     13  O   UNL     1       4.786   3.261  17.977  0.00  0.00    +0.000 OA
BRANCH  13  14
ATOM     14  C   UNL     1       5.262   4.119  16.928  0.00  0.00    +0.000 C 
BRANCH  14  15
ATOM     15  C   UNL     1       6.166   5.232  17.415  0.00  0.00    +0.000 A 
ATOM     16  C   UNL     1       7.036   4.960  18.490  0.00  0.00    +0.000 A 
ATOM     17  C   UNL     1       7.913   5.936  18.964  0.00  0.00    +0.000 A 
ATOM     18  C   UNL     1       7.930   7.185  18.360  0.00  0.00    +0.000 A 
ATOM     19  F   UNL     1       8.773   8.122  18.812  0.00  0.00    +0.000 F 
ATOM     20  C   UNL     1       7.092   7.472  17.289  0.00  0.00    +0.000 A 
ATOM     21  C   UNL     1       6.214   6.495  16.810  0.00  0.00    +0.000 A 
ENDBRANCH  14  15
ENDBRANCH  13  14
ENDBRANCH   5  13
TORSDOF 5
ENDMDL
MODEL 8
REMARK VINA RESULT:      -7.1      2.497      3.333
REMARK  Name = 
REMARK  5 active torsions:
REMARK  status: ('A' for Active; 'I' for Inactive)
REMARK    1  A    between atoms: N_1  and  N_2
REMARK    2  A    between atoms: C_3  and  C_5
REMARK    3  A    between atoms: C_9  and  O_10
REMARK    4  A    between atoms: O_10  and  C_11
REMARK    5  A    between atoms: C_11  and  C_12
REMARK                            x       y       z     vdW  Elec       q    Type
REMARK                         _______ _______ _______ _____ _____    ______ ____
ROOT
ATOM      1  C   UNL     1       6.455   4.828  16.840  0.00  0.00    +0.000 A 
ATOM      2  S   UNL     1       7.480   5.834  17.799  0.00  0.00    +0.000 S 
ATOM      3  C   UNL     1       6.601   5.519  19.219  0.00  0.00    +0.000 A 
ATOM      4  C   UNL     1       5.536   4.679  18.987  0.00  0.00    +0.000 A 
ATOM      5  C   UNL     1       5.425   4.299  17.608  0.00  0.00    +0.000 A 
ENDROOT
BRANCH   1   7
ATOM      6  N   UNL     1       6.195   3.606  14.776  0.00  0.00    +0.000 N 
ATOM      7  C   UNL     1       6.793   4.691  15.429  0.00  0.00    +0.000 C 
ATOM      8  O   UNL     1       7.563   5.436  14.816  0.00  0.00    +0.000 OA
ATOM      9  H   UNL     1       5.516   3.050  15.291  0.00  0.00    +0.000 HD
BRANCH   6  10
ATOM     10  N   UNL     1       6.333   3.452  13.377  0.00  0.00    +0.000 NA
ATOM     11  H   UNL     1       6.544   2.476  13.164  0.00  0.00    +0.000 HD
ATOM     12  H   UNL     1       7.168   3.986  13.098  0.00  0.00    +0.000 HD
ENDBRANCH   6  10
ENDBRANCH   1   7
BRANCH   5  13
ATOM     13  O   UNL     1       4.472   3.487  17.056  0.00  0.00    +0.000 OA
BRANCH  13  14
ATOM     14  C   UNL     1       3.140   4.012  17.168  0.00  0.00    +0.000 C 
BRANCH  14  15
ATOM     15  C   UNL     1       2.467   3.692  18.487  0.00  0.00    +0.000 A 
ATOM     16  C   UNL     1       2.512   2.362  18.952  0.00  0.00    +0.000 A 
ATOM     17  C   UNL     1       1.937   2.012  20.172  0.00  0.00    +0.000 A 
ATOM     18  C   UNL     1       1.320   2.991  20.938  0.00  0.00    +0.000 A 
ATOM     19  F   UNL     1       0.768   2.656  22.112  0.00  0.00    +0.000 F 
ATOM     20  C   UNL     1       1.274   4.311  20.508  0.00  0.00    +0.000 A 
ATOM     21  C   UNL     1       1.854   4.666  19.285  0.00  0.00    +0.000 A 
ENDBRANCH  14  15
ENDBRANCH  13  14
ENDBRANCH   5  13
TORSDOF 5
ENDMDL
MODEL 9
REMARK VINA RESULT:      -7.0      1.956      2.206
REMARK  Name = 
REMARK  5 active torsions:
REMARK  status: ('A' for Active; 'I' for Inactive)
REMARK    1  A    between atoms: N_1  and  N_2
REMARK    2  A    between atoms: C_3  and  C_5
REMARK    3  A    between atoms: C_9  and  O_10
REMARK    4  A    between atoms: O_10  and  C_11
REMARK    5  A    between atoms: C_11  and  C_12
REMARK                            x       y       z     vdW  Elec       q    Type
REMARK                         _______ _______ _______ _____ _____    ______ ____
ROOT
ATOM      1  C   UNL     1       6.127   4.997  17.422  0.00  0.00    +0.000 A 
ATOM      2  S   UNL     1       7.513   4.754  16.420  0.00  0.00    +0.000 S 
ATOM      3  C   UNL     1       6.574   4.606  15.011  0.00  0.00    +0.000 A 
ATOM      4  C   UNL     1       5.229   4.723  15.278  0.00  0.00    +0.000 A 
ATOM      5  C   UNL     1       4.959   4.918  16.673  0.00  0.00    +0.000 A 
ENDROOT
BRANCH   1   7
ATOM      6  N   UNL     1       7.706   5.143  19.240  0.00  0.00    +0.000 N 
ATOM      7  C   UNL     1       6.367   5.231  18.840  0.00  0.00    +0.000 C 
ATOM      8  O   UNL     1       5.486   5.472  19.670  0.00  0.00    +0.000 OA
ATOM      9  H   UNL     1       8.414   5.007  18.522  0.00  0.00    +0.000 HD
BRANCH   6  10
ATOM     10  N   UNL     1       8.081   5.489  20.559  0.00  0.00    +0.000 NA
ATOM     11  H   UNL     1       9.040   5.838  20.557  0.00  0.00    +0.000 HD
ATOM     12  H   UNL     1       8.102   4.616  21.103  0.00  0.00    +0.000 HD
ENDBRANCH   6  10
ENDBRANCH   1   7
BRANCH   5  13
ATOM     13  O   UNL     1       3.730   5.057  17.258  0.00  0.00    +0.000 OA
BRANCH  13  14
ATOM     14  C   UNL     1       2.989   3.828  17.329  0.00  0.00    +0.000 C 
BRANCH  14  15
ATOM     15  C   UNL     1       2.533   3.472  18.729  0.00  0.00    +0.000 A 
ATOM     16  C   UNL     1       1.185   3.709  19.070  0.00  0.00    +0.000 A 
ATOM     17  C   UNL     1       0.699   3.375  20.334  0.00  0.00    +0.000 A 
ATOM     18  C   UNL     1       1.555   2.796  21.260  0.00  0.00    +0.000 A 
ATOM     19  F   UNL     1       1.089   2.473  22.473  0.00  0.00    +0.000 F 
ATOM     20  C   UNL     1       2.883   2.540  20.942  0.00  0.00    +0.000 A 
ATOM     21  C   UNL     1       3.373   2.871  19.675  0.00  0.00    +0.000 A 
ENDBRANCH  14  15
ENDBRANCH  13  14
ENDBRANCH   5  13
TORSDOF 5
ENDMDL
