MODEL 1
REMARK VINA RESULT:      -8.4      0.000      0.000
REMARK  Name = 
REMARK  7 active torsions:
REMARK  status: ('A' for Active; 'I' for Inactive)
REMARK    1  A    between atoms: C_1  and  O_2
REMARK    2  A    between atoms: O_2  and  C_3
REMARK    3  A    between atoms: C_6  and  C_7
REMARK    4  A    between atoms: C_7  and  N_8
REMARK    5  A    between atoms: C_9  and  C_11
REMARK    6  A    between atoms: N_14  and  S_15
REMARK    7  A    between atoms: S_15  and  C_18
REMARK                            x       y       z     vdW  Elec       q    Type
REMARK                         _______ _______ _______ _____ _____    ______ ____
ROOT
ATOM      1  C   UNL     1       7.928   5.780  18.274  0.00  0.00    +0.000 C 
ATOM      2  C   UNL     1       7.719   4.602  17.323  0.00  0.00    +0.000 C 
ATOM      3  C   UNL     1       6.239   4.319  17.070  0.00  0.00    +0.000 C 
ATOM      4  N   UNL     1       5.495   4.093  18.342  0.00  0.00    +0.000 NA
ATOM      5  C   UNL     1       5.692   5.191  19.342  0.00  0.00    +0.000 C 
ATOM      6  C   UNL     1       7.168   5.499  19.573  0.00  0.00    +0.000 C 
ENDROOT
BRANCH   1   8
ATOM      7  N   UNL     1       8.263   8.202  18.139  0.00  0.00    +0.000 N 
ATOM      8  C   UNL     1       7.542   7.130  17.659  0.00  0.00    +0.000 C 
ATOM      9  O   UNL     1       6.644   7.254  16.835  0.00  0.00    +0.000 OA
ATOM     10  H   UNL     1       8.907   8.071  18.908  0.00  0.00    +0.000 HD
BRANCH   7  11
ATOM     11  C   UNL     1       7.967   9.564  17.744  0.00  0.00    +0.000 C 
BRANCH  11  15
ATOM     12  C   UNL     1      10.455  12.472  19.763  0.00  0.00    +0.000 A 
ATOM     13  C   UNL     1      10.040  12.682  18.449  0.00  0.00    +0.000 A 
ATOM     14  C   UNL     1       9.245  11.737  17.793  0.00  0.00    +0.000 A 
ATOM     15  C   UNL     1       8.857  10.559  18.444  0.00  0.00    +0.000 A 
ATOM     16  C   UNL     1       9.309  10.336  19.752  0.00  0.00    +0.000 A 
ATOM     17  C   UNL     1      10.101  11.287  20.410  0.00  0.00    +0.000 A 
BRANCH  12  19
ATOM     18  C   UNL     1      10.551  14.420  21.107  0.00  0.00    +0.000 C 
ATOM     19  O   UNL     1      11.229  13.465  20.297  0.00  0.00    +0.000 OA
ENDBRANCH  12  19
ENDBRANCH  11  15
ENDBRANCH   7  11
ENDBRANCH   1   8
BRANCH   4  20
ATOM     20  S   UNL     1       3.797   3.810  18.102  0.00  0.00    +0.000 S 
ATOM     21  O   UNL     1       3.457   4.108  16.728  0.00  0.00    +0.000 OA
ATOM     22  O   UNL     1       3.515   2.495  18.651  0.00  0.00    +0.000 OA
BRANCH  20  23
ATOM     23  C   UNL     1       2.972   4.984  19.114  0.00  0.00    +0.000 A 
ATOM     24  C   UNL     1       2.330   4.577  20.309  0.00  0.00    +0.000 A 
ATOM     25  C   UNL     1       1.562   5.453  21.112  0.00  0.00    +0.000 A 
ATOM     26  C   UNL     1       1.358   6.803  20.787  0.00  0.00    +0.000 A 
ATOM     27  C   UNL     1       1.964   7.259  19.590  0.00  0.00    +0.000 A 
ATOM     28  N   UNL     1       1.869   8.504  19.101  0.00  0.00    +0.000 NA
ATOM     29  S   UNL     1       2.717   8.512  17.675  0.00  0.00    +0.000 S 
ATOM     30  N   UNL     1       3.279   6.954  17.640  0.00  0.00    +0.000 NA
ATOM     31  C   UNL     1       2.795   6.332  18.727  0.00  0.00    +0.000 A 
ENDBRANCH  20  23
ENDBRANCH   4  20
TORSDOF 6
ENDMDL
MODEL 2
REMARK VINA RESULT:      -7.9      1.165      1.393
REMARK  Name = 
REMARK  7 active torsions:
REMARK  status: ('A' for Active; 'I' for Inactive)
REMARK    1  A    between atoms: C_1  and  O_2
REMARK    2  A    between atoms: O_2  and  C_3
REMARK    3  A    between atoms: C_6  and  C_7
REMARK    4  A    between atoms: C_7  and  N_8
REMARK    5  A    between atoms: C_9  and  C_11
REMARK    6  A    between atoms: N_14  and  S_15
REMARK    7  A    between atoms: S_15  and  C_18
REMARK                            x       y       z     vdW  Elec       q    Type
REMARK                         _______ _______ _______ _____ _____    ______ ____
ROOT
ATOM      1  C   UNL     1       8.008   5.814  18.470  0.00  0.00    +0.000 C 
ATOM      2  C   UNL     1       8.008   4.655  17.473  0.00  0.00    +0.000 C 
ATOM      3  C   UNL     1       6.602   4.312  16.987  0.00  0.00    +0.000 C 
ATOM      4  N   UNL     1       5.682   4.015  18.122  0.00  0.00    +0.000 NA
ATOM      5  C   UNL     1       5.666   5.093  19.163  0.00  0.00    +0.000 C 
ATOM      6  C   UNL     1       7.072   5.462  19.628  0.00  0.00    +0.000 C 
ENDROOT
BRANCH   1   8
ATOM      7  N   UNL     1       8.386   8.228  18.309  0.00  0.00    +0.000 N 
ATOM      8  C   UNL     1       7.656   7.162  17.831  0.00  0.00    +0.000 C 
ATOM      9  O   UNL     1       6.774   7.289  16.990  0.00  0.00    +0.000 OA
ATOM     10  H   UNL     1       9.015   8.097  19.090  0.00  0.00    +0.000 HD
BRANCH   7  11
ATOM     11  C   UNL     1       8.120   9.590  17.890  0.00  0.00    +0.000 C 
BRANCH  11  15
ATOM     12  C   UNL     1      10.779  12.466  19.728  0.00  0.00    +0.000 A 
ATOM     13  C   UNL     1      10.504  12.524  18.362  0.00  0.00    +0.000 A 
ATOM     14  C   UNL     1       9.653  11.587  17.766  0.00  0.00    +0.000 A 
ATOM     15  C   UNL     1       9.067  10.571  18.532  0.00  0.00    +0.000 A 
ATOM     16  C   UNL     1       9.378  10.496  19.897  0.00  0.00    +0.000 A 
ATOM     17  C   UNL     1      10.226  11.439  20.493  0.00  0.00    +0.000 A 
BRANCH  12  19
ATOM     18  C   UNL     1      11.761  14.593  19.379  0.00  0.00    +0.000 C 
ATOM     19  O   UNL     1      11.625  13.434  20.195  0.00  0.00    +0.000 OA
ENDBRANCH  12  19
ENDBRANCH  11  15
ENDBRANCH   7  11
ENDBRANCH   1   8
BRANCH   4  20
ATOM     20  S   UNL     1       4.058   3.661  17.614  0.00  0.00    +0.000 S 
ATOM     21  O   UNL     1       3.620   4.680  16.686  0.00  0.00    +0.000 OA
ATOM     22  O   UNL     1       4.044   2.264  17.218  0.00  0.00    +0.000 OA
BRANCH  20  23
ATOM     23  C   UNL     1       3.066   3.804  19.056  0.00  0.00    +0.000 A 
ATOM     24  C   UNL     1       2.619   2.646  19.736  0.00  0.00    +0.000 A 
ATOM     25  C   UNL     1       1.734   2.689  20.840  0.00  0.00    +0.000 A 
ATOM     26  C   UNL     1       1.213   3.888  21.351  0.00  0.00    +0.000 A 
ATOM     27  C   UNL     1       1.614   5.077  20.696  0.00  0.00    +0.000 A 
ATOM     28  N   UNL     1       1.211   6.314  21.021  0.00  0.00    +0.000 NA
ATOM     29  S   UNL     1       1.932   7.342  19.936  0.00  0.00    +0.000 S 
ATOM     30  N   UNL     1       2.822   6.271  19.039  0.00  0.00    +0.000 NA
ATOM     31  C   UNL     1       2.567   5.042  19.518  0.00  0.00    +0.000 A 
ENDBRANCH  20  23
ENDBRANCH   4  20
TORSDOF 6
ENDMDL
MODEL 3
REMARK VINA RESULT:      -7.7      5.998      9.300
REMARK  Name = 
REMARK  7 active torsions:
REMARK  status: ('A' for Active; 'I' for Inactive)
REMARK    1  A    between atoms: C_1  and  O_2
REMARK    2  A    between atoms: O_2  and  C_3
REMARK    3  A    between atoms: C_6  and  C_7
REMARK    4  A    between atoms: C_7  and  N_8
REMARK    5  A    between atoms: C_9  and  C_11
REMARK    6  A    between atoms: N_14  and  S_15
REMARK    7  A    between atoms: S_15  and  C_18
REMARK                            x       y       z     vdW  Elec       q    Type
REMARK                         _______ _______ _______ _____ _____    ______ ____
ROOT
ATOM      1  C   UNL     1       1.170   9.884  18.002  0.00  0.00    +0.000 C 
ATOM      2  C   UNL     1       1.748  11.249  18.372  0.00  0.00    +0.000 C 
ATOM      3  C   UNL     1       1.301  11.710  19.758  0.00  0.00    +0.000 C 
ATOM      4  N   UNL     1      -0.185  11.729  19.880  0.00  0.00    +0.000 NA
ATOM      5  C   UNL     1      -0.824  10.432  19.489  0.00  0.00    +0.000 C 
ATOM      6  C   UNL     1      -0.355   9.951  18.119  0.00  0.00    +0.000 C 
ENDROOT
BRANCH   1   8
ATOM      7  N   UNL     1       2.580   7.885  18.111  0.00  0.00    +0.000 N 
ATOM      8  C   UNL     1       1.762   8.733  18.824  0.00  0.00    +0.000 C 
ATOM      9  O   UNL     1       1.503   8.560  20.009  0.00  0.00    +0.000 OA
ATOM     10  H   UNL     1       2.666   7.994  17.110  0.00  0.00    +0.000 HD
BRANCH   7  11
ATOM     11  C   UNL     1       3.147   6.688  18.702  0.00  0.00    +0.000 C 
BRANCH  11  15
ATOM     12  C   UNL     1       5.435   4.425  15.810  0.00  0.00    +0.000 A 
ATOM     13  C   UNL     1       4.652   3.775  16.763  0.00  0.00    +0.000 A 
ATOM     14  C   UNL     1       3.922   4.506  17.705  0.00  0.00    +0.000 A 
ATOM     15  C   UNL     1       3.969   5.906  17.709  0.00  0.00    +0.000 A 
ATOM     16  C   UNL     1       4.787   6.552  16.773  0.00  0.00    +0.000 A 
ATOM     17  C   UNL     1       5.514   5.818  15.826  0.00  0.00    +0.000 A 
BRANCH  12  19
ATOM     18  C   UNL     1       6.103   4.002  13.578  0.00  0.00    +0.000 C 
ATOM     19  O   UNL     1       6.104   3.603  14.944  0.00  0.00    +0.000 OA
ENDBRANCH  12  19
ENDBRANCH  11  15
ENDBRANCH   7  11
ENDBRANCH   1   8
BRANCH   4  20
ATOM     20  S   UNL     1      -0.736  12.207  21.458  0.00  0.00    +0.000 S 
ATOM     21  O   UNL     1      -0.502  11.126  22.389  0.00  0.00    +0.000 OA
ATOM     22  O   UNL     1      -0.171  13.521  21.712  0.00  0.00    +0.000 OA
BRANCH  20  23
ATOM     23  C   UNL     1      -2.475  12.408  21.313  0.00  0.00    +0.000 A 
ATOM     24  C   UNL     1      -3.064  12.679  20.054  0.00  0.00    +0.000 A 
ATOM     25  C   UNL     1      -4.442  12.954  19.887  0.00  0.00    +0.000 A 
ATOM     26  C   UNL     1      -5.346  12.993  20.960  0.00  0.00    +0.000 A 
ATOM     27  C   UNL     1      -4.806  12.746  22.245  0.00  0.00    +0.000 A 
ATOM     28  N   UNL     1      -5.501  12.759  23.392  0.00  0.00    +0.000 NA
ATOM     29  S   UNL     1      -4.411  12.450  24.604  0.00  0.00    +0.000 S 
ATOM     30  N   UNL     1      -3.022  12.241  23.725  0.00  0.00    +0.000 NA
ATOM     31  C   UNL     1      -3.334  12.443  22.435  0.00  0.00    +0.000 A 
ENDBRANCH  20  23
ENDBRANCH   4  20
TORSDOF 6
ENDMDL
MODEL 4
REMARK VINA RESULT:      -7.7      1.671      2.275
REMARK  Name = 
REMARK  7 active torsions:
REMARK  status: ('A' for Active; 'I' for Inactive)
REMARK    1  A    between atoms: C_1  and  O_2
REMARK    2  A    between atoms: O_2  and  C_3
REMARK    3  A    between atoms: C_6  and  C_7
REMARK    4  A    between atoms: C_7  and  N_8
REMARK    5  A    between atoms: C_9  and  C_11
REMARK    6  A    between atoms: N_14  and  S_15
REMARK    7  A    between atoms: S_15  and  C_18
REMARK                            x       y       z     vdW  Elec       q    Type
REMARK                         _______ _______ _______ _____ _____    ______ ____
ROOT
ATOM      1  C   UNL     1       7.977   5.878  18.338  0.00  0.00    +0.000 C 
ATOM      2  C   UNL     1       7.975   4.715  17.347  0.00  0.00    +0.000 C 
ATOM      3  C   UNL     1       6.569   4.382  16.851  0.00  0.00    +0.000 C 
ATOM      4  N   UNL     1       5.638   4.098  17.980  0.00  0.00    +0.000 NA
ATOM      5  C   UNL     1       5.623   5.180  19.017  0.00  0.00    +0.000 C 
ATOM      6  C   UNL     1       7.028   5.539  19.491  0.00  0.00    +0.000 C 
ENDROOT
BRANCH   1   8
ATOM      7  N   UNL     1       8.351   8.294  18.195  0.00  0.00    +0.000 N 
ATOM      8  C   UNL     1       7.641   7.227  17.691  0.00  0.00    +0.000 C 
ATOM      9  O   UNL     1       6.786   7.353  16.822  0.00  0.00    +0.000 OA
ATOM     10  H   UNL     1       8.955   8.163  18.996  0.00  0.00    +0.000 HD
BRANCH   7  11
ATOM     11  C   UNL     1       8.094   9.656  17.771  0.00  0.00    +0.000 C 
BRANCH  11  15
ATOM     12  C   UNL     1      10.603  12.543  19.794  0.00  0.00    +0.000 A 
ATOM     13  C   UNL     1      10.254  12.719  18.456  0.00  0.00    +0.000 A 
ATOM     14  C   UNL     1       9.452  11.780  17.799  0.00  0.00    +0.000 A 
ATOM     15  C   UNL     1       8.991  10.643  18.474  0.00  0.00    +0.000 A 
ATOM     16  C   UNL     1       9.376  10.453  19.809  0.00  0.00    +0.000 A 
ATOM     17  C   UNL     1      10.175  11.398  20.467  0.00  0.00    +0.000 A 
BRANCH  12  19
ATOM     18  C   UNL     1      11.629  14.656  19.493  0.00  0.00    +0.000 C 
ATOM     19  O   UNL     1      11.390  13.527  20.326  0.00  0.00    +0.000 OA
ENDBRANCH  12  19
ENDBRANCH  11  15
ENDBRANCH   7  11
ENDBRANCH   1   8
BRANCH   4  20
ATOM     20  S   UNL     1       4.015   3.756  17.461  0.00  0.00    +0.000 S 
ATOM     21  O   UNL     1       3.734   4.510  16.259  0.00  0.00    +0.000 OA
ATOM     22  O   UNL     1       3.877   2.310  17.460  0.00  0.00    +0.000 OA
BRANCH  20  23
ATOM     23  C   UNL     1       2.969   4.377  18.727  0.00  0.00    +0.000 A 
ATOM     24  C   UNL     1       2.518   5.718  18.691  0.00  0.00    +0.000 A 
ATOM     25  C   UNL     1       1.761   6.309  19.731  0.00  0.00    +0.000 A 
ATOM     26  C   UNL     1       1.401   5.617  20.899  0.00  0.00    +0.000 A 
ATOM     27  C   UNL     1       1.843   4.275  20.994  0.00  0.00    +0.000 A 
ATOM     28  N   UNL     1       1.619   3.459  22.035  0.00  0.00    +0.000 NA
ATOM     29  S   UNL     1       2.369   2.024  21.674  0.00  0.00    +0.000 S 
ATOM     30  N   UNL     1       2.969   2.359  20.166  0.00  0.00    +0.000 NA
ATOM     31  C   UNL     1       2.647   3.631  19.883  0.00  0.00    +0.000 A 
ENDBRANCH  20  23
ENDBRANCH   4  20
TORSDOF 6
ENDMDL
MODEL 5
REMARK VINA RESULT:      -7.5      4.858      7.540
REMARK  Name = 
REMARK  7 active torsions:
REMARK  status: ('A' for Active; 'I' for Inactive)
REMARK    1  A    between atoms: C_1  and  O_2
REMARK    2  A    between atoms: O_2  and  C_3
REMARK    3  A    between atoms: C_6  and  C_7
REMARK    4  A    between atoms: C_7  and  N_8
REMARK    5  A    between atoms: C_9  and  C_11
REMARK    6  A    between atoms: N_14  and  S_15
REMARK    7  A    between atoms: S_15  and  C_18
REMARK                            x       y       z     vdW  Elec       q    Type
REMARK                         _______ _______ _______ _____ _____    ______ ____
ROOT
ATOM      1  C   UNL     1       1.010   4.856  20.517  0.00  0.00    +0.000 C 
ATOM      2  C   UNL     1       1.692   3.850  21.443  0.00  0.00    +0.000 C 
ATOM      3  C   UNL     1       3.008   3.333  20.864  0.00  0.00    +0.000 C 
ATOM      4  N   UNL     1       2.820   2.741  19.509  0.00  0.00    +0.000 NA
ATOM      5  C   UNL     1       2.114   3.659  18.559  0.00  0.00    +0.000 C 
ATOM      6  C   UNL     1       0.815   4.204  19.146  0.00  0.00    +0.000 C 
ENDROOT
BRANCH   1   8
ATOM      7  N   UNL     1       1.241   7.190  21.221  0.00  0.00    +0.000 N 
ATOM      8  C   UNL     1       1.754   6.193  20.421  0.00  0.00    +0.000 C 
ATOM      9  O   UNL     1       2.705   6.372  19.670  0.00  0.00    +0.000 OA
ATOM     10  H   UNL     1       0.381   7.034  21.730  0.00  0.00    +0.000 HD
BRANCH   7  11
ATOM     11  C   UNL     1       1.757   8.544  21.185  0.00  0.00    +0.000 C 
BRANCH  11  15
ATOM     12  C   UNL     1      -1.154  11.460  22.507  0.00  0.00    +0.000 A 
ATOM     13  C   UNL     1      -0.934  10.293  23.238  0.00  0.00    +0.000 A 
ATOM     14  C   UNL     1      -0.001   9.346  22.804  0.00  0.00    +0.000 A 
ATOM     15  C   UNL     1       0.724   9.551  21.624  0.00  0.00    +0.000 A 
ATOM     16  C   UNL     1       0.471  10.708  20.874  0.00  0.00    +0.000 A 
ATOM     17  C   UNL     1      -0.460  11.659  21.313  0.00  0.00    +0.000 A 
BRANCH  12  19
ATOM     18  C   UNL     1      -3.160  12.671  22.164  0.00  0.00    +0.000 C 
ATOM     19  O   UNL     1      -2.090  12.309  23.030  0.00  0.00    +0.000 OA
ENDBRANCH  12  19
ENDBRANCH  11  15
ENDBRANCH   7  11
ENDBRANCH   1   8
BRANCH   4  20
ATOM     20  S   UNL     1       4.302   2.179  18.795  0.00  0.00    +0.000 S 
ATOM     21  O   UNL     1       5.289   1.995  19.836  0.00  0.00    +0.000 OA
ATOM     22  O   UNL     1       3.948   1.070  17.926  0.00  0.00    +0.000 OA
BRANCH  20  23
ATOM     23  C   UNL     1       4.861   3.488  17.767  0.00  0.00    +0.000 A 
ATOM     24  C   UNL     1       4.467   3.551  16.408  0.00  0.00    +0.000 A 
ATOM     25  C   UNL     1       4.965   4.518  15.502  0.00  0.00    +0.000 A 
ATOM     26  C   UNL     1       5.903   5.495  15.871  0.00  0.00    +0.000 A 
ATOM     27  C   UNL     1       6.345   5.466  17.216  0.00  0.00    +0.000 A 
ATOM     28  N   UNL     1       7.249   6.299  17.752  0.00  0.00    +0.000 NA
ATOM     29  S   UNL     1       7.442   5.827  19.331  0.00  0.00    +0.000 S 
ATOM     30  N   UNL     1       6.356   4.579  19.416  0.00  0.00    +0.000 NA
ATOM     31  C   UNL     1       5.813   4.440  18.196  0.00  0.00    +0.000 A 
ENDBRANCH  20  23
ENDBRANCH   4  20
TORSDOF 6
ENDMDL
MODEL 6
REMARK VINA RESULT:      -7.5      6.573     10.662
REMARK  Name = 
REMARK  7 active torsions:
REMARK  status: ('A' for Active; 'I' for Inactive)
REMARK    1  A    between atoms: C_1  and  O_2
REMARK    2  A    between atoms: O_2  and  C_3
REMARK    3  A    between atoms: C_6  and  C_7
REMARK    4  A    between atoms: C_7  and  N_8
REMARK    5  A    between atoms: C_9  and  C_11
REMARK    6  A    between atoms: N_14  and  S_15
REMARK    7  A    between atoms: S_15  and  C_18
REMARK                            x       y       z     vdW  Elec       q    Type
REMARK                         _______ _______ _______ _____ _____    ______ ____
ROOT
ATOM      1  C   UNL     1      -0.648  10.940  20.263  0.00  0.00    +0.000 C 
ATOM      2  C   UNL     1      -0.115  11.352  18.891  0.00  0.00    +0.000 C 
ATOM      3  C   UNL     1       1.031  12.356  18.994  0.00  0.00    +0.000 C 
ATOM      4  N   UNL     1       0.640  13.562  19.778  0.00  0.00    +0.000 NA
ATOM      5  C   UNL     1       0.065  13.229  21.121  0.00  0.00    +0.000 C 
ATOM      6  C   UNL     1      -1.059  12.202  21.026  0.00  0.00    +0.000 C 
ENDROOT
BRANCH   1   8
ATOM      7  N   UNL     1       0.777   8.953  20.397  0.00  0.00    +0.000 N 
ATOM      8  C   UNL     1       0.336  10.076  21.060  0.00  0.00    +0.000 C 
ATOM      9  O   UNL     1       0.677  10.344  22.207  0.00  0.00    +0.000 OA
ATOM     10  H   UNL     1       0.374   8.706  19.503  0.00  0.00    +0.000 HD
BRANCH   7  11
ATOM     11  C   UNL     1       1.633   7.972  21.035  0.00  0.00    +0.000 C 
BRANCH  11  15
ATOM     12  C   UNL     1       2.479   4.668  18.370  0.00  0.00    +0.000 A 
ATOM     13  C   UNL     1       1.926   4.442  19.630  0.00  0.00    +0.000 A 
ATOM     14  C   UNL     1       1.663   5.509  20.495  0.00  0.00    +0.000 A 
ATOM     15  C   UNL     1       1.957   6.824  20.112  0.00  0.00    +0.000 A 
ATOM     16  C   UNL     1       2.548   7.041  18.860  0.00  0.00    +0.000 A 
ATOM     17  C   UNL     1       2.805   5.971  17.992  0.00  0.00    +0.000 A 
BRANCH  12  19
ATOM     18  C   UNL     1       2.362   2.307  18.231  0.00  0.00    +0.000 C 
ATOM     19  O   UNL     1       2.691   3.548  17.616  0.00  0.00    +0.000 OA
ENDBRANCH  12  19
ENDBRANCH  11  15
ENDBRANCH   7  11
ENDBRANCH   1   8
BRANCH   4  20
ATOM     20  S   UNL     1       1.931  14.712  19.956  0.00  0.00    +0.000 S 
ATOM     21  O   UNL     1       1.814  15.360  21.244  0.00  0.00    +0.000 OA
ATOM     22  O   UNL     1       3.155  14.017  19.601  0.00  0.00    +0.000 OA
BRANCH  20  23
ATOM     23  C   UNL     1       1.652  15.934  18.726  0.00  0.00    +0.000 A 
ATOM     24  C   UNL     1       2.683  16.294  17.825  0.00  0.00    +0.000 A 
ATOM     25  C   UNL     1       2.556  17.342  16.882  0.00  0.00    +0.000 A 
ATOM     26  C   UNL     1       1.397  18.125  16.765  0.00  0.00    +0.000 A 
ATOM     27  C   UNL     1       0.340  17.819  17.656  0.00  0.00    +0.000 A 
ATOM     28  N   UNL     1      -0.835  18.463  17.713  0.00  0.00    +0.000 NA
ATOM     29  S   UNL     1      -1.701  17.751  18.936  0.00  0.00    +0.000 S 
ATOM     30  N   UNL     1      -0.645  16.566  19.413  0.00  0.00    +0.000 NA
ATOM     31  C   UNL     1       0.462  16.694  18.664  0.00  0.00    +0.000 A 
ENDBRANCH  20  23
ENDBRANCH   4  20
TORSDOF 6
ENDMDL
MODEL 7
REMARK VINA RESULT:      -7.4      4.242      9.049
REMARK  Name = 
REMARK  7 active torsions:
REMARK  status: ('A' for Active; 'I' for Inactive)
REMARK    1  A    between atoms: C_1  and  O_2
REMARK    2  A    between atoms: O_2  and  C_3
REMARK    3  A    between atoms: C_6  and  C_7
REMARK    4  A    between atoms: C_7  and  N_8
REMARK    5  A    between atoms: C_9  and  C_11
REMARK    6  A    between atoms: N_14  and  S_15
REMARK    7  A    between atoms: S_15  and  C_18
REMARK                            x       y       z     vdW  Elec       q    Type
REMARK                         _______ _______ _______ _____ _____    ______ ____
ROOT
ATOM      1  C   UNL     1      10.385  11.163  20.137  0.00  0.00    +0.000 C 
ATOM      2  C   UNL     1       9.302  11.612  21.117  0.00  0.00    +0.000 C 
ATOM      3  C   UNL     1       8.666  12.939  20.708  0.00  0.00    +0.000 C 
ATOM      4  N   UNL     1       9.689  14.013  20.543  0.00  0.00    +0.000 NA
ATOM      5  C   UNL     1      10.808  13.622  19.627  0.00  0.00    +0.000 C 
ATOM      6  C   UNL     1      11.424  12.281  20.012  0.00  0.00    +0.000 C 
ENDROOT
BRANCH   1   8
ATOM      7  N   UNL     1       8.832   9.788  18.835  0.00  0.00    +0.000 N 
ATOM      8  C   UNL     1       9.829  10.736  18.773  0.00  0.00    +0.000 C 
ATOM      9  O   UNL     1      10.259  11.174  17.713  0.00  0.00    +0.000 OA
ATOM     10  H   UNL     1       8.596   9.364  19.722  0.00  0.00    +0.000 HD
BRANCH   7  11
ATOM     11  C   UNL     1       8.260   9.197  17.642  0.00  0.00    +0.000 C 
BRANCH  11  15
ATOM     12  C   UNL     1       6.572   5.305  18.493  0.00  0.00    +0.000 A 
ATOM     13  C   UNL     1       7.723   5.739  19.148  0.00  0.00    +0.000 A 
ATOM     14  C   UNL     1       8.275   6.992  18.865  0.00  0.00    +0.000 A 
ATOM     15  C   UNL     1       7.682   7.831  17.912  0.00  0.00    +0.000 A 
ATOM     16  C   UNL     1       6.546   7.373  17.230  0.00  0.00    +0.000 A 
ATOM     17  C   UNL     1       5.992   6.119  17.520  0.00  0.00    +0.000 A 
BRANCH  12  19
ATOM     18  C   UNL     1       4.742   3.958  19.162  0.00  0.00    +0.000 C 
ATOM     19  O   UNL     1       6.128   4.062  18.854  0.00  0.00    +0.000 OA
ENDBRANCH  12  19
ENDBRANCH  11  15
ENDBRANCH   7  11
ENDBRANCH   1   8
BRANCH   4  20
ATOM     20  S   UNL     1       9.012  15.531  20.035  0.00  0.00    +0.000 S 
ATOM     21  O   UNL     1       8.993  16.440  21.159  0.00  0.00    +0.000 OA
ATOM     22  O   UNL     1       9.700  15.902  18.812  0.00  0.00    +0.000 OA
BRANCH  20  23
ATOM     23  C   UNL     1       7.342  15.188  19.609  0.00  0.00    +0.000 A 
ATOM     24  C   UNL     1       6.972  15.001  18.256  0.00  0.00    +0.000 A 
ATOM     25  C   UNL     1       5.631  14.827  17.838  0.00  0.00    +0.000 A 
ATOM     26  C   UNL     1       4.547  14.835  18.730  0.00  0.00    +0.000 A 
ATOM     27  C   UNL     1       4.861  15.036  20.096  0.00  0.00    +0.000 A 
ATOM     28  N   UNL     1       3.968  15.096  21.095  0.00  0.00    +0.000 NA
ATOM     29  S   UNL     1       4.834  15.381  22.481  0.00  0.00    +0.000 S 
ATOM     30  N   UNL     1       6.379  15.395  21.884  0.00  0.00    +0.000 NA
ATOM     31  C   UNL     1       6.294  15.217  20.556  0.00  0.00    +0.000 A 
ENDBRANCH  20  23
ENDBRANCH   4  20
TORSDOF 6
ENDMDL
MODEL 8
REMARK VINA RESULT:      -7.4      4.866      7.355
REMARK  Name = 
REMARK  7 active torsions:
REMARK  status: ('A' for Active; 'I' for Inactive)
REMARK    1  A    between atoms: C_1  and  O_2
REMARK    2  A    between atoms: O_2  and  C_3
REMARK    3  A    between atoms: C_6  and  C_7
REMARK    4  A    between atoms: C_7  and  N_8
REMARK    5  A    between atoms: C_9  and  C_11
REMARK    6  A    between atoms: N_14  and  S_15
REMARK    7  A    between atoms: S_15  and  C_18
REMARK                            x       y       z     vdW  Elec       q    Type
REMARK                         _______ _______ _______ _____ _____    ______ ____
ROOT
ATOM      1  C   UNL     1       1.095   4.810  20.686  0.00  0.00    +0.000 C 
ATOM      2  C   UNL     1       1.872   3.852  21.587  0.00  0.00    +0.000 C 
ATOM      3  C   UNL     1       3.146   3.337  20.919  0.00  0.00    +0.000 C 
ATOM      4  N   UNL     1       2.859   2.692  19.605  0.00  0.00    +0.000 NA
ATOM      5  C   UNL     1       2.057   3.562  18.686  0.00  0.00    +0.000 C 
ATOM      6  C   UNL     1       0.801   4.105  19.360  0.00  0.00    +0.000 C 
ENDROOT
BRANCH   1   8
ATOM      7  N   UNL     1       1.247   7.203  21.184  0.00  0.00    +0.000 N 
ATOM      8  C   UNL     1       1.800   6.156  20.482  0.00  0.00    +0.000 C 
ATOM      9  O   UNL     1       2.756   6.297  19.728  0.00  0.00    +0.000 OA
ATOM     10  H   UNL     1       0.385   7.066  21.694  0.00  0.00    +0.000 HD
BRANCH   7  11
ATOM     11  C   UNL     1       1.723   8.564  21.034  0.00  0.00    +0.000 C 
BRANCH  11  15
ATOM     12  C   UNL     1      -0.844  10.989  18.533  0.00  0.00    +0.000 A 
ATOM     13  C   UNL     1      -0.987  11.000  19.920  0.00  0.00    +0.000 A 
ATOM     14  C   UNL     1      -0.165  10.207  20.728  0.00  0.00    +0.000 A 
ATOM     15  C   UNL     1       0.814   9.385  20.155  0.00  0.00    +0.000 A 
ATOM     16  C   UNL     1       0.927   9.350  18.758  0.00  0.00    +0.000 A 
ATOM     17  C   UNL     1       0.106  10.149  17.951  0.00  0.00    +0.000 A 
BRANCH  12  19
ATOM     18  C   UNL     1      -2.507  11.174  16.857  0.00  0.00    +0.000 C 
ATOM     19  O   UNL     1      -1.705  11.804  17.851  0.00  0.00    +0.000 OA
ENDBRANCH  12  19
ENDBRANCH  11  15
ENDBRANCH   7  11
ENDBRANCH   1   8
BRANCH   4  20
ATOM     20  S   UNL     1       4.288   2.130  18.791  0.00  0.00    +0.000 S 
ATOM     21  O   UNL     1       5.327   1.893  19.768  0.00  0.00    +0.000 OA
ATOM     22  O   UNL     1       3.865   1.060  17.905  0.00  0.00    +0.000 OA
BRANCH  20  23
ATOM     23  C   UNL     1       4.814   3.466  17.779  0.00  0.00    +0.000 A 
ATOM     24  C   UNL     1       4.407   3.544  16.425  0.00  0.00    +0.000 A 
ATOM     25  C   UNL     1       4.878   4.535  15.531  0.00  0.00    +0.000 A 
ATOM     26  C   UNL     1       5.802   5.522  15.906  0.00  0.00    +0.000 A 
ATOM     27  C   UNL     1       6.257   5.478  17.247  0.00  0.00    +0.000 A 
ATOM     28  N   UNL     1       7.152   6.319  17.788  0.00  0.00    +0.000 NA
ATOM     29  S   UNL     1       7.368   5.825  19.357  0.00  0.00    +0.000 S 
ATOM     30  N   UNL     1       6.305   4.557  19.432  0.00  0.00    +0.000 NA
ATOM     31  C   UNL     1       5.753   4.428  18.215  0.00  0.00    +0.000 A 
ENDBRANCH  20  23
ENDBRANCH   4  20
TORSDOF 6
ENDMDL
MODEL 9
REMARK VINA RESULT:      -7.4      6.023      9.964
REMARK  Name = 
REMARK  7 active torsions:
REMARK  status: ('A' for Active; 'I' for Inactive)
REMARK    1  A    between atoms: C_1  and  O_2
REMARK    2  A    between atoms: O_2  and  C_3
REMARK    3  A    between atoms: C_6  and  C_7
REMARK    4  A    between atoms: C_7  and  N_8
REMARK    5  A    between atoms: C_9  and  C_11
REMARK    6  A    between atoms: N_14  and  S_15
REMARK    7  A    between atoms: S_15  and  C_18
REMARK                            x       y       z     vdW  Elec       q    Type
REMARK                         _______ _______ _______ _____ _____    ______ ____
ROOT
ATOM      1  C   UNL     1      -0.346  10.558  18.951  0.00  0.00    +0.000 C 
ATOM      2  C   UNL     1      -0.892  11.831  18.308  0.00  0.00    +0.000 C 
ATOM      3  C   UNL     1      -0.147  13.080  18.776  0.00  0.00    +0.000 C 
ATOM      4  N   UNL     1      -0.162  13.206  20.262  0.00  0.00    +0.000 NA
ATOM      5  C   UNL     1       0.320  11.972  20.961  0.00  0.00    +0.000 C 
ATOM      6  C   UNL     1      -0.398  10.718  20.473  0.00  0.00    +0.000 C 
ENDROOT
BRANCH   1   8
ATOM      7  N   UNL     1       1.259   8.830  18.292  0.00  0.00    +0.000 N 
ATOM      8  C   UNL     1       1.056  10.182  18.457  0.00  0.00    +0.000 C 
ATOM      9  O   UNL     1       1.935  11.012  18.259  0.00  0.00    +0.000 OA
ATOM     10  H   UNL     1       0.547   8.175  18.586  0.00  0.00    +0.000 HD
BRANCH   7  11
ATOM     11  C   UNL     1       2.553   8.288  17.926  0.00  0.00    +0.000 C 
BRANCH  11  15
ATOM     12  C   UNL     1       3.031   4.266  19.450  0.00  0.00    +0.000 A 
ATOM     13  C   UNL     1       2.449   5.260  20.236  0.00  0.00    +0.000 A 
ATOM     14  C   UNL     1       2.305   6.562  19.747  0.00  0.00    +0.000 A 
ATOM     15  C   UNL     1       2.749   6.892  18.460  0.00  0.00    +0.000 A 
ATOM     16  C   UNL     1       3.367   5.897  17.689  0.00  0.00    +0.000 A 
ATOM     17  C   UNL     1       3.505   4.592  18.179  0.00  0.00    +0.000 A 
BRANCH  12  19
ATOM     18  C   UNL     1       4.380   2.382  19.938  0.00  0.00    +0.000 C 
ATOM     19  O   UNL     1       3.118   3.034  20.036  0.00  0.00    +0.000 OA
ENDBRANCH  12  19
ENDBRANCH  11  15
ENDBRANCH   7  11
ENDBRANCH   1   8
BRANCH   4  20
ATOM     20  S   UNL     1       0.713  14.593  20.840  0.00  0.00    +0.000 S 
ATOM     21  O   UNL     1      -0.191  15.718  20.933  0.00  0.00    +0.000 OA
ATOM     22  O   UNL     1       1.452  14.156  22.011  0.00  0.00    +0.000 OA
BRANCH  20  23
ATOM     23  C   UNL     1       1.890  14.967  19.591  0.00  0.00    +0.000 A 
ATOM     24  C   UNL     1       3.101  14.238  19.506  0.00  0.00    +0.000 A 
ATOM     25  C   UNL     1       4.133  14.557  18.592  0.00  0.00    +0.000 A 
ATOM     26  C   UNL     1       4.051  15.634  17.696  0.00  0.00    +0.000 A 
ATOM     27  C   UNL     1       2.866  16.408  17.752  0.00  0.00    +0.000 A 
ATOM     28  N   UNL     1       2.609  17.485  16.994  0.00  0.00    +0.000 NA
ATOM     29  S   UNL     1       1.121  18.046  17.468  0.00  0.00    +0.000 S 
ATOM     30  N   UNL     1       0.719  16.923  18.618  0.00  0.00    +0.000 NA
ATOM     31  C   UNL     1       1.752  16.071  18.721  0.00  0.00    +0.000 A 
ENDBRANCH  20  23
ENDBRANCH   4  20
TORSDOF 6
ENDMDL
