MODEL 1
REMARK VINA RESULT:      -8.0      0.000      0.000
REMARK  Name = 
REMARK  8 active torsions:
REMARK  status: ('A' for Active; 'I' for Inactive)
REMARK    1  A    between atoms: C_1  and  C_2
REMARK    2  A    between atoms: C_2  and  C_3
REMARK    3  A    between atoms: C_2  and  N_12
REMARK    4  A    between atoms: C_3  and  C_4
REMARK    5  A    between atoms: C_4  and  C_5
REMARK    6  A    between atoms: C_5  and  C_6
REMARK    7  A    between atoms: C_22  and  C_23
REMARK    8  A    between atoms: N_26  and  C_27
REMARK                            x       y       z     vdW  Elec       q    Type
REMARK                         _______ _______ _______ _____ _____    ______ ____
ROOT
ATOM      1  N   UNL     1       3.886   6.436  18.594  0.00  0.00    +0.000 N 
ATOM      2  C   UNL     1       3.089   7.528  18.321  0.00  0.00    +0.000 C 
ATOM      3  O   UNL     1       3.262   8.239  17.337  0.00  0.00    +0.000 OA
ATOM      4  N   UNL     1       2.120   7.738  19.284  0.00  0.00    +0.000 N 
ATOM      5  C   UNL     1       1.268   8.854  19.174  0.00  0.00    +0.000 A 
ATOM      6  C   UNL     1       0.547   9.068  18.017  0.00  0.00    +0.000 A 
ATOM      7  C   UNL     1      -0.230  10.216  17.924  0.00  0.00    +0.000 A 
ATOM      8  C   UNL     1      -0.239  11.112  18.967  0.00  0.00    +0.000 A 
ATOM      9  N   UNL     1      -0.953  12.250  18.814  0.00  0.00    +0.000 NA
ATOM     10  C   UNL     1      -0.925  13.099  19.857  0.00  0.00    +0.000 A 
ATOM     11  C   UNL     1      -0.225  12.826  21.026  0.00  0.00    +0.000 A 
ATOM     12  N   UNL     1       0.492  11.681  21.167  0.00  0.00    +0.000 NA
ATOM     13  C   UNL     1       0.505  10.815  20.136  0.00  0.00    +0.000 A 
ATOM     14  N   UNL     1       1.205   9.669  20.250  0.00  0.00    +0.000 NA
ATOM     15  H   UNL     1       3.572   5.775  19.290  0.00  0.00    +0.000 HD
ATOM     16  H   UNL     1       2.427   7.568  20.230  0.00  0.00    +0.000 HD
ENDROOT
BRANCH  11  17
ATOM     17  C   UNL     1      -0.303  13.737  22.154  0.00  0.00    +0.000 A 
ATOM     18  C   UNL     1       0.417  14.928  22.424  0.00  0.00    +0.000 A 
ATOM     19  N   UNL     1       0.011  15.543  23.533  0.00  0.00    +0.000 NA
ATOM     20  N   UNL     1      -0.981  14.757  23.981  0.00  0.00    +0.000 N 
ATOM     21  C   UNL     1      -1.748  15.166  25.132  0.00  0.00    +0.000 C 
ATOM     22  C   UNL     1      -1.186  13.647  23.213  0.00  0.00    +0.000 A 
ENDBRANCH  11  17
BRANCH   1  24
ATOM     23  C   UNL     1       6.176   5.539  18.439  0.00  0.00    +0.000 C 
ATOM     24  C   UNL     1       4.954   6.041  17.675  0.00  0.00    +0.000 C 
BRANCH  24  25
ATOM     25  C   UNL     1       4.484   5.031  16.607  0.00  0.00    +0.000 C 
BRANCH  25  26
ATOM     26  C   UNL     1       4.360   3.588  17.108  0.00  0.00    +0.000 C 
BRANCH  26  27
ATOM     27  C   UNL     1       2.894   3.173  17.263  0.00  0.00    +0.000 C 
BRANCH  27  28
ATOM     28  C   UNL     1       2.473   3.187  18.712  0.00  0.00    +0.000 A 
ATOM     29  C   UNL     1       1.245   3.748  19.090  0.00  0.00    +0.000 A 
ATOM     30  C   UNL     1       0.880   3.811  20.436  0.00  0.00    +0.000 A 
ATOM     31  C   UNL     1       1.738   3.316  21.416  0.00  0.00    +0.000 A 
ATOM     32  C   UNL     1       2.957   2.747  21.051  0.00  0.00    +0.000 A 
ATOM     33  C   UNL     1       3.324   2.683  19.705  0.00  0.00    +0.000 A 
ENDBRANCH  27  28
ENDBRANCH  26  27
ENDBRANCH  25  26
ENDBRANCH  24  25
ENDBRANCH   1  24
TORSDOF 6
ENDMDL
MODEL 2
REMARK VINA RESULT:      -7.9      0.847      1.086
REMARK  Name = 
REMARK  8 active torsions:
REMARK  status: ('A' for Active; 'I' for Inactive)
REMARK    1  A    between atoms: C_1  and  C_2
REMARK    2  A    between atoms: C_2  and  C_3
REMARK    3  A    between atoms: C_2  and  N_12
REMARK    4  A    between atoms: C_3  and  C_4
REMARK    5  A    between atoms: C_4  and  C_5
REMARK    6  A    between atoms: C_5  and  C_6
REMARK    7  A    between atoms: C_22  and  C_23
REMARK    8  A    between atoms: N_26  and  C_27
REMARK                            x       y       z     vdW  Elec       q    Type
REMARK                         _______ _______ _______ _____ _____    ______ ____
ROOT
ATOM      1  N   UNL     1       3.510   7.105  18.222  0.00  0.00    +0.000 N 
ATOM      2  C   UNL     1       2.626   8.155  18.090  0.00  0.00    +0.000 C 
ATOM      3  O   UNL     1       2.615   8.885  17.106  0.00  0.00    +0.000 OA
ATOM      4  N   UNL     1       1.799   8.301  19.188  0.00  0.00    +0.000 N 
ATOM      5  C   UNL     1       0.883   9.369  19.226  0.00  0.00    +0.000 A 
ATOM      6  C   UNL     1      -0.010   9.558  18.191  0.00  0.00    +0.000 A 
ATOM      7  C   UNL     1      -0.851  10.663  18.235  0.00  0.00    +0.000 A 
ATOM      8  C   UNL     1      -0.754  11.544  19.286  0.00  0.00    +0.000 A 
ATOM      9  N   UNL     1      -1.540  12.643  19.261  0.00  0.00    +0.000 NA
ATOM     10  C   UNL     1      -1.404  13.480  20.305  0.00  0.00    +0.000 A 
ATOM     11  C   UNL     1      -0.527  13.231  21.353  0.00  0.00    +0.000 A 
ATOM     12  N   UNL     1       0.262  12.126  21.366  0.00  0.00    +0.000 NA
ATOM     13  C   UNL     1       0.168  11.274  20.327  0.00  0.00    +0.000 A 
ATOM     14  N   UNL     1       0.936  10.166  20.315  0.00  0.00    +0.000 NA
ATOM     15  H   UNL     1       3.336   6.419  18.943  0.00  0.00    +0.000 HD
ATOM     16  H   UNL     1       2.250   8.135  20.076  0.00  0.00    +0.000 HD
ENDROOT
BRANCH  11  17
ATOM     17  C   UNL     1      -0.486  14.123  22.499  0.00  0.00    +0.000 A 
ATOM     18  C   UNL     1       0.256  15.313  22.710  0.00  0.00    +0.000 A 
ATOM     19  N   UNL     1      -0.030  15.908  23.866  0.00  0.00    +0.000 NA
ATOM     20  N   UNL     1      -0.967  15.111  24.405  0.00  0.00    +0.000 N 
ATOM     21  C   UNL     1      -1.607  15.497  25.639  0.00  0.00    +0.000 C 
ATOM     22  C   UNL     1      -1.250  14.012  23.645  0.00  0.00    +0.000 A 
ENDBRANCH  11  17
BRANCH   1  24
ATOM     23  C   UNL     1       5.887   7.079  17.571  0.00  0.00    +0.000 C 
ATOM     24  C   UNL     1       4.451   6.779  17.150  0.00  0.00    +0.000 C 
BRANCH  24  25
ATOM     25  C   UNL     1       4.290   5.336  16.627  0.00  0.00    +0.000 C 
BRANCH  25  26
ATOM     26  C   UNL     1       4.971   4.268  17.491  0.00  0.00    +0.000 C 
BRANCH  26  27
ATOM     27  C   UNL     1       4.092   3.022  17.638  0.00  0.00    +0.000 C 
BRANCH  27  28
ATOM     28  C   UNL     1       3.013   3.234  18.671  0.00  0.00    +0.000 A 
ATOM     29  C   UNL     1       3.300   3.894  19.873  0.00  0.00    +0.000 A 
ATOM     30  C   UNL     1       2.316   4.040  20.852  0.00  0.00    +0.000 A 
ATOM     31  C   UNL     1       1.037   3.529  20.639  0.00  0.00    +0.000 A 
ATOM     32  C   UNL     1       0.738   2.879  19.443  0.00  0.00    +0.000 A 
ATOM     33  C   UNL     1       1.721   2.731  18.463  0.00  0.00    +0.000 A 
ENDBRANCH  27  28
ENDBRANCH  26  27
ENDBRANCH  25  26
ENDBRANCH  24  25
ENDBRANCH   1  24
TORSDOF 6
ENDMDL
MODEL 3
REMARK VINA RESULT:      -7.8      3.178     10.554
REMARK  Name = 
REMARK  8 active torsions:
REMARK  status: ('A' for Active; 'I' for Inactive)
REMARK    1  A    between atoms: C_1  and  C_2
REMARK    2  A    between atoms: C_2  and  C_3
REMARK    3  A    between atoms: C_2  and  N_12
REMARK    4  A    between atoms: C_3  and  C_4
REMARK    5  A    between atoms: C_4  and  C_5
REMARK    6  A    between atoms: C_5  and  C_6
REMARK    7  A    between atoms: C_22  and  C_23
REMARK    8  A    between atoms: N_26  and  C_27
REMARK                            x       y       z     vdW  Elec       q    Type
REMARK                         _______ _______ _______ _____ _____    ______ ____
ROOT
ATOM      1  N   UNL     1       0.016  11.452  20.838  0.00  0.00    +0.000 N 
ATOM      2  C   UNL     1       0.712  10.268  20.966  0.00  0.00    +0.000 C 
ATOM      3  O   UNL     1       1.355   9.990  21.972  0.00  0.00    +0.000 OA
ATOM      4  N   UNL     1       0.628   9.472  19.840  0.00  0.00    +0.000 N 
ATOM      5  C   UNL     1       1.339   8.258  19.798  0.00  0.00    +0.000 A 
ATOM      6  C   UNL     1       1.179   7.322  20.800  0.00  0.00    +0.000 A 
ATOM      7  C   UNL     1       1.949   6.167  20.756  0.00  0.00    +0.000 A 
ATOM      8  C   UNL     1       2.859   6.000  19.740  0.00  0.00    +0.000 A 
ATOM      9  N   UNL     1       3.639   4.895  19.767  0.00  0.00    +0.000 NA
ATOM     10  C   UNL     1       4.520   4.780  18.757  0.00  0.00    +0.000 A 
ATOM     11  C   UNL     1       4.618   5.720  17.739  0.00  0.00    +0.000 A 
ATOM     12  N   UNL     1       3.833   6.828  17.724  0.00  0.00    +0.000 NA
ATOM     13  C   UNL     1       2.952   6.989  18.730  0.00  0.00    +0.000 A 
ATOM     14  N   UNL     1       2.157   8.078  18.738  0.00  0.00    +0.000 NA
ATOM     15  H   UNL     1      -0.656  11.534  20.088  0.00  0.00    +0.000 HD
ATOM     16  H   UNL     1       0.659   9.978  18.967  0.00  0.00    +0.000 HD
ENDROOT
BRANCH  11  17
ATOM     17  C   UNL     1       5.525   5.499  16.626  0.00  0.00    +0.000 A 
ATOM     18  C   UNL     1       6.898   5.821  16.482  0.00  0.00    +0.000 A 
ATOM     19  N   UNL     1       7.419   5.387  15.336  0.00  0.00    +0.000 NA
ATOM     20  N   UNL     1       6.385   4.773  14.736  0.00  0.00    +0.000 N 
ATOM     21  C   UNL     1       6.598   4.074  13.492  0.00  0.00    +0.000 C 
ATOM     22  C   UNL     1       5.223   4.842  15.449  0.00  0.00    +0.000 A 
ENDBRANCH  11  17
BRANCH   1  24
ATOM     23  C   UNL     1       0.190  13.838  21.430  0.00  0.00    +0.000 C 
ATOM     24  C   UNL     1      -0.031  12.416  21.938  0.00  0.00    +0.000 C 
BRANCH  24  25
ATOM     25  C   UNL     1      -1.315  12.296  22.786  0.00  0.00    +0.000 C 
BRANCH  25  26
ATOM     26  C   UNL     1      -2.547  12.971  22.172  0.00  0.00    +0.000 C 
BRANCH  26  27
ATOM     27  C   UNL     1      -3.515  13.459  23.255  0.00  0.00    +0.000 C 
BRANCH  27  28
ATOM     28  C   UNL     1      -4.925  12.999  22.974  0.00  0.00    +0.000 A 
ATOM     29  C   UNL     1      -5.331  12.715  21.664  0.00  0.00    +0.000 A 
ATOM     30  C   UNL     1      -6.651  12.344  21.397  0.00  0.00    +0.000 A 
ATOM     31  C   UNL     1      -7.574  12.253  22.436  0.00  0.00    +0.000 A 
ATOM     32  C   UNL     1      -7.178  12.522  23.744  0.00  0.00    +0.000 A 
ATOM     33  C   UNL     1      -5.860  12.895  24.013  0.00  0.00    +0.000 A 
ENDBRANCH  27  28
ENDBRANCH  26  27
ENDBRANCH  25  26
ENDBRANCH  24  25
ENDBRANCH   1  24
TORSDOF 6
ENDMDL
MODEL 4
REMARK VINA RESULT:      -7.7      3.167     10.404
REMARK  Name = 
REMARK  8 active torsions:
REMARK  status: ('A' for Active; 'I' for Inactive)
REMARK    1  A    between atoms: C_1  and  C_2
REMARK    2  A    between atoms: C_2  and  C_3
REMARK    3  A    between atoms: C_2  and  N_12
REMARK    4  A    between atoms: C_3  and  C_4
REMARK    5  A    between atoms: C_4  and  C_5
REMARK    6  A    between atoms: C_5  and  C_6
REMARK    7  A    between atoms: C_22  and  C_23
REMARK    8  A    between atoms: N_26  and  C_27
REMARK                            x       y       z     vdW  Elec       q    Type
REMARK                         _______ _______ _______ _____ _____    ______ ____
ROOT
ATOM      1  N   UNL     1      -0.035  12.071  20.571  0.00  0.00    +0.000 N 
ATOM      2  C   UNL     1       0.608  10.868  20.769  0.00  0.00    +0.000 C 
ATOM      3  O   UNL     1       1.208  10.607  21.806  0.00  0.00    +0.000 OA
ATOM      4  N   UNL     1       0.527  10.029  19.674  0.00  0.00    +0.000 N 
ATOM      5  C   UNL     1       1.189   8.787  19.705  0.00  0.00    +0.000 A 
ATOM      6  C   UNL     1       0.961   7.901  20.738  0.00  0.00    +0.000 A 
ATOM      7  C   UNL     1       1.685   6.716  20.767  0.00  0.00    +0.000 A 
ATOM      8  C   UNL     1       2.618   6.471  19.788  0.00  0.00    +0.000 A 
ATOM      9  N   UNL     1       3.351   5.339  19.885  0.00  0.00    +0.000 NA
ATOM     10  C   UNL     1       4.257   5.147  18.909  0.00  0.00    +0.000 A 
ATOM     11  C   UNL     1       4.425   6.039  17.858  0.00  0.00    +0.000 A 
ATOM     12  N   UNL     1       3.686   7.175  17.772  0.00  0.00    +0.000 NA
ATOM     13  C   UNL     1       2.781   7.412  18.742  0.00  0.00    +0.000 A 
ATOM     14  N   UNL     1       2.032   8.531  18.680  0.00  0.00    +0.000 NA
ATOM     15  H   UNL     1      -0.679  12.148  19.797  0.00  0.00    +0.000 HD
ATOM     16  H   UNL     1       0.605  10.496  18.783  0.00  0.00    +0.000 HD
ENDROOT
BRANCH  11  17
ATOM     17  C   UNL     1       5.355   5.737  16.784  0.00  0.00    +0.000 A 
ATOM     18  C   UNL     1       6.735   6.035  16.653  0.00  0.00    +0.000 A 
ATOM     19  N   UNL     1       7.278   5.521  15.551  0.00  0.00    +0.000 NA
ATOM     20  N   UNL     1       6.253   4.879  14.968  0.00  0.00    +0.000 N 
ATOM     21  C   UNL     1       6.487   4.097  13.778  0.00  0.00    +0.000 C 
ATOM     22  C   UNL     1       5.074   5.005  15.646  0.00  0.00    +0.000 A 
ENDBRANCH  11  17
BRANCH   1  24
ATOM     23  C   UNL     1       1.043  14.104  21.454  0.00  0.00    +0.000 C 
ATOM     24  C   UNL     1      -0.077  13.081  21.629  0.00  0.00    +0.000 C 
BRANCH  24  25
ATOM     25  C   UNL     1      -1.459  13.754  21.762  0.00  0.00    +0.000 C 
BRANCH  25  26
ATOM     26  C   UNL     1      -2.584  12.811  22.204  0.00  0.00    +0.000 C 
BRANCH  26  27
ATOM     27  C   UNL     1      -3.776  12.874  21.244  0.00  0.00    +0.000 C 
BRANCH  27  28
ATOM     28  C   UNL     1      -5.084  12.765  21.989  0.00  0.00    +0.000 A 
ATOM     29  C   UNL     1      -5.122  12.909  23.382  0.00  0.00    +0.000 A 
ATOM     30  C   UNL     1      -6.322  12.753  24.077  0.00  0.00    +0.000 A 
ATOM     31  C   UNL     1      -7.495  12.453  23.387  0.00  0.00    +0.000 A 
ATOM     32  C   UNL     1      -7.471  12.317  22.001  0.00  0.00    +0.000 A 
ATOM     33  C   UNL     1      -6.271  12.471  21.303  0.00  0.00    +0.000 A 
ENDBRANCH  27  28
ENDBRANCH  26  27
ENDBRANCH  25  26
ENDBRANCH  24  25
ENDBRANCH   1  24
TORSDOF 6
ENDMDL
MODEL 5
REMARK VINA RESULT:      -7.7      6.756     10.888
REMARK  Name = 
REMARK  8 active torsions:
REMARK  status: ('A' for Active; 'I' for Inactive)
REMARK    1  A    between atoms: C_1  and  C_2
REMARK    2  A    between atoms: C_2  and  C_3
REMARK    3  A    between atoms: C_2  and  N_12
REMARK    4  A    between atoms: C_3  and  C_4
REMARK    5  A    between atoms: C_4  and  C_5
REMARK    6  A    between atoms: C_5  and  C_6
REMARK    7  A    between atoms: C_22  and  C_23
REMARK    8  A    between atoms: N_26  and  C_27
REMARK                            x       y       z     vdW  Elec       q    Type
REMARK                         _______ _______ _______ _____ _____    ______ ____
ROOT
ATOM      1  N   UNL     1       9.623   9.806  19.514  0.00  0.00    +0.000 N 
ATOM      2  C   UNL     1       8.726   9.159  18.690  0.00  0.00    +0.000 C 
ATOM      3  O   UNL     1       8.067   9.750  17.842  0.00  0.00    +0.000 OA
ATOM      4  N   UNL     1       8.638   7.805  18.952  0.00  0.00    +0.000 N 
ATOM      5  C   UNL     1       7.717   7.020  18.233  0.00  0.00    +0.000 A 
ATOM      6  C   UNL     1       7.727   7.025  16.852  0.00  0.00    +0.000 A 
ATOM      7  C   UNL     1       6.759   6.290  16.180  0.00  0.00    +0.000 A 
ATOM      8  C   UNL     1       5.811   5.604  16.901  0.00  0.00    +0.000 A 
ATOM      9  N   UNL     1       4.844   4.955  16.214  0.00  0.00    +0.000 NA
ATOM     10  C   UNL     1       3.934   4.306  16.962  0.00  0.00    +0.000 A 
ATOM     11  C   UNL     1       3.985   4.284  18.350  0.00  0.00    +0.000 A 
ATOM     12  N   UNL     1       4.958   4.943  19.031  0.00  0.00    +0.000 NA
ATOM     13  C   UNL     1       5.876   5.621  18.317  0.00  0.00    +0.000 A 
ATOM     14  N   UNL     1       6.856   6.282  18.966  0.00  0.00    +0.000 NA
ATOM     15  H   UNL     1      10.281   9.248  20.039  0.00  0.00    +0.000 HD
ATOM     16  H   UNL     1       8.679   7.565  19.932  0.00  0.00    +0.000 HD
ENDROOT
BRANCH  11  17
ATOM     17  C   UNL     1       3.028   3.492  19.104  0.00  0.00    +0.000 A 
ATOM     18  C   UNL     1       2.311   2.326  18.737  0.00  0.00    +0.000 A 
ATOM     19  N   UNL     1       1.577   1.830  19.732  0.00  0.00    +0.000 NA
ATOM     20  N   UNL     1       1.824   2.670  20.751  0.00  0.00    +0.000 N 
ATOM     21  C   UNL     1       1.274   2.388  22.054  0.00  0.00    +0.000 C 
ATOM     22  C   UNL     1       2.657   3.699  20.419  0.00  0.00    +0.000 A 
ENDBRANCH  11  17
BRANCH   1  24
ATOM     23  C   UNL     1      10.158  11.886  20.723  0.00  0.00    +0.000 C 
ATOM     24  C   UNL     1       9.869  11.241  19.370  0.00  0.00    +0.000 C 
BRANCH  24  25
ATOM     25  C   UNL     1      10.964  11.561  18.330  0.00  0.00    +0.000 C 
BRANCH  25  26
ATOM     26  C   UNL     1      10.613  12.700  17.366  0.00  0.00    +0.000 C 
BRANCH  26  27
ATOM     27  C   UNL     1      11.431  13.960  17.666  0.00  0.00    +0.000 C 
BRANCH  27  28
ATOM     28  C   UNL     1      10.739  14.832  18.685  0.00  0.00    +0.000 A 
ATOM     29  C   UNL     1      11.480  15.500  19.668  0.00  0.00    +0.000 A 
ATOM     30  C   UNL     1      10.835  16.262  20.644  0.00  0.00    +0.000 A 
ATOM     31  C   UNL     1       9.445  16.363  20.646  0.00  0.00    +0.000 A 
ATOM     32  C   UNL     1       8.699  15.710  19.667  0.00  0.00    +0.000 A 
ATOM     33  C   UNL     1       9.342  14.947  18.690  0.00  0.00    +0.000 A 
ENDBRANCH  27  28
ENDBRANCH  26  27
ENDBRANCH  25  26
ENDBRANCH  24  25
ENDBRANCH   1  24
TORSDOF 6
ENDMDL
MODEL 6
REMARK VINA RESULT:      -7.6      1.301      1.888
REMARK  Name = 
REMARK  8 active torsions:
REMARK  status: ('A' for Active; 'I' for Inactive)
REMARK    1  A    between atoms: C_1  and  C_2
REMARK    2  A    between atoms: C_2  and  C_3
REMARK    3  A    between atoms: C_2  and  N_12
REMARK    4  A    between atoms: C_3  and  C_4
REMARK    5  A    between atoms: C_4  and  C_5
REMARK    6  A    between atoms: C_5  and  C_6
REMARK    7  A    between atoms: C_22  and  C_23
REMARK    8  A    between atoms: N_26  and  C_27
REMARK                            x       y       z     vdW  Elec       q    Type
REMARK                         _______ _______ _______ _____ _____    ______ ____
ROOT
ATOM      1  N   UNL     1       2.797   6.750  19.235  0.00  0.00    +0.000 N 
ATOM      2  C   UNL     1       2.196   7.943  18.892  0.00  0.00    +0.000 C 
ATOM      3  O   UNL     1       2.370   8.477  17.802  0.00  0.00    +0.000 OA
ATOM      4  N   UNL     1       1.424   8.467  19.911  0.00  0.00    +0.000 N 
ATOM      5  C   UNL     1       0.796   9.714  19.732  0.00  0.00    +0.000 A 
ATOM      6  C   UNL     1      -0.018   9.933  18.639  0.00  0.00    +0.000 A 
ATOM      7  C   UNL     1      -0.564  11.198  18.463  0.00  0.00    +0.000 A 
ATOM      8  C   UNL     1      -0.261  12.195  19.359  0.00  0.00    +0.000 A 
ATOM      9  N   UNL     1      -0.755  13.430  19.118  0.00  0.00    +0.000 NA
ATOM     10  C   UNL     1      -0.425  14.374  20.017  0.00  0.00    +0.000 A 
ATOM     11  C   UNL     1       0.359  14.105  21.132  0.00  0.00    +0.000 A 
ATOM     12  N   UNL     1       0.854  12.861  21.362  0.00  0.00    +0.000 NA
ATOM     13  C   UNL     1       0.561  11.893  20.473  0.00  0.00    +0.000 A 
ATOM     14  N   UNL     1       1.036  10.648  20.677  0.00  0.00    +0.000 NA
ATOM     15  H   UNL     1       2.458   6.259  20.049  0.00  0.00    +0.000 HD
ATOM     16  H   UNL     1       1.816   8.352  20.835  0.00  0.00    +0.000 HD
ENDROOT
BRANCH  11  17
ATOM     17  C   UNL     1       0.610  15.142  22.117  0.00  0.00    +0.000 A 
ATOM     18  C   UNL     1      -0.204  15.617  23.177  0.00  0.00    +0.000 A 
ATOM     19  N   UNL     1       0.402  16.534  23.929  0.00  0.00    +0.000 NA
ATOM     20  N   UNL     1       1.616  16.648  23.365  0.00  0.00    +0.000 N 
ATOM     21  C   UNL     1       2.610  17.492  23.982  0.00  0.00    +0.000 C 
ATOM     22  C   UNL     1       1.779  15.864  22.259  0.00  0.00    +0.000 A 
ENDBRANCH  11  17
BRANCH   1  24
ATOM     23  C   UNL     1       4.924   5.541  18.933  0.00  0.00    +0.000 C 
ATOM     24  C   UNL     1       3.637   6.032  18.275  0.00  0.00    +0.000 C 
BRANCH  24  25
ATOM     25  C   UNL     1       2.884   4.893  17.554  0.00  0.00    +0.000 C 
BRANCH  25  26
ATOM     26  C   UNL     1       3.763   3.699  17.163  0.00  0.00    +0.000 C 
BRANCH  26  27
ATOM     27  C   UNL     1       3.202   2.387  17.720  0.00  0.00    +0.000 C 
BRANCH  27  28
ATOM     28  C   UNL     1       2.578   2.591  19.078  0.00  0.00    +0.000 A 
ATOM     29  C   UNL     1       3.357   2.501  20.239  0.00  0.00    +0.000 A 
ATOM     30  C   UNL     1       2.770   2.635  21.498  0.00  0.00    +0.000 A 
ATOM     31  C   UNL     1       1.400   2.860  21.609  0.00  0.00    +0.000 A 
ATOM     32  C   UNL     1       0.616   2.963  20.461  0.00  0.00    +0.000 A 
ATOM     33  C   UNL     1       1.201   2.828  19.200  0.00  0.00    +0.000 A 
ENDBRANCH  27  28
ENDBRANCH  26  27
ENDBRANCH  25  26
ENDBRANCH  24  25
ENDBRANCH   1  24
TORSDOF 6
ENDMDL
MODEL 7
REMARK VINA RESULT:      -7.6      0.769      1.305
REMARK  Name = 
REMARK  8 active torsions:
REMARK  status: ('A' for Active; 'I' for Inactive)
REMARK    1  A    between atoms: C_1  and  C_2
REMARK    2  A    between atoms: C_2  and  C_3
REMARK    3  A    between atoms: C_2  and  N_12
REMARK    4  A    between atoms: C_3  and  C_4
REMARK    5  A    between atoms: C_4  and  C_5
REMARK    6  A    between atoms: C_5  and  C_6
REMARK    7  A    between atoms: C_22  and  C_23
REMARK    8  A    between atoms: N_26  and  C_27
REMARK                            x       y       z     vdW  Elec       q    Type
REMARK                         _______ _______ _______ _____ _____    ______ ____
ROOT
ATOM      1  N   UNL     1       4.211   6.041  18.817  0.00  0.00    +0.000 N 
ATOM      2  C   UNL     1       3.446   7.128  18.448  0.00  0.00    +0.000 C 
ATOM      3  O   UNL     1       3.742   7.849  17.502  0.00  0.00    +0.000 OA
ATOM      4  N   UNL     1       2.355   7.321  19.274  0.00  0.00    +0.000 N 
ATOM      5  C   UNL     1       1.515   8.430  19.061  0.00  0.00    +0.000 A 
ATOM      6  C   UNL     1       0.952   8.649  17.819  0.00  0.00    +0.000 A 
ATOM      7  C   UNL     1       0.183   9.790  17.632  0.00  0.00    +0.000 A 
ATOM      8  C   UNL     1       0.026  10.676  18.671  0.00  0.00    +0.000 A 
ATOM      9  N   UNL     1      -0.672  11.809  18.433  0.00  0.00    +0.000 NA
ATOM     10  C   UNL     1      -0.792  12.649  19.477  0.00  0.00    +0.000 A 
ATOM     11  C   UNL     1      -0.252  12.371  20.727  0.00  0.00    +0.000 A 
ATOM     12  N   UNL     1       0.451  11.232  20.954  0.00  0.00    +0.000 NA
ATOM     13  C   UNL     1       0.610  10.375  19.927  0.00  0.00    +0.000 A 
ATOM     14  N   UNL     1       1.300   9.234  20.125  0.00  0.00    +0.000 NA
ATOM     15  H   UNL     1       3.813   5.371  19.459  0.00  0.00    +0.000 HD
ATOM     16  H   UNL     1       2.535   7.145  20.252  0.00  0.00    +0.000 HD
ENDROOT
BRANCH  11  17
ATOM     17  C   UNL     1      -0.489  13.271  21.842  0.00  0.00    +0.000 A 
ATOM     18  C   UNL     1      -1.125  13.041  23.088  0.00  0.00    +0.000 A 
ATOM     19  N   UNL     1      -1.083  14.098  23.898  0.00  0.00    +0.000 NA
ATOM     20  N   UNL     1      -0.411  15.014  23.182  0.00  0.00    +0.000 N 
ATOM     21  C   UNL     1      -0.074  16.280  23.785  0.00  0.00    +0.000 C 
ATOM     22  C   UNL     1      -0.064  14.583  21.934  0.00  0.00    +0.000 A 
ENDBRANCH  11  17
BRANCH   1  24
ATOM     23  C   UNL     1       6.537   5.240  18.967  0.00  0.00    +0.000 C 
ATOM     24  C   UNL     1       5.396   5.664  18.046  0.00  0.00    +0.000 C 
BRANCH  24  25
ATOM     25  C   UNL     1       5.097   4.601  16.967  0.00  0.00    +0.000 C 
BRANCH  25  26
ATOM     26  C   UNL     1       3.690   3.998  17.042  0.00  0.00    +0.000 C 
BRANCH  26  27
ATOM     27  C   UNL     1       3.679   2.700  17.854  0.00  0.00    +0.000 C 
BRANCH  27  28
ATOM     28  C   UNL     1       2.863   2.850  19.114  0.00  0.00    +0.000 A 
ATOM     29  C   UNL     1       3.434   2.583  20.366  0.00  0.00    +0.000 A 
ATOM     30  C   UNL     1       2.664   2.668  21.527  0.00  0.00    +0.000 A 
ATOM     31  C   UNL     1       1.318   3.020  21.448  0.00  0.00    +0.000 A 
ATOM     32  C   UNL     1       0.742   3.297  20.210  0.00  0.00    +0.000 A 
ATOM     33  C   UNL     1       1.510   3.212  19.047  0.00  0.00    +0.000 A 
ENDBRANCH  27  28
ENDBRANCH  26  27
ENDBRANCH  25  26
ENDBRANCH  24  25
ENDBRANCH   1  24
TORSDOF 6
ENDMDL
MODEL 8
REMARK VINA RESULT:      -7.6      2.813     10.208
REMARK  Name = 
REMARK  8 active torsions:
REMARK  status: ('A' for Active; 'I' for Inactive)
REMARK    1  A    between atoms: C_1  and  C_2
REMARK    2  A    between atoms: C_2  and  C_3
REMARK    3  A    between atoms: C_2  and  N_12
REMARK    4  A    between atoms: C_3  and  C_4
REMARK    5  A    between atoms: C_4  and  C_5
REMARK    6  A    between atoms: C_5  and  C_6
REMARK    7  A    between atoms: C_22  and  C_23
REMARK    8  A    between atoms: N_26  and  C_27
REMARK                            x       y       z     vdW  Elec       q    Type
REMARK                         _______ _______ _______ _____ _____    ______ ____
ROOT
ATOM      1  N   UNL     1       0.404  12.794  18.785  0.00  0.00    +0.000 N 
ATOM      2  C   UNL     1       1.003  11.634  19.229  0.00  0.00    +0.000 C 
ATOM      3  O   UNL     1       1.597  11.569  20.299  0.00  0.00    +0.000 OA
ATOM      4  N   UNL     1       0.886  10.591  18.329  0.00  0.00    +0.000 N 
ATOM      5  C   UNL     1       1.502   9.358  18.616  0.00  0.00    +0.000 A 
ATOM      6  C   UNL     1       1.246   8.713  19.808  0.00  0.00    +0.000 A 
ATOM      7  C   UNL     1       1.925   7.532  20.082  0.00  0.00    +0.000 A 
ATOM      8  C   UNL     1       2.845   7.058  19.177  0.00  0.00    +0.000 A 
ATOM      9  N   UNL     1       3.536   5.943  19.508  0.00  0.00    +0.000 NA
ATOM     10  C   UNL     1       4.431   5.522  18.595  0.00  0.00    +0.000 A 
ATOM     11  C   UNL     1       4.627   6.173  17.384  0.00  0.00    +0.000 A 
ATOM     12  N   UNL     1       3.930   7.294  17.064  0.00  0.00    +0.000 NA
ATOM     13  C   UNL     1       3.039   7.758  17.961  0.00  0.00    +0.000 A 
ATOM     14  N   UNL     1       2.331   8.867  17.669  0.00  0.00    +0.000 NA
ATOM     15  H   UNL     1      -0.241  12.734  18.009  0.00  0.00    +0.000 HD
ATOM     16  H   UNL     1       0.978  10.862  17.361  0.00  0.00    +0.000 HD
ENDROOT
BRANCH  11  17
ATOM     17  C   UNL     1       5.541   5.622  16.398  0.00  0.00    +0.000 A 
ATOM     18  C   UNL     1       6.954   5.508  16.420  0.00  0.00    +0.000 A 
ATOM     19  N   UNL     1       7.442   4.868  15.359  0.00  0.00    +0.000 NA
ATOM     20  N   UNL     1       6.345   4.555  14.651  0.00  0.00    +0.000 N 
ATOM     21  C   UNL     1       6.472   3.749  13.461  0.00  0.00    +0.000 C 
ATOM     22  C   UNL     1       5.186   5.013  15.210  0.00  0.00    +0.000 A 
ENDBRANCH  11  17
BRANCH   1  24
ATOM     23  C   UNL     1      -0.122  15.201  18.830  0.00  0.00    +0.000 C 
ATOM     24  C   UNL     1       0.404  14.000  19.613  0.00  0.00    +0.000 C 
BRANCH  24  25
ATOM     25  C   UNL     1      -0.341  13.810  20.951  0.00  0.00    +0.000 C 
BRANCH  25  26
ATOM     26  C   UNL     1      -1.869  13.893  20.845  0.00  0.00    +0.000 C 
BRANCH  26  27
ATOM     27  C   UNL     1      -2.518  12.518  21.029  0.00  0.00    +0.000 C 
BRANCH  27  28
ATOM     28  C   UNL     1      -3.525  12.535  22.153  0.00  0.00    +0.000 A 
ATOM     29  C   UNL     1      -4.875  12.805  21.892  0.00  0.00    +0.000 A 
ATOM     30  C   UNL     1      -5.798  12.877  22.937  0.00  0.00    +0.000 A 
ATOM     31  C   UNL     1      -5.380  12.680  24.252  0.00  0.00    +0.000 A 
ATOM     32  C   UNL     1      -4.041  12.401  24.522  0.00  0.00    +0.000 A 
ATOM     33  C   UNL     1      -3.117  12.330  23.478  0.00  0.00    +0.000 A 
ENDBRANCH  27  28
ENDBRANCH  26  27
ENDBRANCH  25  26
ENDBRANCH  24  25
ENDBRANCH   1  24
TORSDOF 6
ENDMDL
MODEL 9
REMARK VINA RESULT:      -7.6      2.899     10.751
REMARK  Name = 
REMARK  8 active torsions:
REMARK  status: ('A' for Active; 'I' for Inactive)
REMARK    1  A    between atoms: C_1  and  C_2
REMARK    2  A    between atoms: C_2  and  C_3
REMARK    3  A    between atoms: C_2  and  N_12
REMARK    4  A    between atoms: C_3  and  C_4
REMARK    5  A    between atoms: C_4  and  C_5
REMARK    6  A    between atoms: C_5  and  C_6
REMARK    7  A    between atoms: C_22  and  C_23
REMARK    8  A    between atoms: N_26  and  C_27
REMARK                            x       y       z     vdW  Elec       q    Type
REMARK                         _______ _______ _______ _____ _____    ______ ____
ROOT
ATOM      1  N   UNL     1       0.002  11.996  20.662  0.00  0.00    +0.000 N 
ATOM      2  C   UNL     1       0.645  10.789  20.841  0.00  0.00    +0.000 C 
ATOM      3  O   UNL     1       1.254  10.515  21.869  0.00  0.00    +0.000 OA
ATOM      4  N   UNL     1       0.553   9.964  19.737  0.00  0.00    +0.000 N 
ATOM      5  C   UNL     1       1.214   8.721  19.747  0.00  0.00    +0.000 A 
ATOM      6  C   UNL     1       0.994   7.823  20.771  0.00  0.00    +0.000 A 
ATOM      7  C   UNL     1       1.716   6.636  20.779  0.00  0.00    +0.000 A 
ATOM      8  C   UNL     1       2.640   6.402  19.789  0.00  0.00    +0.000 A 
ATOM      9  N   UNL     1       3.373   5.268  19.866  0.00  0.00    +0.000 NA
ATOM     10  C   UNL     1       4.270   5.087  18.880  0.00  0.00    +0.000 A 
ATOM     11  C   UNL     1       4.430   5.992  17.838  0.00  0.00    +0.000 A 
ATOM     12  N   UNL     1       3.691   7.130  17.773  0.00  0.00    +0.000 NA
ATOM     13  C   UNL     1       2.796   7.356  18.753  0.00  0.00    +0.000 A 
ATOM     14  N   UNL     1       2.047   8.476  18.712  0.00  0.00    +0.000 NA
ATOM     15  H   UNL     1      -0.650  12.083  19.896  0.00  0.00    +0.000 HD
ATOM     16  H   UNL     1       0.624  10.441  18.850  0.00  0.00    +0.000 HD
ENDROOT
BRANCH  11  17
ATOM     17  C   UNL     1       5.350   5.701  16.753  0.00  0.00    +0.000 A 
ATOM     18  C   UNL     1       6.724   6.020  16.604  0.00  0.00    +0.000 A 
ATOM     19  N   UNL     1       7.260   5.512  15.495  0.00  0.00    +0.000 NA
ATOM     20  N   UNL     1       6.236   4.853  14.927  0.00  0.00    +0.000 N 
ATOM     21  C   UNL     1       6.467   4.072  13.736  0.00  0.00    +0.000 C 
ATOM     22  C   UNL     1       5.065   4.963  15.620  0.00  0.00    +0.000 A 
ENDBRANCH  11  17
BRANCH   1  24
ATOM     23  C   UNL     1      -0.165  14.403  21.164  0.00  0.00    +0.000 C 
ATOM     24  C   UNL     1      -0.029  12.993  21.733  0.00  0.00    +0.000 C 
BRANCH  24  25
ATOM     25  C   UNL     1      -1.102  12.694  22.801  0.00  0.00    +0.000 C 
BRANCH  25  26
ATOM     26  C   UNL     1      -2.511  13.179  22.440  0.00  0.00    +0.000 C 
BRANCH  26  27
ATOM     27  C   UNL     1      -3.034  14.190  23.466  0.00  0.00    +0.000 C 
BRANCH  27  28
ATOM     28  C   UNL     1      -4.529  14.073  23.634  0.00  0.00    +0.000 A 
ATOM     29  C   UNL     1      -5.337  15.218  23.617  0.00  0.00    +0.000 A 
ATOM     30  C   UNL     1      -6.714  15.116  23.828  0.00  0.00    +0.000 A 
ATOM     31  C   UNL     1      -7.294  13.870  24.058  0.00  0.00    +0.000 A 
ATOM     32  C   UNL     1      -6.501  12.724  24.067  0.00  0.00    +0.000 A 
ATOM     33  C   UNL     1      -5.125  12.824  23.857  0.00  0.00    +0.000 A 
ENDBRANCH  27  28
ENDBRANCH  26  27
ENDBRANCH  25  26
ENDBRANCH  24  25
ENDBRANCH   1  24
TORSDOF 6
ENDMDL
