MODEL 1
REMARK VINA RESULT:      -6.8      0.000      0.000
REMARK  Name = 
REMARK  10 active torsions:
REMARK  status: ('A' for Active; 'I' for Inactive)
REMARK    1  A    between atoms: C_1  and  C_2
REMARK    2  A    between atoms: C_3  and  C_4
REMARK    3  A    between atoms: N_5  and  C_6
REMARK    4  A    between atoms: C_6  and  C_7
REMARK    5  A    between atoms: C_7  and  C_8
REMARK    6  A    between atoms: C_8  and  N_9
REMARK    7  A    between atoms: N_9  and  C_10
REMARK    8  A    between atoms: N_9  and  C_11
REMARK    9  A    between atoms: N_17  and  C_18
REMARK   10  A    between atoms: C_18  and  C_19
REMARK                            x       y       z     vdW  Elec       q    Type
REMARK                         _______ _______ _______ _____ _____    ______ ____
ROOT
ATOM      1  C   UNL     1       0.478   9.125  22.872  0.00  0.00    +0.000 C 
ATOM      2  C   UNL     1       0.505   9.884  21.589  0.00  0.00    +0.000 A 
ATOM      3  C   UNL     1       0.041  11.178  21.381  0.00  0.00    +0.000 A 
ATOM      4  C   UNL     1      -0.607  12.125  22.334  0.00  0.00    +0.000 C 
ATOM      5  N   UNL     1       0.276  11.497  20.055  0.00  0.00    +0.000 N 
ATOM      6  C   UNL     1       0.909  10.447  19.429  0.00  0.00    +0.000 A 
ATOM      7  N   UNL     1       1.309  10.431  18.145  0.00  0.00    +0.000 NA
ATOM      8  C   UNL     1       1.858   9.254  17.814  0.00  0.00    +0.000 A 
ATOM      9  N   UNL     1       2.041   8.169  18.588  0.00  0.00    +0.000 NA
ATOM     10  C   UNL     1       1.621   8.207  19.874  0.00  0.00    +0.000 A 
ATOM     11  N   UNL     1       1.699   7.070  20.662  0.00  0.00    +0.000 N 
ATOM     12  C   UNL     1       1.037   9.411  20.343  0.00  0.00    +0.000 A 
ATOM     13  H   UNL     1       1.505   7.225  21.640  0.00  0.00    +0.000 HD
ENDROOT
BRANCH   5  14
ATOM     14  C   UNL     1      -0.045  12.759  19.407  0.00  0.00    +0.000 C 
BRANCH  14  15
ATOM     15  C   UNL     1      -1.495  12.902  18.934  0.00  0.00    +0.000 C 
BRANCH  15  16
ATOM     16  C   UNL     1      -1.862  12.005  17.744  0.00  0.00    +0.000 C 
BRANCH  16  17
ATOM     17  N   UNL     1      -3.070  11.184  17.944  0.00  0.00    +0.000 NA
ATOM     18  C   UNL     1      -4.157  11.553  17.037  0.00  0.00    +0.000 C 
ATOM     19  C   UNL     1      -2.737   9.767  17.771  0.00  0.00    +0.000 C 
ENDBRANCH  16  17
ENDBRANCH  15  16
ENDBRANCH  14  15
ENDBRANCH   5  14
BRANCH  11  20
ATOM     20  C   UNL     1       2.767   6.123  20.428  0.00  0.00    +0.000 C 
BRANCH  20  21
ATOM     21  C   UNL     1       2.167   4.865  19.833  0.00  0.00    +0.000 A 
ATOM     22  C   UNL     1       2.505   4.487  18.522  0.00  0.00    +0.000 A 
ATOM     23  C   UNL     1       1.972   3.331  17.952  0.00  0.00    +0.000 A 
ATOM     24  C   UNL     1       1.094   2.535  18.685  0.00  0.00    +0.000 A 
ATOM     25  C   UNL     1       0.747   2.899  19.985  0.00  0.00    +0.000 A 
ATOM     26  C   UNL     1       1.278   4.059  20.557  0.00  0.00    +0.000 A 
ENDBRANCH  20  21
ENDBRANCH  11  20
TORSDOF 6
ENDMDL
MODEL 2
REMARK VINA RESULT:      -6.8      0.405      1.182
REMARK  Name = 
REMARK  10 active torsions:
REMARK  status: ('A' for Active; 'I' for Inactive)
REMARK    1  A    between atoms: C_1  and  C_2
REMARK    2  A    between atoms: C_3  and  C_4
REMARK    3  A    between atoms: N_5  and  C_6
REMARK    4  A    between atoms: C_6  and  C_7
REMARK    5  A    between atoms: C_7  and  C_8
REMARK    6  A    between atoms: C_8  and  N_9
REMARK    7  A    between atoms: N_9  and  C_10
REMARK    8  A    between atoms: N_9  and  C_11
REMARK    9  A    between atoms: N_17  and  C_18
REMARK   10  A    between atoms: C_18  and  C_19
REMARK                            x       y       z     vdW  Elec       q    Type
REMARK                         _______ _______ _______ _____ _____    ______ ____
ROOT
ATOM      1  C   UNL     1       0.275   9.053  22.888  0.00  0.00    +0.000 C 
ATOM      2  C   UNL     1       0.389   9.850  21.632  0.00  0.00    +0.000 A 
ATOM      3  C   UNL     1      -0.047  11.154  21.435  0.00  0.00    +0.000 A 
ATOM      4  C   UNL     1      -0.743  12.080  22.375  0.00  0.00    +0.000 C 
ATOM      5  N   UNL     1       0.272  11.510  20.136  0.00  0.00    +0.000 N 
ATOM      6  C   UNL     1       0.932  10.471  19.519  0.00  0.00    +0.000 A 
ATOM      7  N   UNL     1       1.409  10.489  18.262  0.00  0.00    +0.000 NA
ATOM      8  C   UNL     1       1.965   9.315  17.929  0.00  0.00    +0.000 A 
ATOM      9  N   UNL     1       2.089   8.205  18.679  0.00  0.00    +0.000 NA
ATOM     10  C   UNL     1       1.591   8.210  19.939  0.00  0.00    +0.000 A 
ATOM     11  N   UNL     1       1.608   7.050  20.695  0.00  0.00    +0.000 N 
ATOM     12  C   UNL     1       0.992   9.407  20.407  0.00  0.00    +0.000 A 
ATOM     13  H   UNL     1       1.356   7.178  21.663  0.00  0.00    +0.000 HD
ENDROOT
BRANCH   5  14
ATOM     14  C   UNL     1       0.004  12.795  19.509  0.00  0.00    +0.000 C 
BRANCH  14  15
ATOM     15  C   UNL     1      -1.394  12.949  18.903  0.00  0.00    +0.000 C 
BRANCH  15  16
ATOM     16  C   UNL     1      -1.663  12.041  17.696  0.00  0.00    +0.000 C 
BRANCH  16  17
ATOM     17  N   UNL     1      -2.983  11.386  17.703  0.00  0.00    +0.000 NA
ATOM     18  C   UNL     1      -2.885   9.926  17.709  0.00  0.00    +0.000 C 
ATOM     19  C   UNL     1      -3.753  11.838  18.866  0.00  0.00    +0.000 C 
ENDBRANCH  16  17
ENDBRANCH  15  16
ENDBRANCH  14  15
ENDBRANCH   5  14
BRANCH  11  20
ATOM     20  C   UNL     1       2.679   6.097  20.497  0.00  0.00    +0.000 C 
BRANCH  20  21
ATOM     21  C   UNL     1       2.100   4.856  19.848  0.00  0.00    +0.000 A 
ATOM     22  C   UNL     1       1.263   4.009  20.594  0.00  0.00    +0.000 A 
ATOM     23  C   UNL     1       0.711   2.863  20.020  0.00  0.00    +0.000 A 
ATOM     24  C   UNL     1       0.989   2.548  18.691  0.00  0.00    +0.000 A 
ATOM     25  C   UNL     1       1.822   3.377  17.940  0.00  0.00    +0.000 A 
ATOM     26  C   UNL     1       2.377   4.524  18.515  0.00  0.00    +0.000 A 
ENDBRANCH  20  21
ENDBRANCH  11  20
TORSDOF 6
ENDMDL
MODEL 3
REMARK VINA RESULT:      -6.7      1.707      3.141
REMARK  Name = 
REMARK  10 active torsions:
REMARK  status: ('A' for Active; 'I' for Inactive)
REMARK    1  A    between atoms: C_1  and  C_2
REMARK    2  A    between atoms: C_3  and  C_4
REMARK    3  A    between atoms: N_5  and  C_6
REMARK    4  A    between atoms: C_6  and  C_7
REMARK    5  A    between atoms: C_7  and  C_8
REMARK    6  A    between atoms: C_8  and  N_9
REMARK    7  A    between atoms: N_9  and  C_10
REMARK    8  A    between atoms: N_9  and  C_11
REMARK    9  A    between atoms: N_17  and  C_18
REMARK   10  A    between atoms: C_18  and  C_19
REMARK                            x       y       z     vdW  Elec       q    Type
REMARK                         _______ _______ _______ _____ _____    ______ ____
ROOT
ATOM      1  C   UNL     1       0.023   9.165  22.924  0.00  0.00    +0.000 C 
ATOM      2  C   UNL     1       0.161  10.043  21.727  0.00  0.00    +0.000 A 
ATOM      3  C   UNL     1      -0.298  11.349  21.599  0.00  0.00    +0.000 A 
ATOM      4  C   UNL     1      -1.046  12.197  22.571  0.00  0.00    +0.000 C 
ATOM      5  N   UNL     1       0.056  11.794  20.337  0.00  0.00    +0.000 N 
ATOM      6  C   UNL     1       0.760  10.811  19.678  0.00  0.00    +0.000 A 
ATOM      7  N   UNL     1       1.279  10.919  18.442  0.00  0.00    +0.000 NA
ATOM      8  C   UNL     1       1.872   9.782  18.054  0.00  0.00    +0.000 A 
ATOM      9  N   UNL     1       1.995   8.628  18.736  0.00  0.00    +0.000 NA
ATOM     10  C   UNL     1       1.456   8.542  19.975  0.00  0.00    +0.000 A 
ATOM     11  N   UNL     1       1.473   7.335  20.655  0.00  0.00    +0.000 N 
ATOM     12  C   UNL     1       0.814   9.693  20.498  0.00  0.00    +0.000 A 
ATOM     13  H   UNL     1       1.186   7.395  21.620  0.00  0.00    +0.000 HD
ENDROOT
BRANCH   5  14
ATOM     14  C   UNL     1      -0.219  13.111  19.784  0.00  0.00    +0.000 C 
BRANCH  14  15
ATOM     15  C   UNL     1       0.889  14.150  19.985  0.00  0.00    +0.000 C 
BRANCH  15  16
ATOM     16  C   UNL     1       1.663  14.503  18.709  0.00  0.00    +0.000 C 
BRANCH  16  17
ATOM     17  N   UNL     1       3.105  14.209  18.764  0.00  0.00    +0.000 NA
ATOM     18  C   UNL     1       3.888  15.064  17.871  0.00  0.00    +0.000 C 
ATOM     19  C   UNL     1       3.587  14.356  20.141  0.00  0.00    +0.000 C 
ENDBRANCH  16  17
ENDBRANCH  15  16
ENDBRANCH  14  15
ENDBRANCH   5  14
BRANCH  11  20
ATOM     20  C   UNL     1       2.572   6.420  20.435  0.00  0.00    +0.000 C 
BRANCH  20  21
ATOM     21  C   UNL     1       2.014   5.140  19.843  0.00  0.00    +0.000 A 
ATOM     22  C   UNL     1       1.461   4.166  20.691  0.00  0.00    +0.000 A 
ATOM     23  C   UNL     1       0.935   2.982  20.173  0.00  0.00    +0.000 A 
ATOM     24  C   UNL     1       0.956   2.755  18.798  0.00  0.00    +0.000 A 
ATOM     25  C   UNL     1       1.506   3.710  17.944  0.00  0.00    +0.000 A 
ATOM     26  C   UNL     1       2.035   4.896  18.463  0.00  0.00    +0.000 A 
ENDBRANCH  20  21
ENDBRANCH  11  20
TORSDOF 6
ENDMDL
MODEL 4
REMARK VINA RESULT:      -6.7      1.826      3.081
REMARK  Name = 
REMARK  10 active torsions:
REMARK  status: ('A' for Active; 'I' for Inactive)
REMARK    1  A    between atoms: C_1  and  C_2
REMARK    2  A    between atoms: C_3  and  C_4
REMARK    3  A    between atoms: N_5  and  C_6
REMARK    4  A    between atoms: C_6  and  C_7
REMARK    5  A    between atoms: C_7  and  C_8
REMARK    6  A    between atoms: C_8  and  N_9
REMARK    7  A    between atoms: N_9  and  C_10
REMARK    8  A    between atoms: N_9  and  C_11
REMARK    9  A    between atoms: N_17  and  C_18
REMARK   10  A    between atoms: C_18  and  C_19
REMARK                            x       y       z     vdW  Elec       q    Type
REMARK                         _______ _______ _______ _____ _____    ______ ____
ROOT
ATOM      1  C   UNL     1       0.144   9.268  22.903  0.00  0.00    +0.000 C 
ATOM      2  C   UNL     1       0.269  10.094  21.668  0.00  0.00    +0.000 A 
ATOM      3  C   UNL     1      -0.166  11.403  21.498  0.00  0.00    +0.000 A 
ATOM      4  C   UNL     1      -0.870  12.307  22.453  0.00  0.00    +0.000 C 
ATOM      5  N   UNL     1       0.165  11.788  20.210  0.00  0.00    +0.000 N 
ATOM      6  C   UNL     1       0.830  10.765  19.575  0.00  0.00    +0.000 A 
ATOM      7  N   UNL     1       1.319  10.811  18.322  0.00  0.00    +0.000 NA
ATOM      8  C   UNL     1       1.878   9.646  17.968  0.00  0.00    +0.000 A 
ATOM      9  N   UNL     1       1.995   8.519  18.693  0.00  0.00    +0.000 NA
ATOM     10  C   UNL     1       1.486   8.495  19.947  0.00  0.00    +0.000 A 
ATOM     11  N   UNL     1       1.497   7.317  20.676  0.00  0.00    +0.000 N 
ATOM     12  C   UNL     1       0.883   9.680  20.438  0.00  0.00    +0.000 A 
ATOM     13  H   UNL     1       1.236   7.422  21.645  0.00  0.00    +0.000 HD
ENDROOT
BRANCH   5  14
ATOM     14  C   UNL     1      -0.097  13.088  19.611  0.00  0.00    +0.000 C 
BRANCH  14  15
ATOM     15  C   UNL     1       1.011  14.129  19.795  0.00  0.00    +0.000 C 
BRANCH  15  16
ATOM     16  C   UNL     1       1.949  14.275  18.590  0.00  0.00    +0.000 C 
BRANCH  16  17
ATOM     17  N   UNL     1       2.862  15.429  18.658  0.00  0.00    +0.000 NA
ATOM     18  C   UNL     1       3.932  15.359  17.663  0.00  0.00    +0.000 C 
ATOM     19  C   UNL     1       2.102  16.671  18.484  0.00  0.00    +0.000 C 
ENDBRANCH  16  17
ENDBRANCH  15  16
ENDBRANCH  14  15
ENDBRANCH   5  14
BRANCH  11  20
ATOM     20  C   UNL     1       2.569   6.369  20.466  0.00  0.00    +0.000 C 
BRANCH  20  21
ATOM     21  C   UNL     1       1.972   5.085  19.925  0.00  0.00    +0.000 A 
ATOM     22  C   UNL     1       2.022   4.824  18.545  0.00  0.00    +0.000 A 
ATOM     23  C   UNL     1       1.486   3.648  18.020  0.00  0.00    +0.000 A 
ATOM     24  C   UNL     1       0.892   2.715  18.868  0.00  0.00    +0.000 A 
ATOM     25  C   UNL     1       0.831   2.962  20.239  0.00  0.00    +0.000 A 
ATOM     26  C   UNL     1       1.366   4.142  20.766  0.00  0.00    +0.000 A 
ENDBRANCH  20  21
ENDBRANCH  11  20
TORSDOF 6
ENDMDL
MODEL 5
REMARK VINA RESULT:      -6.7      3.098      8.085
REMARK  Name = 
REMARK  10 active torsions:
REMARK  status: ('A' for Active; 'I' for Inactive)
REMARK    1  A    between atoms: C_1  and  C_2
REMARK    2  A    between atoms: C_3  and  C_4
REMARK    3  A    between atoms: N_5  and  C_6
REMARK    4  A    between atoms: C_6  and  C_7
REMARK    5  A    between atoms: C_7  and  C_8
REMARK    6  A    between atoms: C_8  and  N_9
REMARK    7  A    between atoms: N_9  and  C_10
REMARK    8  A    between atoms: N_9  and  C_11
REMARK    9  A    between atoms: N_17  and  C_18
REMARK   10  A    between atoms: C_18  and  C_19
REMARK                            x       y       z     vdW  Elec       q    Type
REMARK                         _______ _______ _______ _____ _____    ______ ____
ROOT
ATOM      1  C   UNL     1       2.941   8.516  17.640  0.00  0.00    +0.000 C 
ATOM      2  C   UNL     1       3.385   7.100  17.785  0.00  0.00    +0.000 A 
ATOM      3  C   UNL     1       4.222   6.401  16.923  0.00  0.00    +0.000 A 
ATOM      4  C   UNL     1       4.867   6.842  15.653  0.00  0.00    +0.000 C 
ATOM      5  N   UNL     1       4.387   5.129  17.443  0.00  0.00    +0.000 N 
ATOM      6  C   UNL     1       3.701   5.019  18.631  0.00  0.00    +0.000 A 
ATOM      7  N   UNL     1       3.669   3.927  19.415  0.00  0.00    +0.000 NA
ATOM      8  C   UNL     1       2.883   4.110  20.485  0.00  0.00    +0.000 A 
ATOM      9  N   UNL     1       2.180   5.204  20.829  0.00  0.00    +0.000 NA
ATOM     10  C   UNL     1       2.221   6.287  20.018  0.00  0.00    +0.000 A 
ATOM     11  N   UNL     1       1.423   7.387  20.289  0.00  0.00    +0.000 N 
ATOM     12  C   UNL     1       3.036   6.215  18.859  0.00  0.00    +0.000 A 
ATOM     13  H   UNL     1       1.623   8.198  19.725  0.00  0.00    +0.000 HD
ENDROOT
BRANCH   5  14
ATOM     14  C   UNL     1       5.194   4.065  16.865  0.00  0.00    +0.000 C 
BRANCH  14  15
ATOM     15  C   UNL     1       6.620   4.465  16.475  0.00  0.00    +0.000 C 
BRANCH  15  16
ATOM     16  C   UNL     1       7.586   4.596  17.660  0.00  0.00    +0.000 C 
BRANCH  16  17
ATOM     17  N   UNL     1       7.318   5.743  18.546  0.00  0.00    +0.000 NA
ATOM     18  C   UNL     1       7.968   5.610  19.850  0.00  0.00    +0.000 C 
ATOM     19  C   UNL     1       7.756   6.982  17.896  0.00  0.00    +0.000 C 
ENDBRANCH  16  17
ENDBRANCH  15  16
ENDBRANCH  14  15
ENDBRANCH   5  14
BRANCH  11  20
ATOM     20  C   UNL     1       1.107   7.703  21.665  0.00  0.00    +0.000 C 
BRANCH  20  21
ATOM     21  C   UNL     1       0.392   9.040  21.695  0.00  0.00    +0.000 A 
ATOM     22  C   UNL     1       0.367   9.840  20.541  0.00  0.00    +0.000 A 
ATOM     23  C   UNL     1      -0.288  11.072  20.538  0.00  0.00    +0.000 A 
ATOM     24  C   UNL     1      -0.928  11.521  21.692  0.00  0.00    +0.000 A 
ATOM     25  C   UNL     1      -0.908  10.740  22.847  0.00  0.00    +0.000 A 
ATOM     26  C   UNL     1      -0.250   9.507  22.851  0.00  0.00    +0.000 A 
ENDBRANCH  20  21
ENDBRANCH  11  20
TORSDOF 6
ENDMDL
MODEL 6
REMARK VINA RESULT:      -6.6      2.915      8.036
REMARK  Name = 
REMARK  10 active torsions:
REMARK  status: ('A' for Active; 'I' for Inactive)
REMARK    1  A    between atoms: C_1  and  C_2
REMARK    2  A    between atoms: C_3  and  C_4
REMARK    3  A    between atoms: N_5  and  C_6
REMARK    4  A    between atoms: C_6  and  C_7
REMARK    5  A    between atoms: C_7  and  C_8
REMARK    6  A    between atoms: C_8  and  N_9
REMARK    7  A    between atoms: N_9  and  C_10
REMARK    8  A    between atoms: N_9  and  C_11
REMARK    9  A    between atoms: N_17  and  C_18
REMARK   10  A    between atoms: C_18  and  C_19
REMARK                            x       y       z     vdW  Elec       q    Type
REMARK                         _______ _______ _______ _____ _____    ______ ____
ROOT
ATOM      1  C   UNL     1       2.860   8.867  17.754  0.00  0.00    +0.000 C 
ATOM      2  C   UNL     1       3.197   7.425  17.930  0.00  0.00    +0.000 A 
ATOM      3  C   UNL     1       3.982   6.648  17.085  0.00  0.00    +0.000 A 
ATOM      4  C   UNL     1       4.662   7.013  15.809  0.00  0.00    +0.000 C 
ATOM      5  N   UNL     1       4.050   5.378  17.631  0.00  0.00    +0.000 N 
ATOM      6  C   UNL     1       3.355   5.344  18.819  0.00  0.00    +0.000 A 
ATOM      7  N   UNL     1       3.240   4.273  19.625  0.00  0.00    +0.000 NA
ATOM      8  C   UNL     1       2.467   4.536  20.687  0.00  0.00    +0.000 A 
ATOM      9  N   UNL     1       1.846   5.687  21.006  0.00  0.00    +0.000 NA
ATOM     10  C   UNL     1       1.970   6.747  20.173  0.00  0.00    +0.000 A 
ATOM     11  N   UNL     1       1.256   7.908  20.419  0.00  0.00    +0.000 N 
ATOM     12  C   UNL     1       2.780   6.590  19.020  0.00  0.00    +0.000 A 
ATOM     13  H   UNL     1       1.517   8.691  19.840  0.00  0.00    +0.000 HD
ENDROOT
BRANCH   5  14
ATOM     14  C   UNL     1       4.778   4.245  17.079  0.00  0.00    +0.000 C 
BRANCH  14  15
ATOM     15  C   UNL     1       6.157   3.990  17.694  0.00  0.00    +0.000 C 
BRANCH  15  16
ATOM     16  C   UNL     1       7.260   4.926  17.181  0.00  0.00    +0.000 C 
BRANCH  16  17
ATOM     17  N   UNL     1       7.807   5.843  18.196  0.00  0.00    +0.000 NA
ATOM     18  C   UNL     1       7.659   7.249  17.821  0.00  0.00    +0.000 C 
ATOM     19  C   UNL     1       7.152   5.601  19.486  0.00  0.00    +0.000 C 
ENDBRANCH  16  17
ENDBRANCH  15  16
ENDBRANCH  14  15
ENDBRANCH   5  14
BRANCH  11  20
ATOM     20  C   UNL     1       0.960   8.275  21.787  0.00  0.00    +0.000 C 
BRANCH  20  21
ATOM     21  C   UNL     1       0.106   9.528  21.771  0.00  0.00    +0.000 A 
ATOM     22  C   UNL     1      -0.459   9.998  22.968  0.00  0.00    +0.000 A 
ATOM     23  C   UNL     1      -1.244  11.152  22.983  0.00  0.00    +0.000 A 
ATOM     24  C   UNL     1      -1.475  11.851  21.801  0.00  0.00    +0.000 A 
ATOM     25  C   UNL     1      -0.924  11.394  20.604  0.00  0.00    +0.000 A 
ATOM     26  C   UNL     1      -0.139  10.237  20.587  0.00  0.00    +0.000 A 
ENDBRANCH  20  21
ENDBRANCH  11  20
TORSDOF 6
ENDMDL
MODEL 7
REMARK VINA RESULT:      -6.6      2.170      3.709
REMARK  Name = 
REMARK  10 active torsions:
REMARK  status: ('A' for Active; 'I' for Inactive)
REMARK    1  A    between atoms: C_1  and  C_2
REMARK    2  A    between atoms: C_3  and  C_4
REMARK    3  A    between atoms: N_5  and  C_6
REMARK    4  A    between atoms: C_6  and  C_7
REMARK    5  A    between atoms: C_7  and  C_8
REMARK    6  A    between atoms: C_8  and  N_9
REMARK    7  A    between atoms: N_9  and  C_10
REMARK    8  A    between atoms: N_9  and  C_11
REMARK    9  A    between atoms: N_17  and  C_18
REMARK   10  A    between atoms: C_18  and  C_19
REMARK                            x       y       z     vdW  Elec       q    Type
REMARK                         _______ _______ _______ _____ _____    ______ ____
ROOT
ATOM      1  C   UNL     1       1.376  10.066  18.164  0.00  0.00    +0.000 C 
ATOM      2  C   UNL     1       0.796  10.681  19.393  0.00  0.00    +0.000 A 
ATOM      3  C   UNL     1       0.243  11.952  19.503  0.00  0.00    +0.000 A 
ATOM      4  C   UNL     1       0.097  13.022  18.474  0.00  0.00    +0.000 C 
ATOM      5  N   UNL     1      -0.188  12.108  20.809  0.00  0.00    +0.000 N 
ATOM      6  C   UNL     1       0.049  10.952  21.518  0.00  0.00    +0.000 A 
ATOM      7  N   UNL     1      -0.271  10.749  22.808  0.00  0.00    +0.000 NA
ATOM      8  C   UNL     1       0.123   9.540  23.231  0.00  0.00    +0.000 A 
ATOM      9  N   UNL     1       0.757   8.577  22.537  0.00  0.00    +0.000 NA
ATOM     10  C   UNL     1       1.077   8.810  21.242  0.00  0.00    +0.000 A 
ATOM     11  N   UNL     1       1.823   7.881  20.535  0.00  0.00    +0.000 N 
ATOM     12  C   UNL     1       0.694  10.054  20.680  0.00  0.00    +0.000 A 
ATOM     13  H   UNL     1       1.889   8.063  19.546  0.00  0.00    +0.000 HD
ENDROOT
BRANCH   5  14
ATOM     14  C   UNL     1      -0.838  13.286  21.362  0.00  0.00    +0.000 C 
BRANCH  14  15
ATOM     15  C   UNL     1      -2.362  13.195  21.486  0.00  0.00    +0.000 C 
BRANCH  15  16
ATOM     16  C   UNL     1      -2.885  13.285  22.926  0.00  0.00    +0.000 C 
BRANCH  16  17
ATOM     17  N   UNL     1      -4.071  12.455  23.201  0.00  0.00    +0.000 NA
ATOM     18  C   UNL     1      -4.421  12.428  24.622  0.00  0.00    +0.000 C 
ATOM     19  C   UNL     1      -5.209  12.944  22.418  0.00  0.00    +0.000 C 
ENDBRANCH  16  17
ENDBRANCH  15  16
ENDBRANCH  14  15
ENDBRANCH   5  14
BRANCH  11  20
ATOM     20  C   UNL     1       1.685   6.477  20.856  0.00  0.00    +0.000 C 
BRANCH  20  21
ATOM     21  C   UNL     1       2.136   5.666  19.657  0.00  0.00    +0.000 A 
ATOM     22  C   UNL     1       1.571   4.402  19.421  0.00  0.00    +0.000 A 
ATOM     23  C   UNL     1       1.963   3.637  18.322  0.00  0.00    +0.000 A 
ATOM     24  C   UNL     1       2.927   4.127  17.443  0.00  0.00    +0.000 A 
ATOM     25  C   UNL     1       3.500   5.379  17.666  0.00  0.00    +0.000 A 
ATOM     26  C   UNL     1       3.110   6.145  18.769  0.00  0.00    +0.000 A 
ENDBRANCH  20  21
ENDBRANCH  11  20
TORSDOF 6
ENDMDL
MODEL 8
REMARK VINA RESULT:      -6.6      1.317      1.461
REMARK  Name = 
REMARK  10 active torsions:
REMARK  status: ('A' for Active; 'I' for Inactive)
REMARK    1  A    between atoms: C_1  and  C_2
REMARK    2  A    between atoms: C_3  and  C_4
REMARK    3  A    between atoms: N_5  and  C_6
REMARK    4  A    between atoms: C_6  and  C_7
REMARK    5  A    between atoms: C_7  and  C_8
REMARK    6  A    between atoms: C_8  and  N_9
REMARK    7  A    between atoms: N_9  and  C_10
REMARK    8  A    between atoms: N_9  and  C_11
REMARK    9  A    between atoms: N_17  and  C_18
REMARK   10  A    between atoms: C_18  and  C_19
REMARK                            x       y       z     vdW  Elec       q    Type
REMARK                         _______ _______ _______ _____ _____    ______ ____
ROOT
ATOM      1  C   UNL     1       0.292   9.300  23.288  0.00  0.00    +0.000 C 
ATOM      2  C   UNL     1      -0.007  10.107  22.070  0.00  0.00    +0.000 A 
ATOM      3  C   UNL     1      -0.689  11.317  22.023  0.00  0.00    +0.000 A 
ATOM      4  C   UNL     1      -1.307  12.108  23.127  0.00  0.00    +0.000 C 
ATOM      5  N   UNL     1      -0.726  11.725  20.701  0.00  0.00    +0.000 N 
ATOM      6  C   UNL     1      -0.054  10.817  19.915  0.00  0.00    +0.000 A 
ATOM      7  N   UNL     1       0.127  10.918  18.586  0.00  0.00    +0.000 NA
ATOM      8  C   UNL     1       0.785   9.858  18.096  0.00  0.00    +0.000 A 
ATOM      9  N   UNL     1       1.255   8.785  18.757  0.00  0.00    +0.000 NA
ATOM     10  C   UNL     1       1.051   8.702  20.093  0.00  0.00    +0.000 A 
ATOM     11  N   UNL     1       1.428   7.561  20.782  0.00  0.00    +0.000 N 
ATOM     12  C   UNL     1       0.377   9.777  20.727  0.00  0.00    +0.000 A 
ATOM     13  H   UNL     1       1.376   7.642  21.786  0.00  0.00    +0.000 HD
ENDROOT
BRANCH   5  14
ATOM     14  C   UNL     1      -1.336  12.946  20.197  0.00  0.00    +0.000 C 
BRANCH  14  15
ATOM     15  C   UNL     1      -2.865  12.923  20.103  0.00  0.00    +0.000 C 
BRANCH  15  16
ATOM     16  C   UNL     1      -3.416  12.020  18.991  0.00  0.00    +0.000 C 
BRANCH  16  17
ATOM     17  N   UNL     1      -4.867  12.141  18.765  0.00  0.00    +0.000 NA
ATOM     18  C   UNL     1      -5.471  10.888  18.311  0.00  0.00    +0.000 C 
ATOM     19  C   UNL     1      -5.523  12.592  19.996  0.00  0.00    +0.000 C 
ENDBRANCH  16  17
ENDBRANCH  15  16
ENDBRANCH  14  15
ENDBRANCH   5  14
BRANCH  11  20
ATOM     20  C   UNL     1       2.574   6.807  20.321  0.00  0.00    +0.000 C 
BRANCH  20  21
ATOM     21  C   UNL     1       2.082   5.488  19.757  0.00  0.00    +0.000 A 
ATOM     22  C   UNL     1       2.279   5.198  18.397  0.00  0.00    +0.000 A 
ATOM     23  C   UNL     1       1.843   3.989  17.854  0.00  0.00    +0.000 A 
ATOM     24  C   UNL     1       1.202   3.054  18.664  0.00  0.00    +0.000 A 
ATOM     25  C   UNL     1       0.995   3.330  20.015  0.00  0.00    +0.000 A 
ATOM     26  C   UNL     1       1.430   4.541  20.560  0.00  0.00    +0.000 A 
ENDBRANCH  20  21
ENDBRANCH  11  20
TORSDOF 6
ENDMDL
MODEL 9
REMARK VINA RESULT:      -6.5      2.819      7.906
REMARK  Name = 
REMARK  10 active torsions:
REMARK  status: ('A' for Active; 'I' for Inactive)
REMARK    1  A    between atoms: C_1  and  C_2
REMARK    2  A    between atoms: C_3  and  C_4
REMARK    3  A    between atoms: N_5  and  C_6
REMARK    4  A    between atoms: C_6  and  C_7
REMARK    5  A    between atoms: C_7  and  C_8
REMARK    6  A    between atoms: C_8  and  N_9
REMARK    7  A    between atoms: N_9  and  C_10
REMARK    8  A    between atoms: N_9  and  C_11
REMARK    9  A    between atoms: N_17  and  C_18
REMARK   10  A    between atoms: C_18  and  C_19
REMARK                            x       y       z     vdW  Elec       q    Type
REMARK                         _______ _______ _______ _____ _____    ______ ____
ROOT
ATOM      1  C   UNL     1       1.445   4.844  20.517  0.00  0.00    +0.000 C 
ATOM      2  C   UNL     1       2.435   4.943  19.406  0.00  0.00    +0.000 A 
ATOM      3  C   UNL     1       3.164   3.898  18.849  0.00  0.00    +0.000 A 
ATOM      4  C   UNL     1       3.178   2.449  19.202  0.00  0.00    +0.000 C 
ATOM      5  N   UNL     1       3.947   4.429  17.838  0.00  0.00    +0.000 N 
ATOM      6  C   UNL     1       3.704   5.778  17.721  0.00  0.00    +0.000 A 
ATOM      7  N   UNL     1       4.274   6.598  16.821  0.00  0.00    +0.000 NA
ATOM      8  C   UNL     1       3.869   7.866  16.981  0.00  0.00    +0.000 A 
ATOM      9  N   UNL     1       3.004   8.360  17.886  0.00  0.00    +0.000 NA
ATOM     10  C   UNL     1       2.451   7.515  18.788  0.00  0.00    +0.000 A 
ATOM     11  N   UNL     1       1.643   8.012  19.797  0.00  0.00    +0.000 N 
ATOM     12  C   UNL     1       2.795   6.142  18.705  0.00  0.00    +0.000 A 
ATOM     13  H   UNL     1       1.158   7.307  20.330  0.00  0.00    +0.000 HD
ENDROOT
BRANCH   5  14
ATOM     14  C   UNL     1       4.861   3.687  16.984  0.00  0.00    +0.000 C 
BRANCH  14  15
ATOM     15  C   UNL     1       6.090   4.467  16.506  0.00  0.00    +0.000 C 
BRANCH  15  16
ATOM     16  C   UNL     1       7.320   4.325  17.412  0.00  0.00    +0.000 C 
BRANCH  16  17
ATOM     17  N   UNL     1       7.669   5.541  18.169  0.00  0.00    +0.000 NA
ATOM     18  C   UNL     1       7.410   6.767  17.414  0.00  0.00    +0.000 C 
ATOM     19  C   UNL     1       6.923   5.568  19.431  0.00  0.00    +0.000 C 
ENDBRANCH  16  17
ENDBRANCH  15  16
ENDBRANCH  14  15
ENDBRANCH   5  14
BRANCH  11  20
ATOM     20  C   UNL     1       0.847   9.193  19.543  0.00  0.00    +0.000 C 
BRANCH  20  21
ATOM     21  C   UNL     1       0.242   9.653  20.855  0.00  0.00    +0.000 A 
ATOM     22  C   UNL     1      -0.530  10.826  20.891  0.00  0.00    +0.000 A 
ATOM     23  C   UNL     1      -1.103  11.268  22.083  0.00  0.00    +0.000 A 
ATOM     24  C   UNL     1      -0.911  10.544  23.258  0.00  0.00    +0.000 A 
ATOM     25  C   UNL     1      -0.143   9.380  23.239  0.00  0.00    +0.000 A 
ATOM     26  C   UNL     1       0.434   8.937  22.045  0.00  0.00    +0.000 A 
ENDBRANCH  20  21
ENDBRANCH  11  20
TORSDOF 6
ENDMDL
