MODEL 1
REMARK VINA RESULT:      -6.5      0.000      0.000
REMARK  Name = 
REMARK  8 active torsions:
REMARK  status: ('A' for Active; 'I' for Inactive)
REMARK    1  A    between atoms: C_1  and  C_2
REMARK    2  A    between atoms: C_2  and  C_3
REMARK    3  A    between atoms: C_3  and  N_4
REMARK    4  A    between atoms: N_4  and  C_5
REMARK    5  A    between atoms: C_31  and  N_32
REMARK    6  A    between atoms: N_32  and  C_33
REMARK    7  A    between atoms: C_33  and  C_34
REMARK    8  A    between atoms: C_34  and  C_35
REMARK                            x       y       z     vdW  Elec       q    Type
REMARK                         _______ _______ _______ _____ _____    ______ ____
ROOT
ATOM      1  C   UNL     1       1.237  12.110  20.268  0.00  0.00    +0.000 C 
ATOM      2  C   UNL     1       1.865  12.068  18.824  0.00  0.00    +0.000 C 
ATOM      3  O   UNL     1       1.923  10.740  18.279  0.00  0.00    +0.000 OA
ATOM      4  C   UNL     1       0.595  10.209  18.177  0.00  0.00    +0.000 C 
ATOM      5  C   UNL     1      -0.066  10.125  19.558  0.00  0.00    +0.000 C 
ATOM      6  N   UNL     1      -0.080  11.430  20.245  0.00  0.00    +0.000 N 
ATOM      7  C   UNL     1      -1.287  12.100  20.322  0.00  0.00    +0.000 A 
ATOM      8  N   UNL     1      -1.511  12.912  21.355  0.00  0.00    +0.000 NA
ATOM      9  C   UNL     1      -2.680  13.519  21.491  0.00  0.00    +0.000 A 
ATOM     10  N   UNL     1      -2.949  14.413  22.556  0.00  0.00    +0.000 N 
ATOM     11  C   UNL     1      -1.856  14.810  23.439  0.00  0.00    +0.000 C 
ATOM     12  C   UNL     1      -1.890  16.276  23.838  0.00  0.00    +0.000 C 
ATOM     13  C   UNL     1      -3.236  16.742  24.342  0.00  0.00    +0.000 C 
ATOM     14  C   UNL     1      -4.392  15.906  23.873  0.00  0.00    +0.000 A 
ATOM     15  C   UNL     1      -5.682  16.291  24.293  0.00  0.00    +0.000 A 
ATOM     16  C   UNL     1      -6.793  15.533  23.961  0.00  0.00    +0.000 A 
ATOM     17  C   UNL     1      -6.632  14.365  23.233  0.00  0.00    +0.000 A 
ATOM     18  C   UNL     1      -5.361  13.985  22.800  0.00  0.00    +0.000 A 
ATOM     19  C   UNL     1      -4.222  14.762  23.069  0.00  0.00    +0.000 A 
ATOM     20  N   UNL     1      -3.631  13.286  20.603  0.00  0.00    +0.000 NA
ATOM     21  C   UNL     1      -3.417  12.382  19.653  0.00  0.00    +0.000 A 
ATOM     22  N   UNL     1      -4.492  12.106  18.842  0.00  0.00    +0.000 N 
ATOM     23  C   UNL     1      -5.560  13.112  18.732  0.00  0.00    +0.000 C 
ATOM     24  C   UNL     1      -6.908  12.457  19.036  0.00  0.00    +0.000 C 
ATOM     25  O   UNL     1      -7.143  11.359  18.151  0.00  0.00    +0.000 OA
ATOM     26  C   UNL     1      -6.107  10.372  18.300  0.00  0.00    +0.000 C 
ATOM     27  C   UNL     1      -4.653  10.921  17.996  0.00  0.00    +0.000 C 
ATOM     28  N   UNL     1      -2.254  11.776  19.479  0.00  0.00    +0.000 NA
ENDROOT
BRANCH   1  29
ATOM     29  N   UNL     1       1.514  13.460  20.778  0.00  0.00    +0.000 NA
ATOM     30  H   UNL     1       0.823  13.709  21.481  0.00  0.00    +0.000 HD
BRANCH  29  31
ATOM     31  C   UNL     1       1.536  14.487  19.756  0.00  0.00    +0.000 C 
BRANCH  31  33
ATOM     32  C   UNL     1       0.722  16.511  18.585  0.00  0.00    +0.000 C 
ATOM     33  C   UNL     1       0.378  15.451  19.595  0.00  0.00    +0.000 C 
ENDBRANCH  31  33
ENDBRANCH  29  31
ENDBRANCH   1  29
BRANCH  27  34
ATOM     34  N   UNL     1      -3.683   9.811  18.004  0.00  0.00    +0.000 NA
ATOM     35  H   UNL     1      -4.182   8.941  18.166  0.00  0.00    +0.000 HD
BRANCH  34  36
ATOM     36  C   UNL     1      -2.861   9.764  16.804  0.00  0.00    +0.000 C 
BRANCH  36  37
ATOM     37  C   UNL     1      -3.278  10.803  15.766  0.00  0.00    +0.000 C 
ATOM     38  C   UNL     1      -3.336  10.138  14.397  0.00  0.00    +0.000 C 
ENDBRANCH  36  37
ENDBRANCH  34  36
ENDBRANCH  27  34
TORSDOF 6
ENDMDL
MODEL 2
REMARK VINA RESULT:      -6.5      1.702      5.749
REMARK  Name = 
REMARK  8 active torsions:
REMARK  status: ('A' for Active; 'I' for Inactive)
REMARK    1  A    between atoms: C_1  and  C_2
REMARK    2  A    between atoms: C_2  and  C_3
REMARK    3  A    between atoms: C_3  and  N_4
REMARK    4  A    between atoms: N_4  and  C_5
REMARK    5  A    between atoms: C_31  and  N_32
REMARK    6  A    between atoms: N_32  and  C_33
REMARK    7  A    between atoms: C_33  and  C_34
REMARK    8  A    between atoms: C_34  and  C_35
REMARK                            x       y       z     vdW  Elec       q    Type
REMARK                         _______ _______ _______ _____ _____    ______ ____
ROOT
ATOM      1  C   UNL     1      -7.044  12.625  20.215  0.00  0.00    +0.000 C 
ATOM      2  C   UNL     1      -7.317  11.076  20.126  0.00  0.00    +0.000 C 
ATOM      3  O   UNL     1      -7.166  10.559  18.794  0.00  0.00    +0.000 OA
ATOM      4  C   UNL     1      -5.820  10.775  18.350  0.00  0.00    +0.000 C 
ATOM      5  C   UNL     1      -5.493  12.272  18.315  0.00  0.00    +0.000 C 
ATOM      6  N   UNL     1      -5.719  12.919  19.621  0.00  0.00    +0.000 N 
ATOM      7  C   UNL     1      -4.605  13.259  20.368  0.00  0.00    +0.000 A 
ATOM      8  N   UNL     1      -4.677  14.300  21.198  0.00  0.00    +0.000 NA
ATOM      9  C   UNL     1      -3.611  14.690  21.880  0.00  0.00    +0.000 A 
ATOM     10  N   UNL     1      -3.651  15.771  22.794  0.00  0.00    +0.000 N 
ATOM     11  C   UNL     1      -4.941  16.370  23.124  0.00  0.00    +0.000 C 
ATOM     12  C   UNL     1      -5.090  16.737  24.591  0.00  0.00    +0.000 C 
ATOM     13  C   UNL     1      -3.929  17.529  25.145  0.00  0.00    +0.000 C 
ATOM     14  C   UNL     1      -2.646  17.355  24.383  0.00  0.00    +0.000 A 
ATOM     15  C   UNL     1      -1.515  18.053  24.853  0.00  0.00    +0.000 A 
ATOM     16  C   UNL     1      -0.313  18.001  24.167  0.00  0.00    +0.000 A 
ATOM     17  C   UNL     1      -0.229  17.279  22.987  0.00  0.00    +0.000 A 
ATOM     18  C   UNL     1      -1.339  16.572  22.524  0.00  0.00    +0.000 A 
ATOM     19  C   UNL     1      -2.555  16.556  23.227  0.00  0.00    +0.000 A 
ATOM     20  N   UNL     1      -2.468  14.049  21.704  0.00  0.00    +0.000 NA
ATOM     21  C   UNL     1      -2.400  13.094  20.784  0.00  0.00    +0.000 A 
ATOM     22  N   UNL     1      -1.151  12.558  20.574  0.00  0.00    +0.000 N 
ATOM     23  C   UNL     1      -0.151  12.677  21.646  0.00  0.00    +0.000 C 
ATOM     24  C   UNL     1       1.128  13.296  21.081  0.00  0.00    +0.000 C 
ATOM     25  O   UNL     1       1.628  12.510  19.997  0.00  0.00    +0.000 OA
ATOM     26  C   UNL     1       0.649  12.436  18.945  0.00  0.00    +0.000 C 
ATOM     27  C   UNL     1      -0.727  11.794  19.398  0.00  0.00    +0.000 C 
ATOM     28  N   UNL     1      -3.452  12.668  20.104  0.00  0.00    +0.000 NA
ENDROOT
BRANCH   1  29
ATOM     29  N   UNL     1      -7.514  13.031  21.547  0.00  0.00    +0.000 NA
ATOM     30  H   UNL     1      -7.165  13.960  21.765  0.00  0.00    +0.000 HD
BRANCH  29  31
ATOM     31  C   UNL     1      -7.135  12.124  22.612  0.00  0.00    +0.000 C 
BRANCH  31  33
ATOM     32  C   UNL     1      -5.425  12.628  24.329  0.00  0.00    +0.000 C 
ATOM     33  C   UNL     1      -6.896  12.631  24.019  0.00  0.00    +0.000 C 
ENDBRANCH  31  33
ENDBRANCH  29  31
ENDBRANCH   1  29
BRANCH  27  34
ATOM     34  N   UNL     1      -1.602  11.600  18.228  0.00  0.00    +0.000 NA
ATOM     35  H   UNL     1      -1.422  12.342  17.557  0.00  0.00    +0.000 HD
BRANCH  34  36
ATOM     36  C   UNL     1      -1.479  10.276  17.637  0.00  0.00    +0.000 C 
BRANCH  36  37
ATOM     37  C   UNL     1      -2.706   9.882  16.820  0.00  0.00    +0.000 C 
ATOM     38  C   UNL     1      -2.809  10.803  15.610  0.00  0.00    +0.000 C 
ENDBRANCH  36  37
ENDBRANCH  34  36
ENDBRANCH  27  34
TORSDOF 6
ENDMDL
MODEL 3
REMARK VINA RESULT:      -6.1      2.387      6.613
REMARK  Name = 
REMARK  8 active torsions:
REMARK  status: ('A' for Active; 'I' for Inactive)
REMARK    1  A    between atoms: C_1  and  C_2
REMARK    2  A    between atoms: C_2  and  C_3
REMARK    3  A    between atoms: C_3  and  N_4
REMARK    4  A    between atoms: N_4  and  C_5
REMARK    5  A    between atoms: C_31  and  N_32
REMARK    6  A    between atoms: N_32  and  C_33
REMARK    7  A    between atoms: C_33  and  C_34
REMARK    8  A    between atoms: C_34  and  C_35
REMARK                            x       y       z     vdW  Elec       q    Type
REMARK                         _______ _______ _______ _____ _____    ______ ____
ROOT
ATOM      1  C   UNL     1       2.166  14.002  18.514  0.00  0.00    +0.000 C 
ATOM      2  C   UNL     1       3.499  13.792  19.328  0.00  0.00    +0.000 C 
ATOM      3  O   UNL     1       3.941  14.989  19.990  0.00  0.00    +0.000 OA
ATOM      4  C   UNL     1       2.940  15.413  20.924  0.00  0.00    +0.000 C 
ATOM      5  C   UNL     1       1.624  15.731  20.205  0.00  0.00    +0.000 C 
ATOM      6  N   UNL     1       1.139  14.589  19.407  0.00  0.00    +0.000 N 
ATOM      7  C   UNL     1       0.057  13.880  19.896  0.00  0.00    +0.000 A 
ATOM      8  N   UNL     1      -0.762  13.276  19.035  0.00  0.00    +0.000 NA
ATOM      9  C   UNL     1      -1.843  12.644  19.468  0.00  0.00    +0.000 A 
ATOM     10  N   UNL     1      -2.723  11.964  18.591  0.00  0.00    +0.000 N 
ATOM     11  C   UNL     1      -2.345  11.811  17.188  0.00  0.00    +0.000 C 
ATOM     12  C   UNL     1      -2.695  10.452  16.603  0.00  0.00    +0.000 C 
ATOM     13  C   UNL     1      -4.118  10.020  16.866  0.00  0.00    +0.000 C 
ATOM     14  C   UNL     1      -4.752  10.681  18.057  0.00  0.00    +0.000 A 
ATOM     15  C   UNL     1      -6.076  10.315  18.372  0.00  0.00    +0.000 A 
ATOM     16  C   UNL     1      -6.755  10.929  19.412  0.00  0.00    +0.000 A 
ATOM     17  C   UNL     1      -6.136  11.938  20.133  0.00  0.00    +0.000 A 
ATOM     18  C   UNL     1      -4.819  12.296  19.838  0.00  0.00    +0.000 A 
ATOM     19  C   UNL     1      -4.084  11.652  18.829  0.00  0.00    +0.000 A 
ATOM     20  N   UNL     1      -2.111  12.644  20.762  0.00  0.00    +0.000 NA
ATOM     21  C   UNL     1      -1.341  13.353  21.579  0.00  0.00    +0.000 A 
ATOM     22  N   UNL     1      -1.752  13.403  22.890  0.00  0.00    +0.000 N 
ATOM     23  C   UNL     1      -2.636  12.337  23.385  0.00  0.00    +0.000 C 
ATOM     24  C   UNL     1      -3.875  12.962  24.028  0.00  0.00    +0.000 C 
ATOM     25  O   UNL     1      -3.498  13.849  25.084  0.00  0.00    +0.000 OA
ATOM     26  C   UNL     1      -2.663  14.903  24.572  0.00  0.00    +0.000 C 
ATOM     27  C   UNL     1      -1.330  14.386  23.890  0.00  0.00    +0.000 C 
ATOM     28  N   UNL     1      -0.244  13.977  21.181  0.00  0.00    +0.000 NA
ENDROOT
BRANCH   1  29
ATOM     29  N   UNL     1       2.018  12.795  17.687  0.00  0.00    +0.000 NA
ATOM     30  H   UNL     1       1.064  12.731  17.343  0.00  0.00    +0.000 HD
BRANCH  29  31
ATOM     31  C   UNL     1       2.356  11.563  18.369  0.00  0.00    +0.000 C 
BRANCH  31  33
ATOM     32  C   UNL     1       0.713   9.898  19.181  0.00  0.00    +0.000 C 
ATOM     33  C   UNL     1       1.631  10.272  18.050  0.00  0.00    +0.000 C 
ENDBRANCH  31  33
ENDBRANCH  29  31
ENDBRANCH   1  29
BRANCH  27  34
ATOM     34  N   UNL     1      -0.461  15.528  23.552  0.00  0.00    +0.000 NA
ATOM     35  H   UNL     1      -0.508  15.690  22.549  0.00  0.00    +0.000 HD
BRANCH  34  36
ATOM     36  C   UNL     1      -0.768  16.725  24.321  0.00  0.00    +0.000 C 
BRANCH  36  37
ATOM     37  C   UNL     1       0.198  16.938  25.484  0.00  0.00    +0.000 C 
ATOM     38  C   UNL     1      -0.603  17.079  26.772  0.00  0.00    +0.000 C 
ENDBRANCH  36  37
ENDBRANCH  34  36
ENDBRANCH  27  34
TORSDOF 6
ENDMDL
MODEL 4
REMARK VINA RESULT:      -6.1      2.058      5.704
REMARK  Name = 
REMARK  8 active torsions:
REMARK  status: ('A' for Active; 'I' for Inactive)
REMARK    1  A    between atoms: C_1  and  C_2
REMARK    2  A    between atoms: C_2  and  C_3
REMARK    3  A    between atoms: C_3  and  N_4
REMARK    4  A    between atoms: N_4  and  C_5
REMARK    5  A    between atoms: C_31  and  N_32
REMARK    6  A    between atoms: N_32  and  C_33
REMARK    7  A    between atoms: C_33  and  C_34
REMARK    8  A    between atoms: C_34  and  C_35
REMARK                            x       y       z     vdW  Elec       q    Type
REMARK                         _______ _______ _______ _____ _____    ______ ____
ROOT
ATOM      1  C   UNL     1      -0.835  10.941  18.292  0.00  0.00    +0.000 C 
ATOM      2  C   UNL     1       0.483  10.145  18.624  0.00  0.00    +0.000 C 
ATOM      3  O   UNL     1       1.671  10.830  18.193  0.00  0.00    +0.000 OA
ATOM      4  C   UNL     1       1.762  12.093  18.865  0.00  0.00    +0.000 C 
ATOM      5  C   UNL     1       0.556  12.978  18.525  0.00  0.00    +0.000 C 
ATOM      6  N   UNL     1      -0.724  12.314  18.837  0.00  0.00    +0.000 N 
ATOM      7  C   UNL     1      -1.418  12.754  19.949  0.00  0.00    +0.000 A 
ATOM      8  N   UNL     1      -2.747  12.651  19.964  0.00  0.00    +0.000 NA
ATOM      9  C   UNL     1      -3.445  13.120  20.986  0.00  0.00    +0.000 A 
ATOM     10  N   UNL     1      -4.856  13.005  21.056  0.00  0.00    +0.000 N 
ATOM     11  C   UNL     1      -5.549  12.199  20.055  0.00  0.00    +0.000 C 
ATOM     12  C   UNL     1      -6.691  11.369  20.618  0.00  0.00    +0.000 C 
ATOM     13  C   UNL     1      -7.645  12.152  21.489  0.00  0.00    +0.000 C 
ATOM     14  C   UNL     1      -7.053  13.397  22.085  0.00  0.00    +0.000 A 
ATOM     15  C   UNL     1      -7.883  14.171  22.922  0.00  0.00    +0.000 A 
ATOM     16  C   UNL     1      -7.435  15.369  23.455  0.00  0.00    +0.000 A 
ATOM     17  C   UNL     1      -6.167  15.829  23.136  0.00  0.00    +0.000 A 
ATOM     18  C   UNL     1      -5.334  15.061  22.321  0.00  0.00    +0.000 A 
ATOM     19  C   UNL     1      -5.736  13.815  21.814  0.00  0.00    +0.000 A 
ATOM     20  N   UNL     1      -2.808  13.716  21.979  0.00  0.00    +0.000 NA
ATOM     21  C   UNL     1      -1.497  13.907  21.880  0.00  0.00    +0.000 A 
ATOM     22  N   UNL     1      -0.925  14.640  22.892  0.00  0.00    +0.000 N 
ATOM     23  C   UNL     1      -1.625  14.711  24.184  0.00  0.00    +0.000 C 
ATOM     24  C   UNL     1      -1.797  16.177  24.588  0.00  0.00    +0.000 C 
ATOM     25  O   UNL     1      -0.527  16.830  24.655  0.00  0.00    +0.000 OA
ATOM     26  C   UNL     1       0.125  16.779  23.373  0.00  0.00    +0.000 C 
ATOM     27  C   UNL     1       0.378  15.308  22.844  0.00  0.00    +0.000 C 
ATOM     28  N   UNL     1      -0.770  13.432  20.882  0.00  0.00    +0.000 NA
ENDROOT
BRANCH   1  29
ATOM     29  N   UNL     1      -1.935   9.994  18.528  0.00  0.00    +0.000 NA
ATOM     30  H   UNL     1      -1.561   9.055  18.633  0.00  0.00    +0.000 HD
BRANCH  29  31
ATOM     31  C   UNL     1      -2.944   9.985  17.489  0.00  0.00    +0.000 C 
BRANCH  31  33
ATOM     32  C   UNL     1      -3.406  10.749  15.180  0.00  0.00    +0.000 C 
ATOM     33  C   UNL     1      -2.558   9.843  16.030  0.00  0.00    +0.000 C 
ENDBRANCH  31  33
ENDBRANCH  29  31
ENDBRANCH   1  29
BRANCH  27  34
ATOM     34  N   UNL     1       1.198  15.346  21.619  0.00  0.00    +0.000 NA
ATOM     35  H   UNL     1       0.925  14.572  21.019  0.00  0.00    +0.000 HD
BRANCH  34  36
ATOM     36  C   UNL     1       1.137  16.628  20.934  0.00  0.00    +0.000 C 
BRANCH  36  37
ATOM     37  C   UNL     1       0.423  16.539  19.588  0.00  0.00    +0.000 C 
ATOM     38  C   UNL     1       1.327  17.123  18.510  0.00  0.00    +0.000 C 
ENDBRANCH  36  37
ENDBRANCH  34  36
ENDBRANCH  27  34
TORSDOF 6
ENDMDL
MODEL 5
REMARK VINA RESULT:      -6.0      7.377     10.493
REMARK  Name = 
REMARK  8 active torsions:
REMARK  status: ('A' for Active; 'I' for Inactive)
REMARK    1  A    between atoms: C_1  and  C_2
REMARK    2  A    between atoms: C_2  and  C_3
REMARK    3  A    between atoms: C_3  and  N_4
REMARK    4  A    between atoms: N_4  and  C_5
REMARK    5  A    between atoms: C_31  and  N_32
REMARK    6  A    between atoms: N_32  and  C_33
REMARK    7  A    between atoms: C_33  and  C_34
REMARK    8  A    between atoms: C_34  and  C_35
REMARK                            x       y       z     vdW  Elec       q    Type
REMARK                         _______ _______ _______ _____ _____    ______ ____
ROOT
ATOM      1  C   UNL     1       5.886  12.974  25.202  0.00  0.00    +0.000 C 
ATOM      2  C   UNL     1       7.134  13.230  26.130  0.00  0.00    +0.000 C 
ATOM      3  O   UNL     1       8.106  12.174  26.059  0.00  0.00    +0.000 OA
ATOM      4  C   UNL     1       8.596  12.067  24.716  0.00  0.00    +0.000 C 
ATOM      5  C   UNL     1       7.457  11.726  23.747  0.00  0.00    +0.000 C 
ATOM      6  N   UNL     1       6.354  12.703  23.822  0.00  0.00    +0.000 N 
ATOM      7  C   UNL     1       6.225  13.604  22.781  0.00  0.00    +0.000 A 
ATOM      8  N   UNL     1       5.016  14.077  22.482  0.00  0.00    +0.000 NA
ATOM      9  C   UNL     1       4.850  14.891  21.451  0.00  0.00    +0.000 A 
ATOM     10  N   UNL     1       3.588  15.441  21.116  0.00  0.00    +0.000 N 
ATOM     11  C   UNL     1       2.465  15.240  22.028  0.00  0.00    +0.000 C 
ATOM     12  C   UNL     1       1.573  16.460  22.182  0.00  0.00    +0.000 C 
ATOM     13  C   UNL     1       1.146  17.076  20.870  0.00  0.00    +0.000 C 
ATOM     14  C   UNL     1       2.057  16.762  19.718  0.00  0.00    +0.000 A 
ATOM     15  C   UNL     1       1.728  17.316  18.463  0.00  0.00    +0.000 A 
ATOM     16  C   UNL     1       2.477  17.018  17.337  0.00  0.00    +0.000 A 
ATOM     17  C   UNL     1       3.545  16.139  17.437  0.00  0.00    +0.000 A 
ATOM     18  C   UNL     1       3.886  15.600  18.678  0.00  0.00    +0.000 A 
ATOM     19  C   UNL     1       3.184  15.928  19.849  0.00  0.00    +0.000 A 
ATOM     20  N   UNL     1       5.896  15.206  20.707  0.00  0.00    +0.000 NA
ATOM     21  C   UNL     1       7.064  14.626  20.960  0.00  0.00    +0.000 A 
ATOM     22  N   UNL     1       8.074  14.910  20.071  0.00  0.00    +0.000 N 
ATOM     23  C   UNL     1       7.974  16.140  19.271  0.00  0.00    +0.000 C 
ATOM     24  C   UNL     1       8.137  15.797  17.790  0.00  0.00    +0.000 C 
ATOM     25  O   UNL     1       9.385  15.136  17.563  0.00  0.00    +0.000 OA
ATOM     26  C   UNL     1       9.446  13.919  18.327  0.00  0.00    +0.000 C 
ATOM     27  C   UNL     1       9.306  14.138  19.890  0.00  0.00    +0.000 C 
ATOM     28  N   UNL     1       7.265  13.826  21.994  0.00  0.00    +0.000 NA
ENDROOT
BRANCH   1  29
ATOM     29  N   UNL     1       4.886  13.974  25.605  0.00  0.00    +0.000 NA
ATOM     30  H   UNL     1       4.741  14.637  24.848  0.00  0.00    +0.000 HD
BRANCH  29  31
ATOM     31  C   UNL     1       5.227  14.702  26.809  0.00  0.00    +0.000 C 
BRANCH  31  33
ATOM     32  C   UNL     1       4.299  16.707  25.693  0.00  0.00    +0.000 C 
ATOM     33  C   UNL     1       5.079  16.208  26.878  0.00  0.00    +0.000 C 
ENDBRANCH  31  33
ENDBRANCH  29  31
ENDBRANCH   1  29
BRANCH  27  34
ATOM     34  N   UNL     1       9.552  12.871  20.602  0.00  0.00    +0.000 NA
ATOM     35  H   UNL     1       8.689  12.575  21.052  0.00  0.00    +0.000 HD
BRANCH  34  36
ATOM     36  C   UNL     1      10.113  11.837  19.746  0.00  0.00    +0.000 C 
BRANCH  36  37
ATOM     37  C   UNL     1       9.359  10.514  19.852  0.00  0.00    +0.000 C 
ATOM     38  C   UNL     1       8.947  10.067  18.456  0.00  0.00    +0.000 C 
ENDBRANCH  36  37
ENDBRANCH  34  36
ENDBRANCH  27  34
TORSDOF 6
ENDMDL
MODEL 6
REMARK VINA RESULT:      -6.0      2.568      8.313
REMARK  Name = 
REMARK  8 active torsions:
REMARK  status: ('A' for Active; 'I' for Inactive)
REMARK    1  A    between atoms: C_1  and  C_2
REMARK    2  A    between atoms: C_2  and  C_3
REMARK    3  A    between atoms: C_3  and  N_4
REMARK    4  A    between atoms: N_4  and  C_5
REMARK    5  A    between atoms: C_31  and  N_32
REMARK    6  A    between atoms: N_32  and  C_33
REMARK    7  A    between atoms: C_33  and  C_34
REMARK    8  A    between atoms: C_34  and  C_35
REMARK                            x       y       z     vdW  Elec       q    Type
REMARK                         _______ _______ _______ _____ _____    ______ ____
ROOT
ATOM      1  C   UNL     1      -5.274  15.758  24.069  0.00  0.00    +0.000 C 
ATOM      2  C   UNL     1      -5.230  17.303  24.378  0.00  0.00    +0.000 C 
ATOM      3  O   UNL     1      -4.400  17.621  25.508  0.00  0.00    +0.000 OA
ATOM      4  C   UNL     1      -3.054  17.206  25.242  0.00  0.00    +0.000 C 
ATOM      5  C   UNL     1      -2.986  15.691  25.018  0.00  0.00    +0.000 C 
ATOM      6  N   UNL     1      -3.888  15.249  23.938  0.00  0.00    +0.000 N 
ATOM      7  C   UNL     1      -3.316  14.894  22.731  0.00  0.00    +0.000 A 
ATOM      8  N   UNL     1      -3.925  13.986  21.969  0.00  0.00    +0.000 NA
ATOM      9  C   UNL     1      -3.370  13.577  20.838  0.00  0.00    +0.000 A 
ATOM     10  N   UNL     1      -3.997  12.637  19.984  0.00  0.00    +0.000 N 
ATOM     11  C   UNL     1      -5.369  12.227  20.271  0.00  0.00    +0.000 C 
ATOM     12  C   UNL     1      -6.235  12.073  19.031  0.00  0.00    +0.000 C 
ATOM     13  C   UNL     1      -5.602  11.243  17.940  0.00  0.00    +0.000 C 
ATOM     14  C   UNL     1      -4.103  11.177  18.008  0.00  0.00    +0.000 A 
ATOM     15  C   UNL     1      -3.442  10.430  17.012  0.00  0.00    +0.000 A 
ATOM     16  C   UNL     1      -2.067  10.264  17.044  0.00  0.00    +0.000 A 
ATOM     17  C   UNL     1      -1.335  10.811  18.086  0.00  0.00    +0.000 A 
ATOM     18  C   UNL     1      -1.979  11.565  19.067  0.00  0.00    +0.000 A 
ATOM     19  C   UNL     1      -3.363  11.803  19.031  0.00  0.00    +0.000 A 
ATOM     20  N   UNL     1      -2.191  14.064  20.489  0.00  0.00    +0.000 NA
ATOM     21  C   UNL     1      -1.557  14.877  21.325  0.00  0.00    +0.000 A 
ATOM     22  N   UNL     1      -0.287  15.245  20.950  0.00  0.00    +0.000 N 
ATOM     23  C   UNL     1       0.071  15.163  19.526  0.00  0.00    +0.000 C 
ATOM     24  C   UNL     1       1.352  14.341  19.371  0.00  0.00    +0.000 C 
ATOM     25  O   UNL     1       2.413  14.920  20.135  0.00  0.00    +0.000 OA
ATOM     26  C   UNL     1       2.056  14.959  21.528  0.00  0.00    +0.000 C 
ATOM     27  C   UNL     1       0.747  15.798  21.828  0.00  0.00    +0.000 C 
ATOM     28  N   UNL     1      -2.094  15.319  22.451  0.00  0.00    +0.000 NA
ENDROOT
BRANCH   1  29
ATOM     29  N   UNL     1      -6.364  15.584  23.098  0.00  0.00    +0.000 NA
ATOM     30  H   UNL     1      -6.460  16.426  22.537  0.00  0.00    +0.000 HD
BRANCH  29  31
ATOM     31  C   UNL     1      -7.645  15.267  23.695  0.00  0.00    +0.000 C 
BRANCH  31  33
ATOM     32  C   UNL     1      -7.248  12.837  23.443  0.00  0.00    +0.000 C 
ATOM     33  C   UNL     1      -7.916  13.895  24.277  0.00  0.00    +0.000 C 
ENDBRANCH  31  33
ENDBRANCH  29  31
ENDBRANCH   1  29
BRANCH  27  34
ATOM     34  N   UNL     1       0.554  15.928  23.284  0.00  0.00    +0.000 NA
ATOM     35  H   UNL     1       0.732  15.027  23.720  0.00  0.00    +0.000 HD
BRANCH  34  36
ATOM     36  C   UNL     1       1.350  16.996  23.871  0.00  0.00    +0.000 C 
BRANCH  36  37
ATOM     37  C   UNL     1       0.558  17.837  24.868  0.00  0.00    +0.000 C 
ATOM     38  C   UNL     1       0.576  17.143  26.223  0.00  0.00    +0.000 C 
ENDBRANCH  36  37
ENDBRANCH  34  36
ENDBRANCH  27  34
TORSDOF 6
ENDMDL
MODEL 7
REMARK VINA RESULT:      -5.9      2.539      7.924
REMARK  Name = 
REMARK  8 active torsions:
REMARK  status: ('A' for Active; 'I' for Inactive)
REMARK    1  A    between atoms: C_1  and  C_2
REMARK    2  A    between atoms: C_2  and  C_3
REMARK    3  A    between atoms: C_3  and  N_4
REMARK    4  A    between atoms: N_4  and  C_5
REMARK    5  A    between atoms: C_31  and  N_32
REMARK    6  A    between atoms: N_32  and  C_33
REMARK    7  A    between atoms: C_33  and  C_34
REMARK    8  A    between atoms: C_34  and  C_35
REMARK                            x       y       z     vdW  Elec       q    Type
REMARK                         _______ _______ _______ _____ _____    ______ ____
ROOT
ATOM      1  C   UNL     1      -3.676  15.734  23.986  0.00  0.00    +0.000 C 
ATOM      2  C   UNL     1      -3.343  17.245  24.280  0.00  0.00    +0.000 C 
ATOM      3  O   UNL     1      -2.328  17.407  25.285  0.00  0.00    +0.000 OA
ATOM      4  C   UNL     1      -1.114  16.787  24.839  0.00  0.00    +0.000 C 
ATOM      5  C   UNL     1      -1.321  15.285  24.614  0.00  0.00    +0.000 C 
ATOM      6  N   UNL     1      -2.421  15.012  23.669  0.00  0.00    +0.000 N 
ATOM      7  C   UNL     1      -2.082  14.592  22.396  0.00  0.00    +0.000 A 
ATOM      8  N   UNL     1      -2.926  13.806  21.728  0.00  0.00    +0.000 NA
ATOM      9  C   UNL     1      -2.603  13.335  20.534  0.00  0.00    +0.000 A 
ATOM     10  N   UNL     1      -3.483  12.522  19.777  0.00  0.00    +0.000 N 
ATOM     11  C   UNL     1      -4.851  12.332  20.250  0.00  0.00    +0.000 C 
ATOM     12  C   UNL     1      -5.891  12.341  19.142  0.00  0.00    +0.000 C 
ATOM     13  C   UNL     1      -5.553  11.440  17.978  0.00  0.00    +0.000 C 
ATOM     14  C   UNL     1      -4.089  11.134  17.841  0.00  0.00    +0.000 A 
ATOM     15  C   UNL     1      -3.698  10.310  16.766  0.00  0.00    +0.000 A 
ATOM     16  C   UNL     1      -2.376   9.925  16.610  0.00  0.00    +0.000 A 
ATOM     17  C   UNL     1      -1.431  10.330  17.540  0.00  0.00    +0.000 A 
ATOM     18  C   UNL     1      -1.807  11.159  18.597  0.00  0.00    +0.000 A 
ATOM     19  C   UNL     1      -3.126  11.615  18.750  0.00  0.00    +0.000 A 
ATOM     20  N   UNL     1      -1.420  13.633  20.025  0.00  0.00    +0.000 NA
ATOM     21  C   UNL     1      -0.556  14.320  20.764  0.00  0.00    +0.000 A 
ATOM     22  N   UNL     1       0.694  14.487  20.217  0.00  0.00    +0.000 N 
ATOM     23  C   UNL     1       0.838  14.374  18.757  0.00  0.00    +0.000 C 
ATOM     24  C   UNL     1       1.937  13.362  18.432  0.00  0.00    +0.000 C 
ATOM     25  O   UNL     1       3.171  13.750  19.041  0.00  0.00    +0.000 OA
ATOM     26  C   UNL     1       3.017  13.820  20.470  0.00  0.00    +0.000 C 
ATOM     27  C   UNL     1       1.913  14.851  20.943  0.00  0.00    +0.000 C 
ATOM     28  N   UNL     1      -0.857  14.822  21.951  0.00  0.00    +0.000 NA
ENDROOT
BRANCH   1  29
ATOM     29  N   UNL     1      -4.901  15.753  23.174  0.00  0.00    +0.000 NA
ATOM     30  H   UNL     1      -4.888  16.558  22.553  0.00  0.00    +0.000 HD
BRANCH  29  31
ATOM     31  C   UNL     1      -6.126  15.777  23.947  0.00  0.00    +0.000 C 
BRANCH  31  33
ATOM     32  C   UNL     1      -6.399  13.351  23.535  0.00  0.00    +0.000 C 
ATOM     33  C   UNL     1      -7.113  14.629  23.878  0.00  0.00    +0.000 C 
ENDBRANCH  31  33
ENDBRANCH  29  31
ENDBRANCH   1  29
BRANCH  27  34
ATOM     34  N   UNL     1       1.943  14.985  22.411  0.00  0.00    +0.000 NA
ATOM     35  H   UNL     1       2.301  14.121  22.811  0.00  0.00    +0.000 HD
BRANCH  34  36
ATOM     36  C   UNL     1       2.682  16.154  22.862  0.00  0.00    +0.000 C 
BRANCH  36  37
ATOM     37  C   UNL     1       1.891  17.448  22.696  0.00  0.00    +0.000 C 
ATOM     38  C   UNL     1       2.201  18.370  23.869  0.00  0.00    +0.000 C 
ENDBRANCH  36  37
ENDBRANCH  34  36
ENDBRANCH  27  34
TORSDOF 6
ENDMDL
MODEL 8
REMARK VINA RESULT:      -5.9      2.232      5.954
REMARK  Name = 
REMARK  8 active torsions:
REMARK  status: ('A' for Active; 'I' for Inactive)
REMARK    1  A    between atoms: C_1  and  C_2
REMARK    2  A    between atoms: C_2  and  C_3
REMARK    3  A    between atoms: C_3  and  N_4
REMARK    4  A    between atoms: N_4  and  C_5
REMARK    5  A    between atoms: C_31  and  N_32
REMARK    6  A    between atoms: N_32  and  C_33
REMARK    7  A    between atoms: C_33  and  C_34
REMARK    8  A    between atoms: C_34  and  C_35
REMARK                            x       y       z     vdW  Elec       q    Type
REMARK                         _______ _______ _______ _____ _____    ______ ____
ROOT
ATOM      1  C   UNL     1      -0.692  11.001  18.221  0.00  0.00    +0.000 C 
ATOM      2  C   UNL     1       0.640  10.236  18.569  0.00  0.00    +0.000 C 
ATOM      3  O   UNL     1       1.818  10.959  18.172  0.00  0.00    +0.000 OA
ATOM      4  C   UNL     1       1.860  12.214  18.862  0.00  0.00    +0.000 C 
ATOM      5  C   UNL     1       0.639  13.071  18.510  0.00  0.00    +0.000 C 
ATOM      6  N   UNL     1      -0.629  12.369  18.787  0.00  0.00    +0.000 N 
ATOM      7  C   UNL     1      -1.357  12.774  19.890  0.00  0.00    +0.000 A 
ATOM      8  N   UNL     1      -2.683  12.636  19.877  0.00  0.00    +0.000 NA
ATOM      9  C   UNL     1      -3.414  13.072  20.891  0.00  0.00    +0.000 A 
ATOM     10  N   UNL     1      -4.822  12.918  20.930  0.00  0.00    +0.000 N 
ATOM     11  C   UNL     1      -5.472  12.108  19.904  0.00  0.00    +0.000 C 
ATOM     12  C   UNL     1      -6.603  11.241  20.433  0.00  0.00    +0.000 C 
ATOM     13  C   UNL     1      -7.595  11.985  21.295  0.00  0.00    +0.000 C 
ATOM     14  C   UNL     1      -7.049  13.237  21.919  0.00  0.00    +0.000 A 
ATOM     15  C   UNL     1      -7.916  13.977  22.750  0.00  0.00    +0.000 A 
ATOM     16  C   UNL     1      -7.512  15.179  23.307  0.00  0.00    +0.000 A 
ATOM     17  C   UNL     1      -6.251  15.677  23.020  0.00  0.00    +0.000 A 
ATOM     18  C   UNL     1      -5.381  14.943  22.212  0.00  0.00    +0.000 A 
ATOM     19  C   UNL     1      -5.739  13.694  21.681  0.00  0.00    +0.000 A 
ATOM     20  N   UNL     1      -2.813  13.671  21.904  0.00  0.00    +0.000 NA
ATOM     21  C   UNL     1      -1.506  13.899  21.834  0.00  0.00    +0.000 A 
ATOM     22  N   UNL     1      -0.974  14.632  22.868  0.00  0.00    +0.000 N 
ATOM     23  C   UNL     1      -1.701  14.667  24.146  0.00  0.00    +0.000 C 
ATOM     24  C   UNL     1      -1.921  16.122  24.565  0.00  0.00    +0.000 C 
ATOM     25  O   UNL     1      -0.671  16.807  24.667  0.00  0.00    +0.000 OA
ATOM     26  C   UNL     1       0.008  16.792  23.398  0.00  0.00    +0.000 C 
ATOM     27  C   UNL     1       0.312  15.335  22.855  0.00  0.00    +0.000 C 
ATOM     28  N   UNL     1      -0.746  13.457  20.845  0.00  0.00    +0.000 NA
ENDROOT
BRANCH   1  29
ATOM     29  N   UNL     1      -1.770  10.022  18.422  0.00  0.00    +0.000 NA
ATOM     30  H   UNL     1      -1.381   9.083  18.439  0.00  0.00    +0.000 HD
BRANCH  29  31
ATOM     31  C   UNL     1      -2.819  10.080  17.424  0.00  0.00    +0.000 C 
BRANCH  31  33
ATOM     32  C   UNL     1      -3.202   9.964  14.981  0.00  0.00    +0.000 C 
ATOM     33  C   UNL     1      -2.591  10.770  16.095  0.00  0.00    +0.000 C 
ENDBRANCH  31  33
ENDBRANCH  29  31
ENDBRANCH   1  29
BRANCH  27  34
ATOM     34  N   UNL     1       1.154  15.412  21.648  0.00  0.00    +0.000 NA
ATOM     35  H   UNL     1       1.288  16.390  21.404  0.00  0.00    +0.000 HD
BRANCH  34  36
ATOM     36  C   UNL     1       2.413  14.697  21.785  0.00  0.00    +0.000 C 
BRANCH  36  37
ATOM     37  C   UNL     1       3.534  15.582  22.323  0.00  0.00    +0.000 C 
ATOM     38  C   UNL     1       4.845  15.175  21.661  0.00  0.00    +0.000 C 
ENDBRANCH  36  37
ENDBRANCH  34  36
ENDBRANCH  27  34
TORSDOF 6
ENDMDL
MODEL 9
REMARK VINA RESULT:      -5.9      2.028      6.224
REMARK  Name = 
REMARK  8 active torsions:
REMARK  status: ('A' for Active; 'I' for Inactive)
REMARK    1  A    between atoms: C_1  and  C_2
REMARK    2  A    between atoms: C_2  and  C_3
REMARK    3  A    between atoms: C_3  and  N_4
REMARK    4  A    between atoms: N_4  and  C_5
REMARK    5  A    between atoms: C_31  and  N_32
REMARK    6  A    between atoms: N_32  and  C_33
REMARK    7  A    between atoms: C_33  and  C_34
REMARK    8  A    between atoms: C_34  and  C_35
REMARK                            x       y       z     vdW  Elec       q    Type
REMARK                         _______ _______ _______ _____ _____    ______ ____
ROOT
ATOM      1  C   UNL     1      -5.609  14.730  23.216  0.00  0.00    +0.000 C 
ATOM      2  C   UNL     1      -6.620  13.688  23.826  0.00  0.00    +0.000 C 
ATOM      3  O   UNL     1      -7.880  13.663  23.134  0.00  0.00    +0.000 OA
ATOM      4  C   UNL     1      -7.664  13.291  21.767  0.00  0.00    +0.000 C 
ATOM      5  C   UNL     1      -6.758  14.307  21.062  0.00  0.00    +0.000 C 
ATOM      6  N   UNL     1      -5.471  14.480  21.762  0.00  0.00    +0.000 N 
ATOM      7  C   UNL     1      -4.348  13.914  21.187  0.00  0.00    +0.000 A 
ATOM      8  N   UNL     1      -3.159  14.480  21.396  0.00  0.00    +0.000 NA
ATOM      9  C   UNL     1      -2.074  14.000  20.809  0.00  0.00    +0.000 A 
ATOM     10  N   UNL     1      -0.788  14.552  21.026  0.00  0.00    +0.000 N 
ATOM     11  C   UNL     1      -0.624  15.575  22.056  0.00  0.00    +0.000 C 
ATOM     12  C   UNL     1       0.657  15.435  22.861  0.00  0.00    +0.000 C 
ATOM     13  C   UNL     1       1.897  15.264  22.016  0.00  0.00    +0.000 C 
ATOM     14  C   UNL     1       1.633  14.728  20.638  0.00  0.00    +0.000 A 
ATOM     15  C   UNL     1       2.747  14.528  19.797  0.00  0.00    +0.000 A 
ATOM     16  C   UNL     1       2.582  14.102  18.489  0.00  0.00    +0.000 A 
ATOM     17  C   UNL     1       1.305  13.900  17.991  0.00  0.00    +0.000 A 
ATOM     18  C   UNL     1       0.198  14.079  18.822  0.00  0.00    +0.000 A 
ATOM     19  C   UNL     1       0.334  14.452  20.168  0.00  0.00    +0.000 A 
ATOM     20  N   UNL     1      -2.191  12.968  19.991  0.00  0.00    +0.000 NA
ATOM     21  C   UNL     1      -3.403  12.501  19.712  0.00  0.00    +0.000 A 
ATOM     22  N   UNL     1      -3.454  11.508  18.763  0.00  0.00    +0.000 N 
ATOM     23  C   UNL     1      -2.240  10.715  18.516  0.00  0.00    +0.000 C 
ATOM     24  C   UNL     1      -1.916  10.734  17.022  0.00  0.00    +0.000 C 
ATOM     25  O   UNL     1      -3.020  10.233  16.264  0.00  0.00    +0.000 OA
ATOM     26  C   UNL     1      -4.186  11.044  16.492  0.00  0.00    +0.000 C 
ATOM     27  C   UNL     1      -4.640  11.095  18.009  0.00  0.00    +0.000 C 
ATOM     28  N   UNL     1      -4.502  12.946  20.299  0.00  0.00    +0.000 NA
ENDROOT
BRANCH   1  29
ATOM     29  N   UNL     1      -4.514  14.832  24.193  0.00  0.00    +0.000 NA
ATOM     30  H   UNL     1      -4.713  14.237  24.993  0.00  0.00    +0.000 HD
BRANCH  29  31
ATOM     31  C   UNL     1      -4.259  16.179  24.660  0.00  0.00    +0.000 C 
BRANCH  31  33
ATOM     32  C   UNL     1      -2.029  15.878  25.693  0.00  0.00    +0.000 C 
ATOM     33  C   UNL     1      -2.845  16.718  24.749  0.00  0.00    +0.000 C 
ENDBRANCH  31  33
ENDBRANCH  29  31
ENDBRANCH   1  29
BRANCH  27  34
ATOM     34  N   UNL     1      -5.930  11.799  18.126  0.00  0.00    +0.000 NA
ATOM     35  H   UNL     1      -6.083  12.345  17.282  0.00  0.00    +0.000 HD
BRANCH  34  36
ATOM     36  C   UNL     1      -7.042  10.907  18.418  0.00  0.00    +0.000 C 
BRANCH  36  37
ATOM     37  C   UNL     1      -6.624   9.706  19.263  0.00  0.00    +0.000 C 
ATOM     38  C   UNL     1      -7.574   9.581  20.447  0.00  0.00    +0.000 C 
ENDBRANCH  36  37
ENDBRANCH  34  36
ENDBRANCH  27  34
TORSDOF 6
ENDMDL
