MODEL 1
REMARK VINA RESULT:      -6.4      0.000      0.000
REMARK  Name = 
REMARK  3 active torsions:
REMARK  status: ('A' for Active; 'I' for Inactive)
REMARK    1  A    between atoms: C_1  and  C_2
REMARK    2  A    between atoms: C_16  and  C_17
REMARK    3  A    between atoms: N_19  and  C_20
REMARK                            x       y       z     vdW  Elec       q    Type
REMARK                         _______ _______ _______ _____ _____    ______ ____
ROOT
ATOM      1  C   UNL     1      -0.244  12.092  21.612  0.00  0.00    +0.000 C 
ATOM      2  C   UNL     1      -1.056  11.675  20.424  0.00  0.00    +0.000 A 
ATOM      3  S   UNL     1      -0.286  10.608  19.330  0.00  0.00    +0.000 S 
ATOM      4  C   UNL     1      -1.615  10.587  18.287  0.00  0.00    +0.000 A 
ATOM      5  N   UNL     1      -1.532   9.864  17.160  0.00  0.00    +0.000 NA
ATOM      6  C   UNL     1      -2.638   9.932  16.431  0.00  0.00    +0.000 A 
ATOM      7  N   UNL     1      -3.755  10.596  16.728  0.00  0.00    +0.000 NA
ATOM      8  C   UNL     1      -3.830  11.314  17.881  0.00  0.00    +0.000 A 
ATOM      9  N   UNL     1      -5.010  12.017  18.133  0.00  0.00    +0.000 N 
ATOM     10  C   UNL     1      -5.746  12.418  16.930  0.00  0.00    +0.000 C 
ATOM     11  C   UNL     1      -6.751  13.503  17.316  0.00  0.00    +0.000 C 
ATOM     12  C   UNL     1      -7.679  13.040  18.439  0.00  0.00    +0.000 C 
ATOM     13  C   UNL     1      -6.897  12.445  19.607  0.00  0.00    +0.000 C 
ATOM     14  C   UNL     1      -5.866  11.407  19.152  0.00  0.00    +0.000 C 
ATOM     15  C   UNL     1      -2.686  11.348  18.732  0.00  0.00    +0.000 A 
ATOM     16  C   UNL     1      -2.341  12.037  20.001  0.00  0.00    +0.000 A 
ENDROOT
BRANCH  16  17
ATOM     17  C   UNL     1      -3.230  13.003  20.687  0.00  0.00    +0.000 C 
ATOM     18  O   UNL     1      -3.634  14.021  20.126  0.00  0.00    +0.000 OA
ATOM     19  N   UNL     1      -3.541  12.749  22.017  0.00  0.00    +0.000 N 
ATOM     20  H   UNL     1      -2.748  12.479  22.575  0.00  0.00    +0.000 HD
BRANCH  19  21
ATOM     21  C   UNL     1      -4.461  13.576  22.720  0.00  0.00    +0.000 A 
ATOM     22  C   UNL     1      -5.766  13.133  22.947  0.00  0.00    +0.000 A 
ATOM     23  C   UNL     1      -6.653  13.934  23.661  0.00  0.00    +0.000 A 
ATOM     24  F   UNL     1      -7.899  13.496  23.887  0.00  0.00    +0.000 F 
ATOM     25  C   UNL     1      -6.265  15.172  24.158  0.00  0.00    +0.000 A 
ATOM     26  C   UNL     1      -4.960  15.618  23.944  0.00  0.00    +0.000 A 
ATOM     27  C   UNL     1      -4.057  14.816  23.240  0.00  0.00    +0.000 A 
ATOM     28 CL   UNL     1      -2.460  15.413  22.962  0.00  0.00    +0.000 Cl
ENDBRANCH  19  21
ENDBRANCH  16  17
TORSDOF 2
ENDMDL
MODEL 2
REMARK VINA RESULT:      -6.4      2.254      3.790
REMARK  Name = 
REMARK  3 active torsions:
REMARK  status: ('A' for Active; 'I' for Inactive)
REMARK    1  A    between atoms: C_1  and  C_2
REMARK    2  A    between atoms: C_16  and  C_17
REMARK    3  A    between atoms: N_19  and  C_20
REMARK                            x       y       z     vdW  Elec       q    Type
REMARK                         _______ _______ _______ _____ _____    ______ ____
ROOT
ATOM      1  C   UNL     1      -1.468  11.575  19.592  0.00  0.00    +0.000 C 
ATOM      2  C   UNL     1      -2.926  11.865  19.399  0.00  0.00    +0.000 A 
ATOM      3  S   UNL     1      -3.569  11.471  17.862  0.00  0.00    +0.000 S 
ATOM      4  C   UNL     1      -5.103  12.051  18.264  0.00  0.00    +0.000 A 
ATOM      5  N   UNL     1      -6.070  12.003  17.334  0.00  0.00    +0.000 NA
ATOM      6  C   UNL     1      -7.222  12.488  17.775  0.00  0.00    +0.000 A 
ATOM      7  N   UNL     1      -7.480  12.961  18.994  0.00  0.00    +0.000 NA
ATOM      8  C   UNL     1      -6.495  12.992  19.932  0.00  0.00    +0.000 A 
ATOM      9  N   UNL     1      -6.806  13.523  21.184  0.00  0.00    +0.000 N 
ATOM     10  C   UNL     1      -7.883  14.519  21.170  0.00  0.00    +0.000 C 
ATOM     11  C   UNL     1      -7.836  15.301  22.482  0.00  0.00    +0.000 C 
ATOM     12  C   UNL     1      -7.915  14.376  23.696  0.00  0.00    +0.000 C 
ATOM     13  C   UNL     1      -6.912  13.230  23.596  0.00  0.00    +0.000 C 
ATOM     14  C   UNL     1      -6.966  12.521  22.240  0.00  0.00    +0.000 C 
ATOM     15  C   UNL     1      -5.197  12.529  19.564  0.00  0.00    +0.000 A 
ATOM     16  C   UNL     1      -3.877  12.455  20.240  0.00  0.00    +0.000 A 
ENDROOT
BRANCH  16  17
ATOM     17  C   UNL     1      -3.614  12.977  21.601  0.00  0.00    +0.000 C 
ATOM     18  O   UNL     1      -3.719  12.266  22.599  0.00  0.00    +0.000 OA
ATOM     19  N   UNL     1      -3.305  14.327  21.715  0.00  0.00    +0.000 N 
ATOM     20  H   UNL     1      -3.902  14.928  21.170  0.00  0.00    +0.000 HD
BRANCH  19  21
ATOM     21  C   UNL     1      -2.949  14.888  22.973  0.00  0.00    +0.000 A 
ATOM     22  C   UNL     1      -3.887  15.625  23.700  0.00  0.00    +0.000 A 
ATOM     23  C   UNL     1      -3.543  16.146  24.943  0.00  0.00    +0.000 A 
ATOM     24  F   UNL     1      -4.452  16.841  25.641  0.00  0.00    +0.000 F 
ATOM     25  C   UNL     1      -2.278  15.946  25.483  0.00  0.00    +0.000 A 
ATOM     26  C   UNL     1      -1.338  15.202  24.769  0.00  0.00    +0.000 A 
ATOM     27  C   UNL     1      -1.678  14.663  23.524  0.00  0.00    +0.000 A 
ATOM     28 CL   UNL     1      -0.480  13.776  22.650  0.00  0.00    +0.000 Cl
ENDBRANCH  19  21
ENDBRANCH  16  17
TORSDOF 2
ENDMDL
MODEL 3
REMARK VINA RESULT:      -6.4      1.705      1.716
REMARK  Name = 
REMARK  3 active torsions:
REMARK  status: ('A' for Active; 'I' for Inactive)
REMARK    1  A    between atoms: C_1  and  C_2
REMARK    2  A    between atoms: C_16  and  C_17
REMARK    3  A    between atoms: N_19  and  C_20
REMARK                            x       y       z     vdW  Elec       q    Type
REMARK                         _______ _______ _______ _____ _____    ______ ____
ROOT
ATOM      1  C   UNL     1      -0.169  11.467  20.717  0.00  0.00    +0.000 C 
ATOM      2  C   UNL     1      -1.179  11.320  19.620  0.00  0.00    +0.000 A 
ATOM      3  S   UNL     1      -0.683  10.401  18.264  0.00  0.00    +0.000 S 
ATOM      4  C   UNL     1      -2.142  10.656  17.453  0.00  0.00    +0.000 A 
ATOM      5  N   UNL     1      -2.294  10.131  16.227  0.00  0.00    +0.000 NA
ATOM      6  C   UNL     1      -3.480  10.404  15.702  0.00  0.00    +0.000 A 
ATOM      7  N   UNL     1      -4.472  11.089  16.271  0.00  0.00    +0.000 NA
ATOM      8  C   UNL     1      -4.310  11.604  17.520  0.00  0.00    +0.000 A 
ATOM      9  N   UNL     1      -5.366  12.339  18.062  0.00  0.00    +0.000 N 
ATOM     10  C   UNL     1      -6.223  12.993  17.068  0.00  0.00    +0.000 C 
ATOM     11  C   UNL     1      -7.051  14.067  17.773  0.00  0.00    +0.000 C 
ATOM     12  C   UNL     1      -7.850  13.489  18.941  0.00  0.00    +0.000 C 
ATOM     13  C   UNL     1      -6.971  12.648  19.863  0.00  0.00    +0.000 C 
ATOM     14  C   UNL     1      -6.124  11.629  19.094  0.00  0.00    +0.000 C 
ATOM     15  C   UNL     1      -3.059  11.407  18.175  0.00  0.00    +0.000 A 
ATOM     16  C   UNL     1      -2.469  11.843  19.467  0.00  0.00    +0.000 A 
ENDROOT
BRANCH  16  17
ATOM     17  C   UNL     1      -3.151  12.741  20.427  0.00  0.00    +0.000 C 
ATOM     18  O   UNL     1      -3.753  12.305  21.407  0.00  0.00    +0.000 OA
ATOM     19  N   UNL     1      -3.141  14.102  20.142  0.00  0.00    +0.000 N 
ATOM     20  H   UNL     1      -3.352  14.317  19.182  0.00  0.00    +0.000 HD
BRANCH  19  21
ATOM     21  C   UNL     1      -3.692  15.040  21.058  0.00  0.00    +0.000 A 
ATOM     22  C   UNL     1      -5.015  15.466  20.911  0.00  0.00    +0.000 A 
ATOM     23  C   UNL     1      -5.558  16.362  21.827  0.00  0.00    +0.000 A 
ATOM     24  F   UNL     1      -6.832  16.755  21.687  0.00  0.00    +0.000 F 
ATOM     25  C   UNL     1      -4.810  16.844  22.894  0.00  0.00    +0.000 A 
ATOM     26  C   UNL     1      -3.491  16.416  23.054  0.00  0.00    +0.000 A 
ATOM     27  C   UNL     1      -2.939  15.506  22.147  0.00  0.00    +0.000 A 
ATOM     28 CL   UNL     1      -1.293  15.024  22.354  0.00  0.00    +0.000 Cl
ENDBRANCH  19  21
ENDBRANCH  16  17
TORSDOF 2
ENDMDL
MODEL 4
REMARK VINA RESULT:      -6.3      3.705      6.235
REMARK  Name = 
REMARK  3 active torsions:
REMARK  status: ('A' for Active; 'I' for Inactive)
REMARK    1  A    between atoms: C_1  and  C_2
REMARK    2  A    between atoms: C_16  and  C_17
REMARK    3  A    between atoms: N_19  and  C_20
REMARK                            x       y       z     vdW  Elec       q    Type
REMARK                         _______ _______ _______ _____ _____    ______ ____
ROOT
ATOM      1  C   UNL     1      -2.052  15.304  25.467  0.00  0.00    +0.000 C 
ATOM      2  C   UNL     1      -3.310  15.402  24.659  0.00  0.00    +0.000 A 
ATOM      3  S   UNL     1      -4.315  16.744  24.998  0.00  0.00    +0.000 S 
ATOM      4  C   UNL     1      -5.481  16.260  23.877  0.00  0.00    +0.000 A 
ATOM      5  N   UNL     1      -6.589  17.006  23.742  0.00  0.00    +0.000 NA
ATOM      6  C   UNL     1      -7.421  16.518  22.833  0.00  0.00    +0.000 A 
ATOM      7  N   UNL     1      -7.240  15.434  22.078  0.00  0.00    +0.000 NA
ATOM      8  C   UNL     1      -6.106  14.695  22.215  0.00  0.00    +0.000 A 
ATOM      9  N   UNL     1      -5.976  13.552  21.423  0.00  0.00    +0.000 N 
ATOM     10  C   UNL     1      -7.249  12.940  21.028  0.00  0.00    +0.000 C 
ATOM     11  C   UNL     1      -6.971  11.517  20.544  0.00  0.00    +0.000 C 
ATOM     12  C   UNL     1      -5.940  11.495  19.416  0.00  0.00    +0.000 C 
ATOM     13  C   UNL     1      -4.696  12.304  19.775  0.00  0.00    +0.000 C 
ATOM     14  C   UNL     1      -5.039  13.698  20.307  0.00  0.00    +0.000 C 
ATOM     15  C   UNL     1      -5.149  15.100  23.191  0.00  0.00    +0.000 A 
ATOM     16  C   UNL     1      -3.858  14.557  23.685  0.00  0.00    +0.000 A 
ENDROOT
BRANCH  16  17
ATOM     17  C   UNL     1      -3.271  13.276  23.231  0.00  0.00    +0.000 C 
ATOM     18  O   UNL     1      -3.877  12.211  23.342  0.00  0.00    +0.000 OA
ATOM     19  N   UNL     1      -1.975  13.312  22.729  0.00  0.00    +0.000 N 
ATOM     20  H   UNL     1      -1.341  13.862  23.284  0.00  0.00    +0.000 HD
BRANCH  19  21
ATOM     21  C   UNL     1      -1.373  12.143  22.187  0.00  0.00    +0.000 A 
ATOM     22  C   UNL     1      -1.089  11.054  23.016  0.00  0.00    +0.000 A 
ATOM     23  C   UNL     1      -0.526   9.902  22.475  0.00  0.00    +0.000 A 
ATOM     24  F   UNL     1      -0.270   8.857  23.275  0.00  0.00    +0.000 F 
ATOM     25  C   UNL     1      -0.241   9.808  21.118  0.00  0.00    +0.000 A 
ATOM     26  C   UNL     1      -0.531  10.887  20.281  0.00  0.00    +0.000 A 
ATOM     27  C   UNL     1      -1.108  12.044  20.812  0.00  0.00    +0.000 A 
ATOM     28 CL   UNL     1      -1.422  13.375  19.755  0.00  0.00    +0.000 Cl
ENDBRANCH  19  21
ENDBRANCH  16  17
TORSDOF 2
ENDMDL
MODEL 5
REMARK VINA RESULT:      -6.3     10.965     13.895
REMARK  Name = 
REMARK  3 active torsions:
REMARK  status: ('A' for Active; 'I' for Inactive)
REMARK    1  A    between atoms: C_1  and  C_2
REMARK    2  A    between atoms: C_16  and  C_17
REMARK    3  A    between atoms: N_19  and  C_20
REMARK                            x       y       z     vdW  Elec       q    Type
REMARK                         _______ _______ _______ _____ _____    ______ ____
ROOT
ATOM      1  C   UNL     1       8.249  11.496  23.721  0.00  0.00    +0.000 C 
ATOM      2  C   UNL     1       7.445  12.691  23.308  0.00  0.00    +0.000 A 
ATOM      3  S   UNL     1       5.984  12.941  24.163  0.00  0.00    +0.000 S 
ATOM      4  C   UNL     1       5.582  14.299  23.243  0.00  0.00    +0.000 A 
ATOM      5  N   UNL     1       4.423  14.925  23.498  0.00  0.00    +0.000 NA
ATOM      6  C   UNL     1       4.227  15.972  22.708  0.00  0.00    +0.000 A 
ATOM      7  N   UNL     1       5.049  16.431  21.765  0.00  0.00    +0.000 NA
ATOM      8  C   UNL     1       6.228  15.795  21.525  0.00  0.00    +0.000 A 
ATOM      9  N   UNL     1       7.041  16.295  20.508  0.00  0.00    +0.000 N 
ATOM     10  C   UNL     1       6.317  16.997  19.442  0.00  0.00    +0.000 C 
ATOM     11  C   UNL     1       7.239  17.117  18.229  0.00  0.00    +0.000 C 
ATOM     12  C   UNL     1       8.557  17.803  18.586  0.00  0.00    +0.000 C 
ATOM     13  C   UNL     1       9.201  17.178  19.821  0.00  0.00    +0.000 C 
ATOM     14  C   UNL     1       8.215  17.031  20.983  0.00  0.00    +0.000 C 
ATOM     15  C   UNL     1       6.534  14.630  22.289  0.00  0.00    +0.000 A 
ATOM     16  C   UNL     1       7.642  13.641  22.299  0.00  0.00    +0.000 A 
ENDROOT
BRANCH  16  17
ATOM     17  C   UNL     1       8.768  13.651  21.336  0.00  0.00    +0.000 C 
ATOM     18  O   UNL     1       9.893  14.029  21.660  0.00  0.00    +0.000 OA
ATOM     19  N   UNL     1       8.489  13.276  20.027  0.00  0.00    +0.000 N 
ATOM     20  H   UNL     1       7.650  13.689  19.656  0.00  0.00    +0.000 HD
BRANCH  19  21
ATOM     21  C   UNL     1       9.531  13.169  19.064  0.00  0.00    +0.000 A 
ATOM     22  C   UNL     1       9.936  14.297  18.346  0.00  0.00    +0.000 A 
ATOM     23  C   UNL     1      10.975  14.194  17.426  0.00  0.00    +0.000 A 
ATOM     24  F   UNL     1      11.368  15.283  16.751  0.00  0.00    +0.000 F 
ATOM     25  C   UNL     1      11.625  12.985  17.206  0.00  0.00    +0.000 A 
ATOM     26  C   UNL     1      11.233  11.856  17.926  0.00  0.00    +0.000 A 
ATOM     27  C   UNL     1      10.199  11.951  18.862  0.00  0.00    +0.000 A 
ATOM     28 CL   UNL     1       9.714  10.527  19.711  0.00  0.00    +0.000 Cl
ENDBRANCH  19  21
ENDBRANCH  16  17
TORSDOF 2
ENDMDL
MODEL 6
REMARK VINA RESULT:      -6.2      3.621      6.445
REMARK  Name = 
REMARK  3 active torsions:
REMARK  status: ('A' for Active; 'I' for Inactive)
REMARK    1  A    between atoms: C_1  and  C_2
REMARK    2  A    between atoms: C_16  and  C_17
REMARK    3  A    between atoms: N_19  and  C_20
REMARK                            x       y       z     vdW  Elec       q    Type
REMARK                         _______ _______ _______ _____ _____    ______ ____
ROOT
ATOM      1  C   UNL     1      -3.398  10.565  16.860  0.00  0.00    +0.000 C 
ATOM      2  C   UNL     1      -4.014  11.188  18.075  0.00  0.00    +0.000 A 
ATOM      3  S   UNL     1      -5.722  11.132  18.159  0.00  0.00    +0.000 S 
ATOM      4  C   UNL     1      -5.761  11.982  19.618  0.00  0.00    +0.000 A 
ATOM      5  N   UNL     1      -6.954  12.258  20.167  0.00  0.00    +0.000 NA
ATOM      6  C   UNL     1      -6.845  12.928  21.306  0.00  0.00    +0.000 A 
ATOM      7  N   UNL     1      -5.719  13.296  21.917  0.00  0.00    +0.000 NA
ATOM      8  C   UNL     1      -4.516  12.998  21.356  0.00  0.00    +0.000 A 
ATOM      9  N   UNL     1      -3.366  13.431  22.018  0.00  0.00    +0.000 N 
ATOM     10  C   UNL     1      -3.553  14.632  22.837  0.00  0.00    +0.000 C 
ATOM     11  C   UNL     1      -2.179  15.223  23.153  0.00  0.00    +0.000 C 
ATOM     12  C   UNL     1      -1.264  14.198  23.823  0.00  0.00    +0.000 C 
ATOM     13  C   UNL     1      -1.235  12.881  23.053  0.00  0.00    +0.000 C 
ATOM     14  C   UNL     1      -2.638  12.369  22.716  0.00  0.00    +0.000 C 
ATOM     15  C   UNL     1      -4.504  12.309  20.107  0.00  0.00    +0.000 A 
ATOM     16  C   UNL     1      -3.449  11.867  19.161  0.00  0.00    +0.000 A 
ENDROOT
BRANCH  16  17
ATOM     17  C   UNL     1      -2.006  12.152  19.339  0.00  0.00    +0.000 C 
ATOM     18  O   UNL     1      -1.254  11.359  19.905  0.00  0.00    +0.000 OA
ATOM     19  N   UNL     1      -1.542  13.385  18.896  0.00  0.00    +0.000 N 
ATOM     20  H   UNL     1      -2.132  14.158  19.157  0.00  0.00    +0.000 HD
BRANCH  19  21
ATOM     21  C   UNL     1      -0.155  13.700  18.945  0.00  0.00    +0.000 A 
ATOM     22  C   UNL     1       0.785  12.797  18.443  0.00  0.00    +0.000 A 
ATOM     23  C   UNL     1       2.137  13.123  18.467  0.00  0.00    +0.000 A 
ATOM     24  F   UNL     1       3.032  12.256  17.971  0.00  0.00    +0.000 F 
ATOM     25  C   UNL     1       2.577  14.337  18.979  0.00  0.00    +0.000 A 
ATOM     26  C   UNL     1       1.644  15.250  19.473  0.00  0.00    +0.000 A 
ATOM     27  C   UNL     1       0.281  14.938  19.443  0.00  0.00    +0.000 A 
ATOM     28 CL   UNL     1      -0.845  16.075  20.094  0.00  0.00    +0.000 Cl
ENDBRANCH  19  21
ENDBRANCH  16  17
TORSDOF 2
ENDMDL
MODEL 7
REMARK VINA RESULT:      -6.2      2.704      4.739
REMARK  Name = 
REMARK  3 active torsions:
REMARK  status: ('A' for Active; 'I' for Inactive)
REMARK    1  A    between atoms: C_1  and  C_2
REMARK    2  A    between atoms: C_16  and  C_17
REMARK    3  A    between atoms: N_19  and  C_20
REMARK                            x       y       z     vdW  Elec       q    Type
REMARK                         _______ _______ _______ _____ _____    ______ ____
ROOT
ATOM      1  C   UNL     1      -6.642  12.774  20.045  0.00  0.00    +0.000 C 
ATOM      2  C   UNL     1      -5.371  12.253  19.448  0.00  0.00    +0.000 A 
ATOM      3  S   UNL     1      -5.550  11.075  18.219  0.00  0.00    +0.000 S 
ATOM      4  C   UNL     1      -3.880  10.892  18.037  0.00  0.00    +0.000 A 
ATOM      5  N   UNL     1      -3.428   9.998  17.144  0.00  0.00    +0.000 NA
ATOM      6  C   UNL     1      -2.104   9.951  17.099  0.00  0.00    +0.000 A 
ATOM      7  N   UNL     1      -1.250  10.692  17.805  0.00  0.00    +0.000 NA
ATOM      8  C   UNL     1      -1.722  11.605  18.697  0.00  0.00    +0.000 A 
ATOM      9  N   UNL     1      -0.789  12.336  19.434  0.00  0.00    +0.000 N 
ATOM     10  C   UNL     1       0.491  11.651  19.642  0.00  0.00    +0.000 C 
ATOM     11  C   UNL     1       1.237  12.352  20.776  0.00  0.00    +0.000 C 
ATOM     12  C   UNL     1       1.414  13.845  20.500  0.00  0.00    +0.000 C 
ATOM     13  C   UNL     1       0.097  14.502  20.095  0.00  0.00    +0.000 C 
ATOM     14  C   UNL     1      -0.631  13.724  18.995  0.00  0.00    +0.000 C 
ATOM     15  C   UNL     1      -3.134  11.721  18.861  0.00  0.00    +0.000 A 
ATOM     16  C   UNL     1      -4.027  12.517  19.742  0.00  0.00    +0.000 A 
ENDROOT
BRANCH  16  17
ATOM     17  C   UNL     1      -3.544  13.426  20.807  0.00  0.00    +0.000 C 
ATOM     18  O   UNL     1      -3.534  14.647  20.660  0.00  0.00    +0.000 OA
ATOM     19  N   UNL     1      -3.038  12.841  21.961  0.00  0.00    +0.000 N 
ATOM     20  H   UNL     1      -2.413  12.071  21.786  0.00  0.00    +0.000 HD
BRANCH  19  21
ATOM     21  C   UNL     1      -2.639  13.641  23.068  0.00  0.00    +0.000 A 
ATOM     22  C   UNL     1      -1.461  14.389  23.000  0.00  0.00    +0.000 A 
ATOM     23  C   UNL     1      -1.091  15.194  24.074  0.00  0.00    +0.000 A 
ATOM     24  F   UNL     1       0.033  15.919  23.996  0.00  0.00    +0.000 F 
ATOM     25  C   UNL     1      -1.875  15.272  25.219  0.00  0.00    +0.000 A 
ATOM     26  C   UNL     1      -3.058  14.535  25.291  0.00  0.00    +0.000 A 
ATOM     27  C   UNL     1      -3.446  13.734  24.213  0.00  0.00    +0.000 A 
ATOM     28 CL   UNL     1      -4.898  12.808  24.348  0.00  0.00    +0.000 Cl
ENDBRANCH  19  21
ENDBRANCH  16  17
TORSDOF 2
ENDMDL
MODEL 8
REMARK VINA RESULT:      -6.1      3.467      6.406
REMARK  Name = 
REMARK  3 active torsions:
REMARK  status: ('A' for Active; 'I' for Inactive)
REMARK    1  A    between atoms: C_1  and  C_2
REMARK    2  A    between atoms: C_16  and  C_17
REMARK    3  A    between atoms: N_19  and  C_20
REMARK                            x       y       z     vdW  Elec       q    Type
REMARK                         _______ _______ _______ _____ _____    ______ ____
ROOT
ATOM      1  C   UNL     1      -3.879  15.524  23.318  0.00  0.00    +0.000 C 
ATOM      2  C   UNL     1      -2.464  15.209  22.939  0.00  0.00    +0.000 A 
ATOM      3  S   UNL     1      -1.275  16.297  23.513  0.00  0.00    +0.000 S 
ATOM      4  C   UNL     1      -0.023  15.462  22.748  0.00  0.00    +0.000 A 
ATOM      5  N   UNL     1       1.227  15.940  22.859  0.00  0.00    +0.000 NA
ATOM      6  C   UNL     1       2.114  15.195  22.214  0.00  0.00    +0.000 A 
ATOM      7  N   UNL     1       1.877  14.073  21.534  0.00  0.00    +0.000 NA
ATOM      8  C   UNL     1       0.608  13.592  21.441  0.00  0.00    +0.000 A 
ATOM      9  N   UNL     1       0.406  12.431  20.693  0.00  0.00    +0.000 N 
ATOM     10  C   UNL     1       1.387  12.219  19.624  0.00  0.00    +0.000 C 
ATOM     11  C   UNL     1       0.827  11.182  18.651  0.00  0.00    +0.000 C 
ATOM     12  C   UNL     1       0.454   9.882  19.364  0.00  0.00    +0.000 C 
ATOM     13  C   UNL     1      -0.413  10.143  20.593  0.00  0.00    +0.000 C 
ATOM     14  C   UNL     1       0.170  11.231  21.499  0.00  0.00    +0.000 C 
ATOM     15  C   UNL     1      -0.442  14.329  22.065  0.00  0.00    +0.000 A 
ATOM     16  C   UNL     1      -1.918  14.193  22.145  0.00  0.00    +0.000 A 
ENDROOT
BRANCH  16  17
ATOM     17  C   UNL     1      -2.692  13.145  21.439  0.00  0.00    +0.000 C 
ATOM     18  O   UNL     1      -3.065  12.121  22.010  0.00  0.00    +0.000 OA
ATOM     19  N   UNL     1      -2.926  13.333  20.082  0.00  0.00    +0.000 N 
ATOM     20  H   UNL     1      -2.116  13.638  19.569  0.00  0.00    +0.000 HD
BRANCH  19  21
ATOM     21  C   UNL     1      -3.738  12.421  19.351  0.00  0.00    +0.000 A 
ATOM     22  C   UNL     1      -3.143  11.431  18.565  0.00  0.00    +0.000 A 
ATOM     23  C   UNL     1      -3.941  10.524  17.876  0.00  0.00    +0.000 A 
ATOM     24  F   UNL     1      -3.363   9.569  17.134  0.00  0.00    +0.000 F 
ATOM     25  C   UNL     1      -5.328  10.579  17.955  0.00  0.00    +0.000 A 
ATOM     26  C   UNL     1      -5.930  11.558  18.746  0.00  0.00    +0.000 A 
ATOM     27  C   UNL     1      -5.137  12.467  19.453  0.00  0.00    +0.000 A 
ATOM     28 CL   UNL     1      -5.915  13.688  20.396  0.00  0.00    +0.000 Cl
ENDBRANCH  19  21
ENDBRANCH  16  17
TORSDOF 2
ENDMDL
MODEL 9
REMARK VINA RESULT:      -6.1      4.912      7.517
REMARK  Name = 
REMARK  3 active torsions:
REMARK  status: ('A' for Active; 'I' for Inactive)
REMARK    1  A    between atoms: C_1  and  C_2
REMARK    2  A    between atoms: C_16  and  C_17
REMARK    3  A    between atoms: N_19  and  C_20
REMARK                            x       y       z     vdW  Elec       q    Type
REMARK                         _______ _______ _______ _____ _____    ______ ____
ROOT
ATOM      1  C   UNL     1      -1.395  17.601  22.476  0.00  0.00    +0.000 C 
ATOM      2  C   UNL     1      -1.907  16.221  22.759  0.00  0.00    +0.000 A 
ATOM      3  S   UNL     1      -3.398  16.134  23.595  0.00  0.00    +0.000 S 
ATOM      4  C   UNL     1      -3.371  14.445  23.635  0.00  0.00    +0.000 A 
ATOM      5  N   UNL     1      -4.378  13.803  24.247  0.00  0.00    +0.000 NA
ATOM      6  C   UNL     1      -4.237  12.486  24.208  0.00  0.00    +0.000 A 
ATOM      7  N   UNL     1      -3.254  11.800  23.625  0.00  0.00    +0.000 NA
ATOM      8  C   UNL     1      -2.246  12.463  22.995  0.00  0.00    +0.000 A 
ATOM      9  N   UNL     1      -1.224  11.702  22.425  0.00  0.00    +0.000 N 
ATOM     10  C   UNL     1      -1.003  10.404  23.070  0.00  0.00    +0.000 C 
ATOM     11  C   UNL     1       0.366   9.877  22.640  0.00  0.00    +0.000 C 
ATOM     12  C   UNL     1       0.490   9.800  21.118  0.00  0.00    +0.000 C 
ATOM     13  C   UNL     1       0.068  11.107  20.452  0.00  0.00    +0.000 C 
ATOM     14  C   UNL     1      -1.283  11.615  20.965  0.00  0.00    +0.000 C 
ATOM     15  C   UNL     1      -2.268  13.889  23.002  0.00  0.00    +0.000 A 
ATOM     16  C   UNL     1      -1.363  14.956  22.505  0.00  0.00    +0.000 A 
ENDROOT
BRANCH  16  17
ATOM     17  C   UNL     1      -0.049  14.698  21.871  0.00  0.00    +0.000 C 
ATOM     18  O   UNL     1       0.880  14.185  22.493  0.00  0.00    +0.000 OA
ATOM     19  N   UNL     1       0.117  15.120  20.558  0.00  0.00    +0.000 N 
ATOM     20  H   UNL     1      -0.230  16.048  20.382  0.00  0.00    +0.000 HD
BRANCH  19  21
ATOM     21  C   UNL     1       1.314  14.828  19.847  0.00  0.00    +0.000 A 
ATOM     22  C   UNL     1       1.430  13.633  19.133  0.00  0.00    +0.000 A 
ATOM     23  C   UNL     1       2.591  13.366  18.415  0.00  0.00    +0.000 A 
ATOM     24  F   UNL     1       2.689  12.223  17.722  0.00  0.00    +0.000 F 
ATOM     25  C   UNL     1       3.646  14.270  18.390  0.00  0.00    +0.000 A 
ATOM     26  C   UNL     1       3.536  15.472  19.091  0.00  0.00    +0.000 A 
ATOM     27  C   UNL     1       2.368  15.755  19.805  0.00  0.00    +0.000 A 
ATOM     28 CL   UNL     1       2.277  17.236  20.692  0.00  0.00    +0.000 Cl
ENDBRANCH  19  21
ENDBRANCH  16  17
TORSDOF 2
ENDMDL
