MODEL 1
REMARK VINA RESULT:      -8.0      0.000      0.000
REMARK  Name = 
REMARK  8 active torsions:
REMARK  status: ('A' for Active; 'I' for Inactive)
REMARK    1  A    between atoms: C_1  and  O_2
REMARK    2  A    between atoms: O_2  and  C_3
REMARK    3  A    between atoms: C_5  and  N_6
REMARK    4  A    between atoms: C_12  and  C_13
REMARK    5  A    between atoms: C_23  and  O_24
REMARK    6  A    between atoms: O_24  and  C_25
REMARK    7  A    between atoms: C_26  and  O_27
REMARK    8  A    between atoms: O_27  and  C_28
REMARK                            x       y       z     vdW  Elec       q    Type
REMARK                         _______ _______ _______ _____ _____    ______ ____
ROOT
ATOM      1  N   UNL     1       2.345   7.418  18.988  0.00  0.00    +0.000 N 
ATOM      2  C   UNL     1       2.487   7.639  17.620  0.00  0.00    +0.000 A 
ATOM      3  N   UNL     1       2.544   8.893  17.301  0.00  0.00    +0.000 NA
ATOM      4  C   UNL     1       1.982   9.495  18.371  0.00  0.00    +0.000 A 
ATOM      5  C   UNL     1       1.651  10.848  18.384  0.00  0.00    +0.000 A 
ATOM      6  C   UNL     1       0.812  11.325  19.368  0.00  0.00    +0.000 A 
ATOM      7  C   UNL     1       0.273  10.498  20.375  0.00  0.00    +0.000 A 
ATOM      8  C   UNL     1       0.795   9.135  20.488  0.00  0.00    +0.000 A 
ATOM      9  C   UNL     1       1.653   8.605  19.427  0.00  0.00    +0.000 A 
ENDROOT
BRANCH   7  10
ATOM     10  C   UNL     1      -0.873  11.187  21.122  0.00  0.00    +0.000 A 
ATOM     11  C   UNL     1      -1.557  12.246  20.433  0.00  0.00    +0.000 A 
ATOM     12  C   UNL     1      -2.407  13.179  21.060  0.00  0.00    +0.000 A 
ATOM     13  C   UNL     1      -2.661  13.060  22.413  0.00  0.00    +0.000 A 
ATOM     14  C   UNL     1      -2.071  12.006  23.117  0.00  0.00    +0.000 A 
ATOM     15  C   UNL     1      -1.187  11.085  22.486  0.00  0.00    +0.000 A 
ATOM     16 CL   UNL     1      -0.453   9.898  23.499  0.00  0.00    +0.000 Cl
ENDBRANCH   7  10
BRANCH   1  19
ATOM     17  C   UNL     1       4.701   4.453  19.227  0.00  0.00    +0.000 A 
ATOM     18  C   UNL     1       4.181   5.764  19.199  0.00  0.00    +0.000 A 
ATOM     19  C   UNL     1       2.799   6.102  19.436  0.00  0.00    +0.000 A 
ATOM     20  C   UNL     1       1.998   5.088  19.928  0.00  0.00    +0.000 A 
ATOM     21  C   UNL     1       2.516   3.759  20.003  0.00  0.00    +0.000 A 
ATOM     22  C   UNL     1       3.849   3.410  19.599  0.00  0.00    +0.000 A 
BRANCH  17  24
ATOM     23  C   UNL     1       6.616   4.975  17.830  0.00  0.00    +0.000 C 
ATOM     24  O   UNL     1       5.959   4.143  18.781  0.00  0.00    +0.000 OA
ENDBRANCH  17  24
BRANCH  21  25
ATOM     25  O   UNL     1       1.546   2.852  20.414  0.00  0.00    +0.000 OA
ATOM     26  C   UNL     1       1.455   2.521  21.796  0.00  0.00    +0.000 C 
ENDBRANCH  21  25
BRANCH  22  27
ATOM     27  O   UNL     1       4.156   2.075  19.595  0.00  0.00    +0.000 OA
ATOM     28  C   UNL     1       3.903   1.163  18.538  0.00  0.00    +0.000 C 
ENDBRANCH  22  27
ENDBRANCH   1  19
TORSDOF 5
ENDMDL
MODEL 2
REMARK VINA RESULT:      -7.7      3.987      8.819
REMARK  Name = 
REMARK  8 active torsions:
REMARK  status: ('A' for Active; 'I' for Inactive)
REMARK    1  A    between atoms: C_1  and  O_2
REMARK    2  A    between atoms: O_2  and  C_3
REMARK    3  A    between atoms: C_5  and  N_6
REMARK    4  A    between atoms: C_12  and  C_13
REMARK    5  A    between atoms: C_23  and  O_24
REMARK    6  A    between atoms: O_24  and  C_25
REMARK    7  A    between atoms: C_26  and  O_27
REMARK    8  A    between atoms: O_27  and  C_28
REMARK                            x       y       z     vdW  Elec       q    Type
REMARK                         _______ _______ _______ _____ _____    ______ ____
ROOT
ATOM      1  N   UNL     1       1.925   7.104  20.063  0.00  0.00    +0.000 N 
ATOM      2  C   UNL     1       1.314   6.021  20.692  0.00  0.00    +0.000 A 
ATOM      3  N   UNL     1       2.109   5.016  20.880  0.00  0.00    +0.000 NA
ATOM      4  C   UNL     1       3.089   5.243  19.979  0.00  0.00    +0.000 A 
ATOM      5  C   UNL     1       4.074   4.302  19.687  0.00  0.00    +0.000 A 
ATOM      6  C   UNL     1       4.846   4.465  18.557  0.00  0.00    +0.000 A 
ATOM      7  C   UNL     1       4.686   5.557  17.679  0.00  0.00    +0.000 A 
ATOM      8  C   UNL     1       3.810   6.651  18.104  0.00  0.00    +0.000 A 
ATOM      9  C   UNL     1       2.955   6.470  19.278  0.00  0.00    +0.000 A 
ENDROOT
BRANCH   7  10
ATOM     10  C   UNL     1       5.416   5.328  16.352  0.00  0.00    +0.000 A 
ATOM     11  C   UNL     1       4.807   4.419  15.421  0.00  0.00    +0.000 A 
ATOM     12  C   UNL     1       5.471   3.858  14.312  0.00  0.00    +0.000 A 
ATOM     13  C   UNL     1       6.774   4.232  14.045  0.00  0.00    +0.000 A 
ATOM     14  C   UNL     1       7.391   5.166  14.884  0.00  0.00    +0.000 A 
ATOM     15  C   UNL     1       6.727   5.704  16.022  0.00  0.00    +0.000 A 
ATOM     16 CL   UNL     1       7.645   6.767  17.023  0.00  0.00    +0.000 Cl
ENDBRANCH   7  10
BRANCH   1  19
ATOM     17  C   UNL     1       1.013  10.722  19.373  0.00  0.00    +0.000 A 
ATOM     18  C   UNL     1       1.265   9.342  19.223  0.00  0.00    +0.000 A 
ATOM     19  C   UNL     1       1.269   8.389  20.305  0.00  0.00    +0.000 A 
ATOM     20  C   UNL     1       0.786   8.840  21.520  0.00  0.00    +0.000 A 
ATOM     21  C   UNL     1       0.487  10.227  21.683  0.00  0.00    +0.000 A 
ATOM     22  C   UNL     1       0.652  11.196  20.636  0.00  0.00    +0.000 A 
BRANCH  17  24
ATOM     23  C   UNL     1       2.530  12.187  18.171  0.00  0.00    +0.000 C 
ATOM     24  O   UNL     1       1.235  11.631  18.371  0.00  0.00    +0.000 OA
ENDBRANCH  17  24
BRANCH  21  25
ATOM     25  O   UNL     1       0.120  10.524  22.990  0.00  0.00    +0.000 OA
ATOM     26  C   UNL     1      -1.258  10.718  23.291  0.00  0.00    +0.000 C 
ENDBRANCH  21  25
BRANCH  22  27
ATOM     27  O   UNL     1       0.459  12.508  20.983  0.00  0.00    +0.000 OA
ATOM     28  C   UNL     1      -0.673  13.300  20.659  0.00  0.00    +0.000 C 
ENDBRANCH  22  27
ENDBRANCH   1  19
TORSDOF 5
ENDMDL
MODEL 3
REMARK VINA RESULT:      -7.6      1.101      1.399
REMARK  Name = 
REMARK  8 active torsions:
REMARK  status: ('A' for Active; 'I' for Inactive)
REMARK    1  A    between atoms: C_1  and  O_2
REMARK    2  A    between atoms: O_2  and  C_3
REMARK    3  A    between atoms: C_5  and  N_6
REMARK    4  A    between atoms: C_12  and  C_13
REMARK    5  A    between atoms: C_23  and  O_24
REMARK    6  A    between atoms: O_24  and  C_25
REMARK    7  A    between atoms: C_26  and  O_27
REMARK    8  A    between atoms: O_27  and  C_28
REMARK                            x       y       z     vdW  Elec       q    Type
REMARK                         _______ _______ _______ _____ _____    ______ ____
ROOT
ATOM      1  N   UNL     1       2.254   7.615  19.022  0.00  0.00    +0.000 N 
ATOM      2  C   UNL     1       2.381   7.806  17.648  0.00  0.00    +0.000 A 
ATOM      3  N   UNL     1       2.478   9.051  17.304  0.00  0.00    +0.000 NA
ATOM      4  C   UNL     1       1.955   9.693  18.372  0.00  0.00    +0.000 A 
ATOM      5  C   UNL     1       1.672  11.056  18.365  0.00  0.00    +0.000 A 
ATOM      6  C   UNL     1       0.866  11.581  19.352  0.00  0.00    +0.000 A 
ATOM      7  C   UNL     1       0.316  10.792  20.383  0.00  0.00    +0.000 A 
ATOM      8  C   UNL     1       0.791   9.414  20.514  0.00  0.00    +0.000 A 
ATOM      9  C   UNL     1       1.612   8.834  19.449  0.00  0.00    +0.000 A 
ENDROOT
BRANCH   7  10
ATOM     10  C   UNL     1      -0.793  11.535  21.135  0.00  0.00    +0.000 A 
ATOM     11  C   UNL     1      -0.774  11.455  22.569  0.00  0.00    +0.000 A 
ATOM     12  C   UNL     1      -1.861  11.804  23.396  0.00  0.00    +0.000 A 
ATOM     13  C   UNL     1      -3.012  12.310  22.822  0.00  0.00    +0.000 A 
ATOM     14  C   UNL     1      -3.056  12.469  21.433  0.00  0.00    +0.000 A 
ATOM     15  C   UNL     1      -1.967  12.084  20.600  0.00  0.00    +0.000 A 
ATOM     16 CL   UNL     1      -2.201  12.243  18.898  0.00  0.00    +0.000 Cl
ENDBRANCH   7  10
BRANCH   1  19
ATOM     17  C   UNL     1       4.532   4.595  19.319  0.00  0.00    +0.000 A 
ATOM     18  C   UNL     1       4.046   5.918  19.272  0.00  0.00    +0.000 A 
ATOM     19  C   UNL     1       2.669   6.293  19.487  0.00  0.00    +0.000 A 
ATOM     20  C   UNL     1       1.836   5.303  19.976  0.00  0.00    +0.000 A 
ATOM     21  C   UNL     1       2.319   3.962  20.069  0.00  0.00    +0.000 A 
ATOM     22  C   UNL     1       3.649   3.577  19.687  0.00  0.00    +0.000 A 
BRANCH  17  24
ATOM     23  C   UNL     1       6.276   4.700  17.634  0.00  0.00    +0.000 C 
ATOM     24  O   UNL     1       5.788   4.250  18.893  0.00  0.00    +0.000 OA
ENDBRANCH  17  24
BRANCH  21  25
ATOM     25  O   UNL     1       1.322   3.083  20.474  0.00  0.00    +0.000 OA
ATOM     26  C   UNL     1       1.324   2.611  21.817  0.00  0.00    +0.000 C 
ENDBRANCH  21  25
BRANCH  22  27
ATOM     27  O   UNL     1       3.922   2.235  19.699  0.00  0.00    +0.000 OA
ATOM     28  C   UNL     1       3.667   1.321  18.644  0.00  0.00    +0.000 C 
ENDBRANCH  22  27
ENDBRANCH   1  19
TORSDOF 5
ENDMDL
MODEL 4
REMARK VINA RESULT:      -7.2      2.504      4.051
REMARK  Name = 
REMARK  8 active torsions:
REMARK  status: ('A' for Active; 'I' for Inactive)
REMARK    1  A    between atoms: C_1  and  O_2
REMARK    2  A    between atoms: O_2  and  C_3
REMARK    3  A    between atoms: C_5  and  N_6
REMARK    4  A    between atoms: C_12  and  C_13
REMARK    5  A    between atoms: C_23  and  O_24
REMARK    6  A    between atoms: O_24  and  C_25
REMARK    7  A    between atoms: C_26  and  O_27
REMARK    8  A    between atoms: O_27  and  C_28
REMARK                            x       y       z     vdW  Elec       q    Type
REMARK                         _______ _______ _______ _____ _____    ______ ____
ROOT
ATOM      1  N   UNL     1       2.412   7.239  19.045  0.00  0.00    +0.000 N 
ATOM      2  C   UNL     1       2.382   6.650  20.307  0.00  0.00    +0.000 A 
ATOM      3  N   UNL     1       1.376   7.026  21.030  0.00  0.00    +0.000 NA
ATOM      4  C   UNL     1       1.011   8.188  20.446  0.00  0.00    +0.000 A 
ATOM      5  C   UNL     1       0.082   9.055  21.014  0.00  0.00    +0.000 A 
ATOM      6  C   UNL     1      -0.015  10.345  20.537  0.00  0.00    +0.000 A 
ATOM      7  C   UNL     1       0.790  10.827  19.484  0.00  0.00    +0.000 A 
ATOM      8  C   UNL     1       1.602   9.858  18.748  0.00  0.00    +0.000 A 
ATOM      9  C   UNL     1       1.744   8.497  19.270  0.00  0.00    +0.000 A 
ENDROOT
BRANCH   7  10
ATOM     10  C   UNL     1       0.728  12.354  19.377  0.00  0.00    +0.000 A 
ATOM     11  C   UNL     1       1.674  13.102  20.158  0.00  0.00    +0.000 A 
ATOM     12  C   UNL     1       1.567  14.481  20.423  0.00  0.00    +0.000 A 
ATOM     13  C   UNL     1       0.528  15.199  19.864  0.00  0.00    +0.000 A 
ATOM     14  C   UNL     1      -0.384  14.530  19.041  0.00  0.00    +0.000 A 
ATOM     15  C   UNL     1      -0.291  13.129  18.804  0.00  0.00    +0.000 A 
ATOM     16 CL   UNL     1      -1.543  12.420  17.851  0.00  0.00    +0.000 Cl
ENDBRANCH   7  10
BRANCH   1  19
ATOM     17  C   UNL     1       3.587   4.145  17.187  0.00  0.00    +0.000 A 
ATOM     18  C   UNL     1       2.779   5.112  17.822  0.00  0.00    +0.000 A 
ATOM     19  C   UNL     1       3.166   6.484  18.045  0.00  0.00    +0.000 A 
ATOM     20  C   UNL     1       4.314   6.907  17.401  0.00  0.00    +0.000 A 
ATOM     21  C   UNL     1       5.128   5.952  16.717  0.00  0.00    +0.000 A 
ATOM     22  C   UNL     1       4.810   4.553  16.651  0.00  0.00    +0.000 A 
BRANCH  17  24
ATOM     23  C   UNL     1       3.459   2.029  18.369  0.00  0.00    +0.000 C 
ATOM     24  O   UNL     1       3.286   2.809  17.189  0.00  0.00    +0.000 OA
ENDBRANCH  17  24
BRANCH  21  25
ATOM     25  O   UNL     1       6.292   6.528  16.223  0.00  0.00    +0.000 OA
ATOM     26  C   UNL     1       7.342   6.844  17.131  0.00  0.00    +0.000 C 
ENDBRANCH  21  25
BRANCH  22  27
ATOM     27  O   UNL     1       5.755   3.740  16.083  0.00  0.00    +0.000 OA
ATOM     28  C   UNL     1       6.129   3.723  14.714  0.00  0.00    +0.000 C 
ENDBRANCH  22  27
ENDBRANCH   1  19
TORSDOF 5
ENDMDL
MODEL 5
REMARK VINA RESULT:      -7.2      0.882      2.445
REMARK  Name = 
REMARK  8 active torsions:
REMARK  status: ('A' for Active; 'I' for Inactive)
REMARK    1  A    between atoms: C_1  and  O_2
REMARK    2  A    between atoms: O_2  and  C_3
REMARK    3  A    between atoms: C_5  and  N_6
REMARK    4  A    between atoms: C_12  and  C_13
REMARK    5  A    between atoms: C_23  and  O_24
REMARK    6  A    between atoms: O_24  and  C_25
REMARK    7  A    between atoms: C_26  and  O_27
REMARK    8  A    between atoms: O_27  and  C_28
REMARK                            x       y       z     vdW  Elec       q    Type
REMARK                         _______ _______ _______ _____ _____    ______ ____
ROOT
ATOM      1  N   UNL     1       2.314   7.831  18.563  0.00  0.00    +0.000 N 
ATOM      2  C   UNL     1       2.460   8.335  17.273  0.00  0.00    +0.000 A 
ATOM      3  N   UNL     1       2.510   9.629  17.225  0.00  0.00    +0.000 NA
ATOM      4  C   UNL     1       1.938   9.989  18.394  0.00  0.00    +0.000 A 
ATOM      5  C   UNL     1       1.597  11.307  18.689  0.00  0.00    +0.000 A 
ATOM      6  C   UNL     1       0.749  11.562  19.746  0.00  0.00    +0.000 A 
ATOM      7  C   UNL     1       0.212  10.538  20.553  0.00  0.00    +0.000 A 
ATOM      8  C   UNL     1       0.744   9.184  20.381  0.00  0.00    +0.000 A 
ATOM      9  C   UNL     1       1.611   8.895  19.237  0.00  0.00    +0.000 A 
ENDROOT
BRANCH   7  10
ATOM     10  C   UNL     1      -0.942  11.047  21.421  0.00  0.00    +0.000 A 
ATOM     11  C   UNL     1      -1.792  12.056  20.851  0.00  0.00    +0.000 A 
ATOM     12  C   UNL     1      -2.689  12.848  21.594  0.00  0.00    +0.000 A 
ATOM     13  C   UNL     1      -2.824  12.626  22.951  0.00  0.00    +0.000 A 
ATOM     14  C   UNL     1      -2.067  11.610  23.543  0.00  0.00    +0.000 A 
ATOM     15  C   UNL     1      -1.137  10.835  22.794  0.00  0.00    +0.000 A 
ATOM     16 CL   UNL     1      -0.199   9.686  23.676  0.00  0.00    +0.000 Cl
ENDBRANCH   7  10
BRANCH   1  19
ATOM     17  C   UNL     1       2.804   4.522  20.355  0.00  0.00    +0.000 A 
ATOM     18  C   UNL     1       2.233   5.701  19.832  0.00  0.00    +0.000 A 
ATOM     19  C   UNL     1       2.776   6.453  18.727  0.00  0.00    +0.000 A 
ATOM     20  C   UNL     1       3.797   5.848  18.019  0.00  0.00    +0.000 A 
ATOM     21  C   UNL     1       4.364   4.631  18.508  0.00  0.00    +0.000 A 
ATOM     22  C   UNL     1       3.920   3.984  19.711  0.00  0.00    +0.000 A 
BRANCH  17  24
ATOM     23  C   UNL     1       1.414   2.928  21.546  0.00  0.00    +0.000 C 
ATOM     24  O   UNL     1       2.395   3.960  21.536  0.00  0.00    +0.000 OA
ENDBRANCH  17  24
BRANCH  21  25
ATOM     25  O   UNL     1       5.447   4.222  17.738  0.00  0.00    +0.000 OA
ATOM     26  C   UNL     1       5.252   3.986  16.348  0.00  0.00    +0.000 C 
ENDBRANCH  21  25
BRANCH  22  27
ATOM     27  O   UNL     1       4.652   2.904  20.128  0.00  0.00    +0.000 OA
ATOM     28  C   UNL     1       4.445   1.555  19.741  0.00  0.00    +0.000 C 
ENDBRANCH  22  27
ENDBRANCH   1  19
TORSDOF 5
ENDMDL
MODEL 6
REMARK VINA RESULT:      -7.1      2.785      5.025
REMARK  Name = 
REMARK  8 active torsions:
REMARK  status: ('A' for Active; 'I' for Inactive)
REMARK    1  A    between atoms: C_1  and  O_2
REMARK    2  A    between atoms: O_2  and  C_3
REMARK    3  A    between atoms: C_5  and  N_6
REMARK    4  A    between atoms: C_12  and  C_13
REMARK    5  A    between atoms: C_23  and  O_24
REMARK    6  A    between atoms: O_24  and  C_25
REMARK    7  A    between atoms: C_26  and  O_27
REMARK    8  A    between atoms: O_27  and  C_28
REMARK                            x       y       z     vdW  Elec       q    Type
REMARK                         _______ _______ _______ _____ _____    ______ ____
ROOT
ATOM      1  N   UNL     1       3.937   5.564  18.508  0.00  0.00    +0.000 N 
ATOM      2  C   UNL     1       4.134   4.419  19.276  0.00  0.00    +0.000 A 
ATOM      3  N   UNL     1       3.080   4.045  19.930  0.00  0.00    +0.000 NA
ATOM      4  C   UNL     1       2.341   5.176  19.968  0.00  0.00    +0.000 A 
ATOM      5  C   UNL     1       1.195   5.298  20.749  0.00  0.00    +0.000 A 
ATOM      6  C   UNL     1       0.672   6.551  20.984  0.00  0.00    +0.000 A 
ATOM      7  C   UNL     1       1.247   7.726  20.456  0.00  0.00    +0.000 A 
ATOM      8  C   UNL     1       2.311   7.576  19.462  0.00  0.00    +0.000 A 
ATOM      9  C   UNL     1       2.902   6.256  19.237  0.00  0.00    +0.000 A 
ENDROOT
BRANCH   7  10
ATOM     10  C   UNL     1       0.689   8.983  21.130  0.00  0.00    +0.000 A 
ATOM     11  C   UNL     1       0.403   8.897  22.535  0.00  0.00    +0.000 A 
ATOM     12  C   UNL     1      -0.387   9.826  23.241  0.00  0.00    +0.000 A 
ATOM     13  C   UNL     1      -0.887  10.931  22.577  0.00  0.00    +0.000 A 
ATOM     14  C   UNL     1      -0.582  11.095  21.222  0.00  0.00    +0.000 A 
ATOM     15  C   UNL     1       0.189  10.136  20.506  0.00  0.00    +0.000 A 
ATOM     16 CL   UNL     1       0.401  10.418  18.818  0.00  0.00    +0.000 Cl
ENDBRANCH   7  10
BRANCH   1  19
ATOM     17  C   UNL     1       5.764   4.516  15.351  0.00  0.00    +0.000 A 
ATOM     18  C   UNL     1       4.758   4.760  16.310  0.00  0.00    +0.000 A 
ATOM     19  C   UNL     1       4.869   5.708  17.391  0.00  0.00    +0.000 A 
ATOM     20  C   UNL     1       5.949   6.570  17.338  0.00  0.00    +0.000 A 
ATOM     21  C   UNL     1       6.961   6.368  16.350  0.00  0.00    +0.000 A 
ATOM     22  C   UNL     1       6.915   5.306  15.384  0.00  0.00    +0.000 A 
BRANCH  17  24
ATOM     23  C   UNL     1       5.210   3.630  13.161  0.00  0.00    +0.000 C 
ATOM     24  O   UNL     1       5.719   3.460  14.480  0.00  0.00    +0.000 OA
ENDBRANCH  17  24
BRANCH  21  25
ATOM     25  O   UNL     1       8.021   7.252  16.510  0.00  0.00    +0.000 OA
ATOM     26  C   UNL     1       7.962   8.215  17.556  0.00  0.00    +0.000 C 
ENDBRANCH  21  25
BRANCH  22  27
ATOM     27  O   UNL     1       8.023   5.152  14.594  0.00  0.00    +0.000 OA
ATOM     28  C   UNL     1       8.153   5.578  13.246  0.00  0.00    +0.000 C 
ENDBRANCH  22  27
ENDBRANCH   1  19
TORSDOF 5
ENDMDL
MODEL 7
REMARK VINA RESULT:      -7.1      4.946      9.184
REMARK  Name = 
REMARK  8 active torsions:
REMARK  status: ('A' for Active; 'I' for Inactive)
REMARK    1  A    between atoms: C_1  and  O_2
REMARK    2  A    between atoms: O_2  and  C_3
REMARK    3  A    between atoms: C_5  and  N_6
REMARK    4  A    between atoms: C_12  and  C_13
REMARK    5  A    between atoms: C_23  and  O_24
REMARK    6  A    between atoms: O_24  and  C_25
REMARK    7  A    between atoms: C_26  and  O_27
REMARK    8  A    between atoms: O_27  and  C_28
REMARK                            x       y       z     vdW  Elec       q    Type
REMARK                         _______ _______ _______ _____ _____    ______ ____
ROOT
ATOM      1  N   UNL     1       0.879  10.780  19.634  0.00  0.00    +0.000 N 
ATOM      2  C   UNL     1      -0.130  10.590  20.575  0.00  0.00    +0.000 A 
ATOM      3  N   UNL     1       0.088   9.595  21.375  0.00  0.00    +0.000 NA
ATOM      4  C   UNL     1       0.984   8.854  20.687  0.00  0.00    +0.000 A 
ATOM      5  C   UNL     1       1.362   7.574  21.082  0.00  0.00    +0.000 A 
ATOM      6  C   UNL     1       2.027   6.762  20.188  0.00  0.00    +0.000 A 
ATOM      7  C   UNL     1       2.351   7.179  18.880  0.00  0.00    +0.000 A 
ATOM      8  C   UNL     1       2.151   8.590  18.545  0.00  0.00    +0.000 A 
ATOM      9  C   UNL     1       1.409   9.448  19.469  0.00  0.00    +0.000 A 
ENDROOT
BRANCH   7  10
ATOM     10  C   UNL     1       2.774   6.000  17.999  0.00  0.00    +0.000 A 
ATOM     11  C   UNL     1       1.905   4.856  17.978  0.00  0.00    +0.000 A 
ATOM     12  C   UNL     1       2.274   3.589  17.485  0.00  0.00    +0.000 A 
ATOM     13  C   UNL     1       3.528   3.419  16.930  0.00  0.00    +0.000 A 
ATOM     14  C   UNL     1       4.389   4.519  16.866  0.00  0.00    +0.000 A 
ATOM     15  C   UNL     1       4.023   5.789  17.395  0.00  0.00    +0.000 A 
ATOM     16 CL   UNL     1       5.223   7.027  17.339  0.00  0.00    +0.000 Cl
ENDBRANCH   7  10
BRANCH   1  19
ATOM     17  C   UNL     1       2.573  13.906  18.309  0.00  0.00    +0.000 A 
ATOM     18  C   UNL     1       2.212  12.562  18.539  0.00  0.00    +0.000 A 
ATOM     19  C   UNL     1       0.950  12.136  19.093  0.00  0.00    +0.000 A 
ATOM     20  C   UNL     1      -0.030  13.107  19.198  0.00  0.00    +0.000 A 
ATOM     21  C   UNL     1       0.303  14.470  18.931  0.00  0.00    +0.000 A 
ATOM     22  C   UNL     1       1.618  14.898  18.543  0.00  0.00    +0.000 A 
BRANCH  17  24
ATOM     23  C   UNL     1       4.746  14.729  19.012  0.00  0.00    +0.000 C 
ATOM     24  O   UNL     1       3.851  14.289  17.996  0.00  0.00    +0.000 OA
ENDBRANCH  17  24
BRANCH  21  25
ATOM     25  O   UNL     1      -0.766  15.320  19.189  0.00  0.00    +0.000 OA
ATOM     26  C   UNL     1      -1.474  15.183  20.416  0.00  0.00    +0.000 C 
ENDBRANCH  21  25
BRANCH  22  27
ATOM     27  O   UNL     1       1.819  16.250  18.459  0.00  0.00    +0.000 OA
ATOM     28  C   UNL     1       2.048  17.130  19.549  0.00  0.00    +0.000 C 
ENDBRANCH  22  27
ENDBRANCH   1  19
TORSDOF 5
ENDMDL
MODEL 8
REMARK VINA RESULT:      -7.1      2.751      4.220
REMARK  Name = 
REMARK  8 active torsions:
REMARK  status: ('A' for Active; 'I' for Inactive)
REMARK    1  A    between atoms: C_1  and  O_2
REMARK    2  A    between atoms: O_2  and  C_3
REMARK    3  A    between atoms: C_5  and  N_6
REMARK    4  A    between atoms: C_12  and  C_13
REMARK    5  A    between atoms: C_23  and  O_24
REMARK    6  A    between atoms: O_24  and  C_25
REMARK    7  A    between atoms: C_26  and  O_27
REMARK    8  A    between atoms: O_27  and  C_28
REMARK                            x       y       z     vdW  Elec       q    Type
REMARK                         _______ _______ _______ _____ _____    ______ ____
ROOT
ATOM      1  N   UNL     1       1.638   9.747  18.339  0.00  0.00    +0.000 N 
ATOM      2  C   UNL     1       2.508  10.747  17.910  0.00  0.00    +0.000 A 
ATOM      3  N   UNL     1       2.225  11.918  18.385  0.00  0.00    +0.000 NA
ATOM      4  C   UNL     1       0.928  11.787  18.740  0.00  0.00    +0.000 A 
ATOM      5  C   UNL     1       0.141  12.870  19.123  0.00  0.00    +0.000 A 
ATOM      6  C   UNL     1      -1.228  12.723  19.170  0.00  0.00    +0.000 A 
ATOM      7  C   UNL     1      -1.873  11.511  18.851  0.00  0.00    +0.000 A 
ATOM      8  C   UNL     1      -1.039  10.322  18.666  0.00  0.00    +0.000 A 
ATOM      9  C   UNL     1       0.414  10.475  18.572  0.00  0.00    +0.000 A 
ENDROOT
BRANCH   7  10
ATOM     10  C   UNL     1      -3.380  11.705  18.655  0.00  0.00    +0.000 A 
ATOM     11  C   UNL     1      -4.104  12.321  19.732  0.00  0.00    +0.000 A 
ATOM     12  C   UNL     1      -5.507  12.297  19.858  0.00  0.00    +0.000 A 
ATOM     13  C   UNL     1      -6.266  11.700  18.870  0.00  0.00    +0.000 A 
ATOM     14  C   UNL     1      -5.612  11.144  17.766  0.00  0.00    +0.000 A 
ATOM     15  C   UNL     1      -4.192  11.140  17.660  0.00  0.00    +0.000 A 
ATOM     16 CL   UNL     1      -3.520  10.329  16.294  0.00  0.00    +0.000 Cl
ENDBRANCH   7  10
BRANCH   1  19
ATOM     17  C   UNL     1       2.443   6.264  19.612  0.00  0.00    +0.000 A 
ATOM     18  C   UNL     1       1.768   7.460  19.291  0.00  0.00    +0.000 A 
ATOM     19  C   UNL     1       2.197   8.397  18.282  0.00  0.00    +0.000 A 
ATOM     20  C   UNL     1       3.213   7.972  17.446  0.00  0.00    +0.000 A 
ATOM     21  C   UNL     1       3.885   6.743  17.728  0.00  0.00    +0.000 A 
ATOM     22  C   UNL     1       3.553   5.904  18.845  0.00  0.00    +0.000 A 
BRANCH  17  24
ATOM     23  C   UNL     1       1.216   4.434  20.630  0.00  0.00    +0.000 C 
ATOM     24  O   UNL     1       2.140   5.513  20.718  0.00  0.00    +0.000 OA
ENDBRANCH  17  24
BRANCH  21  25
ATOM     25  O   UNL     1       4.946   6.525  16.856  0.00  0.00    +0.000 OA
ATOM     26  C   UNL     1       6.229   7.039  17.192  0.00  0.00    +0.000 C 
ENDBRANCH  21  25
BRANCH  22  27
ATOM     27  O   UNL     1       4.376   4.831  19.067  0.00  0.00    +0.000 OA
ATOM     28  C   UNL     1       4.179   3.512  18.582  0.00  0.00    +0.000 C 
ENDBRANCH  22  27
ENDBRANCH   1  19
TORSDOF 5
ENDMDL
MODEL 9
REMARK VINA RESULT:      -7.1      2.974      5.162
REMARK  Name = 
REMARK  8 active torsions:
REMARK  status: ('A' for Active; 'I' for Inactive)
REMARK    1  A    between atoms: C_1  and  O_2
REMARK    2  A    between atoms: O_2  and  C_3
REMARK    3  A    between atoms: C_5  and  N_6
REMARK    4  A    between atoms: C_12  and  C_13
REMARK    5  A    between atoms: C_23  and  O_24
REMARK    6  A    between atoms: O_24  and  C_25
REMARK    7  A    between atoms: C_26  and  O_27
REMARK    8  A    between atoms: O_27  and  C_28
REMARK                            x       y       z     vdW  Elec       q    Type
REMARK                         _______ _______ _______ _____ _____    ______ ____
ROOT
ATOM      1  N   UNL     1       4.327   4.656  18.605  0.00  0.00    +0.000 N 
ATOM      2  C   UNL     1       4.331   3.536  19.433  0.00  0.00    +0.000 A 
ATOM      3  N   UNL     1       3.184   3.295  19.985  0.00  0.00    +0.000 NA
ATOM      4  C   UNL     1       2.560   4.490  19.901  0.00  0.00    +0.000 A 
ATOM      5  C   UNL     1       1.358   4.758  20.551  0.00  0.00    +0.000 A 
ATOM      6  C   UNL     1       0.940   6.065  20.680  0.00  0.00    +0.000 A 
ATOM      7  C   UNL     1       1.679   7.153  20.172  0.00  0.00    +0.000 A 
ATOM      8  C   UNL     1       2.819   6.856  19.303  0.00  0.00    +0.000 A 
ATOM      9  C   UNL     1       3.297   5.477  19.193  0.00  0.00    +0.000 A 
ENDROOT
BRANCH   7  10
ATOM     10  C   UNL     1       1.182   8.488  20.733  0.00  0.00    +0.000 A 
ATOM     11  C   UNL     1       0.967   8.560  22.152  0.00  0.00    +0.000 A 
ATOM     12  C   UNL     1       0.233   9.578  22.792  0.00  0.00    +0.000 A 
ATOM     13  C   UNL     1      -0.277  10.619  22.039  0.00  0.00    +0.000 A 
ATOM     14  C   UNL     1      -0.039  10.630  20.661  0.00  0.00    +0.000 A 
ATOM     15  C   UNL     1       0.674   9.581  20.015  0.00  0.00    +0.000 A 
ATOM     16 CL   UNL     1       0.804   9.677  18.297  0.00  0.00    +0.000 Cl
ENDBRANCH   7  10
BRANCH   1  19
ATOM     17  C   UNL     1       7.257   6.054  16.640  0.00  0.00    +0.000 A 
ATOM     18  C   UNL     1       6.396   5.674  17.691  0.00  0.00    +0.000 A 
ATOM     19  C   UNL     1       5.378   4.657  17.589  0.00  0.00    +0.000 A 
ATOM     20  C   UNL     1       5.410   3.873  16.450  0.00  0.00    +0.000 A 
ATOM     21  C   UNL     1       6.303   4.215  15.388  0.00  0.00    +0.000 A 
ATOM     22  C   UNL     1       7.194   5.341  15.441  0.00  0.00    +0.000 A 
BRANCH  17  24
ATOM     23  C   UNL     1       7.766   8.217  17.616  0.00  0.00    +0.000 C 
ATOM     24  O   UNL     1       8.054   7.167  16.698  0.00  0.00    +0.000 OA
ENDBRANCH  17  24
BRANCH  21  25
ATOM     25  O   UNL     1       6.127   3.392  14.282  0.00  0.00    +0.000 OA
ATOM     26  C   UNL     1       5.001   3.606  13.438  0.00  0.00    +0.000 C 
ENDBRANCH  21  25
BRANCH  22  27
ATOM     27  O   UNL     1       7.886   5.625  14.294  0.00  0.00    +0.000 OA
ATOM     28  C   UNL     1       7.716   4.989  13.036  0.00  0.00    +0.000 C 
ENDBRANCH  22  27
ENDBRANCH   1  19
TORSDOF 5
ENDMDL
