MODEL 1
REMARK VINA RESULT:      -7.9      0.000      0.000
REMARK  Name = 
REMARK  12 active torsions:
REMARK  status: ('A' for Active; 'I' for Inactive)
REMARK    1  A    between atoms: C_1  and  O_2
REMARK    2  A    between atoms: O_2  and  C_3
REMARK    3  A    between atoms: C_3  and  C_5
REMARK    4  A    between atoms: C_8  and  C_9
REMARK    5  A    between atoms: C_10  and  C_11
REMARK    6  A    between atoms: C_11  and  C_13
REMARK    7  A    between atoms: C_16  and  O_17
REMARK    8  A    between atoms: O_17  and  C_18
REMARK    9  A    between atoms: C_18  and  C_19
REMARK   10  A    between atoms: C_18  and  C_20
REMARK   11  A    between atoms: C_23  and  O_24
REMARK   12  A    between atoms: C_30  and  C_31
REMARK                            x       y       z     vdW  Elec       q    Type
REMARK                         _______ _______ _______ _____ _____    ______ ____
ROOT
ATOM      1  C   UNL     1       0.304  11.650  19.935  0.00  0.00    +0.000 C 
ATOM      2  C   UNL     1       1.319  11.284  18.903  0.00  0.00    +0.000 C 
ATOM      3  C   UNL     1       2.006  12.364  18.500  0.00  0.00    +0.000 C 
ATOM      4  C   UNL     1       1.560  13.528  19.305  0.00  0.00    +0.000 C 
ATOM      5  O   UNL     1       2.035  14.643  19.201  0.00  0.00    +0.000 OA
ATOM      6  N   UNL     1       0.618  13.034  20.204  0.00  0.00    +0.000 N 
ATOM      7  C   UNL     1       0.074  13.803  21.227  0.00  0.00    +0.000 A 
ATOM      8  C   UNL     1      -0.459  13.300  22.443  0.00  0.00    +0.000 A 
ATOM      9  C   UNL     1      -0.888  14.408  23.126  0.00  0.00    +0.000 A 
ATOM     10  C   UNL     1      -1.488  14.638  24.451  0.00  0.00    +0.000 C 
ATOM     11  O   UNL     1      -0.659  15.508  22.367  0.00  0.00    +0.000 OA
ATOM     12  N   UNL     1      -0.026  15.136  21.198  0.00  0.00    +0.000 NA
ENDROOT
BRANCH   1  16
ATOM     13  C   UNL     1      -3.744  11.399  18.347  0.00  0.00    +0.000 A 
ATOM     14  C   UNL     1      -2.744  10.531  17.900  0.00  0.00    +0.000 A 
ATOM     15  C   UNL     1      -1.465  10.584  18.454  0.00  0.00    +0.000 A 
ATOM     16  C   UNL     1      -1.148  11.523  19.454  0.00  0.00    +0.000 A 
ATOM     17  C   UNL     1      -2.179  12.346  19.942  0.00  0.00    +0.000 A 
ATOM     18  C   UNL     1      -3.462  12.293  19.385  0.00  0.00    +0.000 A 
BRANCH  13  19
ATOM     19  C   UNL     1      -5.065  11.340  17.669  0.00  0.00    +0.000 C 
ATOM     20  O   UNL     1      -5.337  12.002  16.680  0.00  0.00    +0.000 OA
BRANCH  19  22
ATOM     21  C   UNL     1      -7.008  11.165  18.941  0.00  0.00    +0.000 C 
ATOM     22  O   UNL     1      -5.906  10.502  18.322  0.00  0.00    +0.000 OA
ENDBRANCH  19  22
ENDBRANCH  13  19
ENDBRANCH   1  16
BRANCH   2  23
ATOM     23  C   UNL     1       1.624   9.954  18.316  0.00  0.00    +0.000 C 
ATOM     24  O   UNL     1       1.859   9.896  17.105  0.00  0.00    +0.000 OA
BRANCH  23  25
ATOM     25  C   UNL     1       1.747   8.693  19.108  0.00  0.00    +0.000 A 
ATOM     26  C   UNL     1       1.202   8.478  20.370  0.00  0.00    +0.000 A 
ATOM     27  C   UNL     1       1.378   7.273  21.054  0.00  0.00    +0.000 A 
ATOM     28  C   UNL     1       2.063   6.224  20.462  0.00  0.00    +0.000 A 
ATOM     29  C   UNL     1       2.580   6.396  19.181  0.00  0.00    +0.000 A 
ATOM     30  C   UNL     1       2.434   7.624  18.516  0.00  0.00    +0.000 A 
BRANCH  28  31
ATOM     31  O   UNL     1       2.210   5.121  21.250  0.00  0.00    +0.000 OA
BRANCH  31  32
ATOM     32  C   UNL     1       2.151   3.842  20.612  0.00  0.00    +0.000 C 
ATOM     33  C   UNL     1       2.456   2.738  21.619  0.00  0.00    +0.000 C 
ATOM     34  C   UNL     1       0.717   3.673  20.107  0.00  0.00    +0.000 C 
ENDBRANCH  31  32
ENDBRANCH  28  31
ENDBRANCH  23  25
ENDBRANCH   2  23
BRANCH   3  35
ATOM     35  O   UNL     1       3.008  12.434  17.564  0.00  0.00    +0.000 OA
ATOM     36  H   UNL     1       2.604  12.717  16.716  0.00  0.00    +0.000 HD
ENDBRANCH   3  35
TORSDOF 8
ENDMDL
MODEL 2
REMARK VINA RESULT:      -7.8      2.730      3.879
REMARK  Name = 
REMARK  12 active torsions:
REMARK  status: ('A' for Active; 'I' for Inactive)
REMARK    1  A    between atoms: C_1  and  O_2
REMARK    2  A    between atoms: O_2  and  C_3
REMARK    3  A    between atoms: C_3  and  C_5
REMARK    4  A    between atoms: C_8  and  C_9
REMARK    5  A    between atoms: C_10  and  C_11
REMARK    6  A    between atoms: C_11  and  C_13
REMARK    7  A    between atoms: C_16  and  O_17
REMARK    8  A    between atoms: O_17  and  C_18
REMARK    9  A    between atoms: C_18  and  C_19
REMARK   10  A    between atoms: C_18  and  C_20
REMARK   11  A    between atoms: C_23  and  O_24
REMARK   12  A    between atoms: C_30  and  C_31
REMARK                            x       y       z     vdW  Elec       q    Type
REMARK                         _______ _______ _______ _____ _____    ______ ____
ROOT
ATOM      1  C   UNL     1      -0.151  13.033  20.645  0.00  0.00    +0.000 C 
ATOM      2  C   UNL     1      -0.530  12.344  19.375  0.00  0.00    +0.000 C 
ATOM      3  C   UNL     1      -0.611  13.217  18.359  0.00  0.00    +0.000 C 
ATOM      4  C   UNL     1      -0.200  14.553  18.860  0.00  0.00    +0.000 C 
ATOM      5  O   UNL     1      -0.127  15.544  18.158  0.00  0.00    +0.000 OA
ATOM      6  N   UNL     1       0.151  14.371  20.195  0.00  0.00    +0.000 N 
ATOM      7  C   UNL     1       0.727  15.373  20.968  0.00  0.00    +0.000 A 
ATOM      8  C   UNL     1       1.555  15.167  22.103  0.00  0.00    +0.000 A 
ATOM      9  C   UNL     1       1.870  16.426  22.544  0.00  0.00    +0.000 A 
ATOM     10  C   UNL     1       2.715  16.962  23.625  0.00  0.00    +0.000 C 
ATOM     11  O   UNL     1       1.254  17.337  21.750  0.00  0.00    +0.000 OA
ATOM     12  N   UNL     1       0.570  16.682  20.746  0.00  0.00    +0.000 NA
ENDROOT
BRANCH   1  16
ATOM     13  C   UNL     1      -3.461  12.961  23.474  0.00  0.00    +0.000 A 
ATOM     14  C   UNL     1      -2.557  11.898  23.404  0.00  0.00    +0.000 A 
ATOM     15  C   UNL     1      -1.469  11.955  22.532  0.00  0.00    +0.000 A 
ATOM     16  C   UNL     1      -1.272  13.068  21.692  0.00  0.00    +0.000 A 
ATOM     17  C   UNL     1      -2.152  14.158  21.819  0.00  0.00    +0.000 A 
ATOM     18  C   UNL     1      -3.243  14.100  22.692  0.00  0.00    +0.000 A 
BRANCH  13  19
ATOM     19  C   UNL     1      -4.638  12.811  24.370  0.00  0.00    +0.000 C 
ATOM     20  O   UNL     1      -4.633  12.099  25.362  0.00  0.00    +0.000 OA
BRANCH  19  22
ATOM     21  C   UNL     1      -6.731  12.717  23.354  0.00  0.00    +0.000 C 
ATOM     22  O   UNL     1      -5.691  13.525  23.908  0.00  0.00    +0.000 OA
ENDBRANCH  19  22
ENDBRANCH  13  19
ENDBRANCH   1  16
BRANCH   2  23
ATOM     23  C   UNL     1      -0.808  10.905  19.134  0.00  0.00    +0.000 C 
ATOM     24  O   UNL     1      -1.967  10.578  18.858  0.00  0.00    +0.000 OA
BRANCH  23  25
ATOM     25  C   UNL     1       0.236   9.836  19.122  0.00  0.00    +0.000 A 
ATOM     26  C   UNL     1       0.960   9.429  18.005  0.00  0.00    +0.000 A 
ATOM     27  C   UNL     1       1.909   8.408  18.074  0.00  0.00    +0.000 A 
ATOM     28  C   UNL     1       2.200   7.799  19.285  0.00  0.00    +0.000 A 
ATOM     29  C   UNL     1       1.523   8.218  20.426  0.00  0.00    +0.000 A 
ATOM     30  C   UNL     1       0.542   9.218  20.343  0.00  0.00    +0.000 A 
BRANCH  28  31
ATOM     31  O   UNL     1       3.106   6.783  19.211  0.00  0.00    +0.000 OA
BRANCH  31  32
ATOM     32  C   UNL     1       3.379   6.237  17.917  0.00  0.00    +0.000 C 
ATOM     33  C   UNL     1       4.880   6.252  17.647  0.00  0.00    +0.000 C 
ATOM     34  C   UNL     1       2.893   4.787  17.945  0.00  0.00    +0.000 C 
ENDBRANCH  31  32
ENDBRANCH  28  31
ENDBRANCH  23  25
ENDBRANCH   2  23
BRANCH   3  35
ATOM     35  O   UNL     1      -0.938  12.971  17.049  0.00  0.00    +0.000 OA
ATOM     36  H   UNL     1      -0.899  12.000  16.911  0.00  0.00    +0.000 HD
ENDBRANCH   3  35
TORSDOF 8
ENDMDL
MODEL 3
REMARK VINA RESULT:      -7.7      4.570      9.593
REMARK  Name = 
REMARK  12 active torsions:
REMARK  status: ('A' for Active; 'I' for Inactive)
REMARK    1  A    between atoms: C_1  and  O_2
REMARK    2  A    between atoms: O_2  and  C_3
REMARK    3  A    between atoms: C_3  and  C_5
REMARK    4  A    between atoms: C_8  and  C_9
REMARK    5  A    between atoms: C_10  and  C_11
REMARK    6  A    between atoms: C_11  and  C_13
REMARK    7  A    between atoms: C_16  and  O_17
REMARK    8  A    between atoms: O_17  and  C_18
REMARK    9  A    between atoms: C_18  and  C_19
REMARK   10  A    between atoms: C_18  and  C_20
REMARK   11  A    between atoms: C_23  and  O_24
REMARK   12  A    between atoms: C_30  and  C_31
REMARK                            x       y       z     vdW  Elec       q    Type
REMARK                         _______ _______ _______ _____ _____    ______ ____
ROOT
ATOM      1  C   UNL     1      -6.249  14.008  21.089  0.00  0.00    +0.000 C 
ATOM      2  C   UNL     1      -6.319  15.440  20.674  0.00  0.00    +0.000 C 
ATOM      3  C   UNL     1      -6.476  15.549  19.345  0.00  0.00    +0.000 C 
ATOM      4  C   UNL     1      -6.614  14.184  18.780  0.00  0.00    +0.000 C 
ATOM      5  O   UNL     1      -6.815  13.959  17.601  0.00  0.00    +0.000 OA
ATOM      6  N   UNL     1      -6.566  13.312  19.864  0.00  0.00    +0.000 N 
ATOM      7  C   UNL     1      -6.807  11.948  19.748  0.00  0.00    +0.000 A 
ATOM      8  C   UNL     1      -7.274  11.101  20.788  0.00  0.00    +0.000 A 
ATOM      9  C   UNL     1      -7.346   9.855  20.223  0.00  0.00    +0.000 A 
ATOM     10  C   UNL     1      -7.787   8.530  20.693  0.00  0.00    +0.000 C 
ATOM     11  O   UNL     1      -6.924   9.930  18.936  0.00  0.00    +0.000 OA
ATOM     12  N   UNL     1      -6.622  11.241  18.628  0.00  0.00    +0.000 NA
ENDROOT
BRANCH   1  16
ATOM     13  C   UNL     1      -2.348  12.570  22.386  0.00  0.00    +0.000 A 
ATOM     14  C   UNL     1      -2.516  13.145  21.123  0.00  0.00    +0.000 A 
ATOM     15  C   UNL     1      -3.757  13.652  20.739  0.00  0.00    +0.000 A 
ATOM     16  C   UNL     1      -4.868  13.575  21.600  0.00  0.00    +0.000 A 
ATOM     17  C   UNL     1      -4.671  13.053  22.891  0.00  0.00    +0.000 A 
ATOM     18  C   UNL     1      -3.426  12.545  23.276  0.00  0.00    +0.000 A 
BRANCH  13  19
ATOM     19  C   UNL     1      -1.020  11.986  22.709  0.00  0.00    +0.000 C 
ATOM     20  O   UNL     1       0.031  12.448  22.293  0.00  0.00    +0.000 OA
BRANCH  19  22
ATOM     21  C   UNL     1      -0.325   9.790  23.054  0.00  0.00    +0.000 C 
ATOM     22  O   UNL     1      -1.154  10.875  23.472  0.00  0.00    +0.000 OA
ENDBRANCH  19  22
ENDBRANCH  13  19
ENDBRANCH   1  16
BRANCH   2  23
ATOM     23  C   UNL     1      -6.237  16.666  21.510  0.00  0.00    +0.000 C 
ATOM     24  O   UNL     1      -7.090  17.543  21.334  0.00  0.00    +0.000 OA
BRANCH  23  25
ATOM     25  C   UNL     1      -5.243  16.874  22.605  0.00  0.00    +0.000 A 
ATOM     26  C   UNL     1      -5.487  16.683  23.961  0.00  0.00    +0.000 A 
ATOM     27  C   UNL     1      -4.506  16.917  24.927  0.00  0.00    +0.000 A 
ATOM     28  C   UNL     1      -3.227  17.297  24.551  0.00  0.00    +0.000 A 
ATOM     29  C   UNL     1      -2.942  17.451  23.197  0.00  0.00    +0.000 A 
ATOM     30  C   UNL     1      -3.945  17.253  22.234  0.00  0.00    +0.000 A 
BRANCH  28  31
ATOM     31  O   UNL     1      -2.376  17.543  25.587  0.00  0.00    +0.000 OA
BRANCH  31  32
ATOM     32  C   UNL     1      -1.150  16.807  25.623  0.00  0.00    +0.000 C 
ATOM     33  C   UNL     1      -0.555  16.845  27.027  0.00  0.00    +0.000 C 
ATOM     34  C   UNL     1      -1.500  15.361  25.269  0.00  0.00    +0.000 C 
ENDBRANCH  31  32
ENDBRANCH  28  31
ENDBRANCH  23  25
ENDBRANCH   2  23
BRANCH   3  35
ATOM     35  O   UNL     1      -6.572  16.692  18.591  0.00  0.00    +0.000 OA
ATOM     36  H   UNL     1      -5.660  16.999  18.399  0.00  0.00    +0.000 HD
ENDBRANCH   3  35
TORSDOF 8
ENDMDL
MODEL 4
REMARK VINA RESULT:      -7.6      2.299      3.228
REMARK  Name = 
REMARK  12 active torsions:
REMARK  status: ('A' for Active; 'I' for Inactive)
REMARK    1  A    between atoms: C_1  and  O_2
REMARK    2  A    between atoms: O_2  and  C_3
REMARK    3  A    between atoms: C_3  and  C_5
REMARK    4  A    between atoms: C_8  and  C_9
REMARK    5  A    between atoms: C_10  and  C_11
REMARK    6  A    between atoms: C_11  and  C_13
REMARK    7  A    between atoms: C_16  and  O_17
REMARK    8  A    between atoms: O_17  and  C_18
REMARK    9  A    between atoms: C_18  and  C_19
REMARK   10  A    between atoms: C_18  and  C_20
REMARK   11  A    between atoms: C_23  and  O_24
REMARK   12  A    between atoms: C_30  and  C_31
REMARK                            x       y       z     vdW  Elec       q    Type
REMARK                         _______ _______ _______ _____ _____    ______ ____
ROOT
ATOM      1  C   UNL     1      -1.248  13.046  21.113  0.00  0.00    +0.000 C 
ATOM      2  C   UNL     1       0.073  12.399  21.367  0.00  0.00    +0.000 C 
ATOM      3  C   UNL     1       1.073  13.288  21.260  0.00  0.00    +0.000 C 
ATOM      4  C   UNL     1       0.482  14.626  21.011  0.00  0.00    +0.000 C 
ATOM      5  O   UNL     1       1.137  15.646  20.914  0.00  0.00    +0.000 OA
ATOM      6  N   UNL     1      -0.899  14.444  21.026  0.00  0.00    +0.000 N 
ATOM      7  C   UNL     1      -1.801  15.501  20.970  0.00  0.00    +0.000 A 
ATOM      8  C   UNL     1      -3.128  15.480  21.474  0.00  0.00    +0.000 A 
ATOM      9  C   UNL     1      -3.635  16.721  21.185  0.00  0.00    +0.000 A 
ATOM     10  C   UNL     1      -4.912  17.403  21.452  0.00  0.00    +0.000 C 
ATOM     11  O   UNL     1      -2.692  17.438  20.525  0.00  0.00    +0.000 OA
ATOM     12  N   UNL     1      -1.536  16.692  20.422  0.00  0.00    +0.000 NA
ENDROOT
BRANCH   1  16
ATOM     13  C   UNL     1      -3.187  11.514  17.526  0.00  0.00    +0.000 A 
ATOM     14  C   UNL     1      -3.922  11.754  18.690  0.00  0.00    +0.000 A 
ATOM     15  C   UNL     1      -3.301  12.296  19.816  0.00  0.00    +0.000 A 
ATOM     16  C   UNL     1      -1.924  12.590  19.813  0.00  0.00    +0.000 A 
ATOM     17  C   UNL     1      -1.210  12.405  18.615  0.00  0.00    +0.000 A 
ATOM     18  C   UNL     1      -1.833  11.861  17.487  0.00  0.00    +0.000 A 
BRANCH  13  19
ATOM     19  C   UNL     1      -3.889  10.871  16.385  0.00  0.00    +0.000 C 
ATOM     20  O   UNL     1      -5.072  11.054  16.141  0.00  0.00    +0.000 OA
BRANCH  19  22
ATOM     21  C   UNL     1      -3.233  10.091  14.291  0.00  0.00    +0.000 C 
ATOM     22  O   UNL     1      -3.056  10.046  15.707  0.00  0.00    +0.000 OA
ENDBRANCH  19  22
ENDBRANCH  13  19
ENDBRANCH   1  16
BRANCH   2  23
ATOM     23  C   UNL     1       0.378  10.983  21.700  0.00  0.00    +0.000 C 
ATOM     24  O   UNL     1       0.117  10.589  22.842  0.00  0.00    +0.000 OA
BRANCH  23  25
ATOM     25  C   UNL     1       0.902   9.983  20.722  0.00  0.00    +0.000 A 
ATOM     26  C   UNL     1       1.099  10.211  19.364  0.00  0.00    +0.000 A 
ATOM     27  C   UNL     1       1.577   9.215  18.511  0.00  0.00    +0.000 A 
ATOM     28  C   UNL     1       1.926   7.970  19.011  0.00  0.00    +0.000 A 
ATOM     29  C   UNL     1       1.782   7.729  20.374  0.00  0.00    +0.000 A 
ATOM     30  C   UNL     1       1.262   8.723  21.219  0.00  0.00    +0.000 A 
BRANCH  28  31
ATOM     31  O   UNL     1       2.331   7.069  18.070  0.00  0.00    +0.000 OA
BRANCH  31  32
ATOM     32  C   UNL     1       2.751   5.781  18.530  0.00  0.00    +0.000 C 
ATOM     33  C   UNL     1       1.866   4.695  17.927  0.00  0.00    +0.000 C 
ATOM     34  C   UNL     1       4.184   5.588  18.032  0.00  0.00    +0.000 C 
ENDBRANCH  31  32
ENDBRANCH  28  31
ENDBRANCH  23  25
ENDBRANCH   2  23
BRANCH   3  35
ATOM     35  O   UNL     1       2.421  13.075  21.413  0.00  0.00    +0.000 OA
ATOM     36  H   UNL     1       2.866  13.949  21.374  0.00  0.00    +0.000 HD
ENDBRANCH   3  35
TORSDOF 8
ENDMDL
MODEL 5
REMARK VINA RESULT:      -7.6      2.983      5.221
REMARK  Name = 
REMARK  12 active torsions:
REMARK  status: ('A' for Active; 'I' for Inactive)
REMARK    1  A    between atoms: C_1  and  O_2
REMARK    2  A    between atoms: O_2  and  C_3
REMARK    3  A    between atoms: C_3  and  C_5
REMARK    4  A    between atoms: C_8  and  C_9
REMARK    5  A    between atoms: C_10  and  C_11
REMARK    6  A    between atoms: C_11  and  C_13
REMARK    7  A    between atoms: C_16  and  O_17
REMARK    8  A    between atoms: O_17  and  C_18
REMARK    9  A    between atoms: C_18  and  C_19
REMARK   10  A    between atoms: C_18  and  C_20
REMARK   11  A    between atoms: C_23  and  O_24
REMARK   12  A    between atoms: C_30  and  C_31
REMARK                            x       y       z     vdW  Elec       q    Type
REMARK                         _______ _______ _______ _____ _____    ______ ____
ROOT
ATOM      1  C   UNL     1       0.344  10.751  19.813  0.00  0.00    +0.000 C 
ATOM      2  C   UNL     1       1.183   9.536  19.592  0.00  0.00    +0.000 C 
ATOM      3  C   UNL     1       1.350   8.852  20.735  0.00  0.00    +0.000 C 
ATOM      4  C   UNL     1       0.553   9.518  21.796  0.00  0.00    +0.000 C 
ATOM      5  O   UNL     1       0.467   9.103  22.936  0.00  0.00    +0.000 OA
ATOM      6  N   UNL     1      -0.097  10.583  21.177  0.00  0.00    +0.000 N 
ATOM      7  C   UNL     1      -1.053  11.361  21.820  0.00  0.00    +0.000 A 
ATOM      8  C   UNL     1      -2.093  12.086  21.180  0.00  0.00    +0.000 A 
ATOM      9  C   UNL     1      -2.768  12.707  22.198  0.00  0.00    +0.000 A 
ATOM     10  C   UNL     1      -3.963  13.565  22.274  0.00  0.00    +0.000 C 
ATOM     11  O   UNL     1      -2.165  12.406  23.375  0.00  0.00    +0.000 OA
ATOM     12  N   UNL     1      -1.117  11.538  23.144  0.00  0.00    +0.000 NA
ENDROOT
BRANCH   1  16
ATOM     13  C   UNL     1       2.672  14.384  19.219  0.00  0.00    +0.000 A 
ATOM     14  C   UNL     1       1.739  13.968  18.266  0.00  0.00    +0.000 A 
ATOM     15  C   UNL     1       0.960  12.833  18.491  0.00  0.00    +0.000 A 
ATOM     16  C   UNL     1       1.112  12.072  19.666  0.00  0.00    +0.000 A 
ATOM     17  C   UNL     1       2.008  12.537  20.645  0.00  0.00    +0.000 A 
ATOM     18  C   UNL     1       2.789  13.675  20.419  0.00  0.00    +0.000 A 
BRANCH  13  19
ATOM     19  C   UNL     1       3.520  15.560  18.890  0.00  0.00    +0.000 C 
ATOM     20  O   UNL     1       3.066  16.612  18.469  0.00  0.00    +0.000 OA
BRANCH  19  22
ATOM     21  C   UNL     1       5.501  14.842  17.898  0.00  0.00    +0.000 C 
ATOM     22  O   UNL     1       4.831  15.278  19.081  0.00  0.00    +0.000 OA
ENDBRANCH  19  22
ENDBRANCH  13  19
ENDBRANCH   1  16
BRANCH   2  23
ATOM     23  C   UNL     1       1.807   9.039  18.339  0.00  0.00    +0.000 C 
ATOM     24  O   UNL     1       1.953   9.840  17.409  0.00  0.00    +0.000 OA
BRANCH  23  25
ATOM     25  C   UNL     1       2.345   7.658  18.156  0.00  0.00    +0.000 A 
ATOM     26  C   UNL     1       1.592   6.488  18.196  0.00  0.00    +0.000 A 
ATOM     27  C   UNL     1       2.175   5.230  18.033  0.00  0.00    +0.000 A 
ATOM     28  C   UNL     1       3.531   5.114  17.767  0.00  0.00    +0.000 A 
ATOM     29  C   UNL     1       4.299   6.270  17.675  0.00  0.00    +0.000 A 
ATOM     30  C   UNL     1       3.714   7.530  17.881  0.00  0.00    +0.000 A 
BRANCH  28  31
ATOM     31  O   UNL     1       3.987   3.832  17.679  0.00  0.00    +0.000 OA
BRANCH  31  32
ATOM     32  C   UNL     1       3.507   2.893  18.645  0.00  0.00    +0.000 C 
ATOM     33  C   UNL     1       3.460   1.494  18.040  0.00  0.00    +0.000 C 
ATOM     34  C   UNL     1       4.511   2.903  19.798  0.00  0.00    +0.000 C 
ENDBRANCH  31  32
ENDBRANCH  28  31
ENDBRANCH  23  25
ENDBRANCH   2  23
BRANCH   3  35
ATOM     35  O   UNL     1       2.059   7.695  20.939  0.00  0.00    +0.000 OA
ATOM     36  H   UNL     1       2.987   7.863  20.667  0.00  0.00    +0.000 HD
ENDBRANCH   3  35
TORSDOF 8
ENDMDL
MODEL 6
REMARK VINA RESULT:      -7.5      2.902      5.368
REMARK  Name = 
REMARK  12 active torsions:
REMARK  status: ('A' for Active; 'I' for Inactive)
REMARK    1  A    between atoms: C_1  and  O_2
REMARK    2  A    between atoms: O_2  and  C_3
REMARK    3  A    between atoms: C_3  and  C_5
REMARK    4  A    between atoms: C_8  and  C_9
REMARK    5  A    between atoms: C_10  and  C_11
REMARK    6  A    between atoms: C_11  and  C_13
REMARK    7  A    between atoms: C_16  and  O_17
REMARK    8  A    between atoms: O_17  and  C_18
REMARK    9  A    between atoms: C_18  and  C_19
REMARK   10  A    between atoms: C_18  and  C_20
REMARK   11  A    between atoms: C_23  and  O_24
REMARK   12  A    between atoms: C_30  and  C_31
REMARK                            x       y       z     vdW  Elec       q    Type
REMARK                         _______ _______ _______ _____ _____    ______ ____
ROOT
ATOM      1  C   UNL     1      -1.683  12.429  20.308  0.00  0.00    +0.000 C 
ATOM      2  C   UNL     1      -0.642  11.831  21.195  0.00  0.00    +0.000 C 
ATOM      3  C   UNL     1      -1.121  11.629  22.432  0.00  0.00    +0.000 C 
ATOM      4  C   UNL     1      -2.559  11.996  22.440  0.00  0.00    +0.000 C 
ATOM      5  O   UNL     1      -3.281  11.877  23.412  0.00  0.00    +0.000 OA
ATOM      6  N   UNL     1      -2.866  12.375  21.136  0.00  0.00    +0.000 N 
ATOM      7  C   UNL     1      -4.161  12.652  20.714  0.00  0.00    +0.000 A 
ATOM      8  C   UNL     1      -4.636  12.542  19.380  0.00  0.00    +0.000 A 
ATOM      9  C   UNL     1      -5.950  12.928  19.441  0.00  0.00    +0.000 A 
ATOM     10  C   UNL     1      -7.049  13.011  18.463  0.00  0.00    +0.000 C 
ATOM     11  O   UNL     1      -6.248  13.275  20.717  0.00  0.00    +0.000 OA
ATOM     12  N   UNL     1      -5.144  13.070  21.519  0.00  0.00    +0.000 NA
ENDROOT
BRANCH   1  16
ATOM     13  C   UNL     1      -0.622  16.514  19.234  0.00  0.00    +0.000 A 
ATOM     14  C   UNL     1      -0.141  15.431  18.494  0.00  0.00    +0.000 A 
ATOM     15  C   UNL     1      -0.530  14.130  18.813  0.00  0.00    +0.000 A 
ATOM     16  C   UNL     1      -1.394  13.879  19.897  0.00  0.00    +0.000 A 
ATOM     17  C   UNL     1      -1.922  14.980  20.593  0.00  0.00    +0.000 A 
ATOM     18  C   UNL     1      -1.531  16.285  20.273  0.00  0.00    +0.000 A 
BRANCH  13  19
ATOM     19  C   UNL     1      -0.116  17.868  18.889  0.00  0.00    +0.000 C 
ATOM     20  O   UNL     1       0.372  18.627  19.711  0.00  0.00    +0.000 OA
BRANCH  19  22
ATOM     21  C   UNL     1       0.851  18.631  16.912  0.00  0.00    +0.000 C 
ATOM     22  O   UNL     1      -0.313  18.137  17.576  0.00  0.00    +0.000 OA
ENDBRANCH  19  22
ENDBRANCH  13  19
ENDBRANCH   1  16
BRANCH   2  23
ATOM     23  C   UNL     1       0.764  11.466  20.880  0.00  0.00    +0.000 C 
ATOM     24  O   UNL     1       1.662  12.199  21.309  0.00  0.00    +0.000 OA
BRANCH  23  25
ATOM     25  C   UNL     1       1.168  10.228  20.149  0.00  0.00    +0.000 A 
ATOM     26  C   UNL     1       1.344   8.974  20.725  0.00  0.00    +0.000 A 
ATOM     27  C   UNL     1       1.742   7.866  19.974  0.00  0.00    +0.000 A 
ATOM     28  C   UNL     1       1.921   7.975  18.604  0.00  0.00    +0.000 A 
ATOM     29  C   UNL     1       1.708   9.207  17.994  0.00  0.00    +0.000 A 
ATOM     30  C   UNL     1       1.347  10.326  18.762  0.00  0.00    +0.000 A 
BRANCH  28  31
ATOM     31  O   UNL     1       2.359   6.837  17.993  0.00  0.00    +0.000 OA
BRANCH  31  32
ATOM     32  C   UNL     1       2.546   5.680  18.812  0.00  0.00    +0.000 C 
ATOM     33  C   UNL     1       1.810   4.487  18.210  0.00  0.00    +0.000 C 
ATOM     34  C   UNL     1       4.047   5.387  18.817  0.00  0.00    +0.000 C 
ENDBRANCH  31  32
ENDBRANCH  28  31
ENDBRANCH  23  25
ENDBRANCH   2  23
BRANCH   3  35
ATOM     35  O   UNL     1      -0.469  11.109  23.523  0.00  0.00    +0.000 OA
ATOM     36  H   UNL     1      -0.182  11.861  24.084  0.00  0.00    +0.000 HD
ENDBRANCH   3  35
TORSDOF 8
ENDMDL
MODEL 7
REMARK VINA RESULT:      -7.5      0.492      1.366
REMARK  Name = 
REMARK  12 active torsions:
REMARK  status: ('A' for Active; 'I' for Inactive)
REMARK    1  A    between atoms: C_1  and  O_2
REMARK    2  A    between atoms: O_2  and  C_3
REMARK    3  A    between atoms: C_3  and  C_5
REMARK    4  A    between atoms: C_8  and  C_9
REMARK    5  A    between atoms: C_10  and  C_11
REMARK    6  A    between atoms: C_11  and  C_13
REMARK    7  A    between atoms: C_16  and  O_17
REMARK    8  A    between atoms: O_17  and  C_18
REMARK    9  A    between atoms: C_18  and  C_19
REMARK   10  A    between atoms: C_18  and  C_20
REMARK   11  A    between atoms: C_23  and  O_24
REMARK   12  A    between atoms: C_30  and  C_31
REMARK                            x       y       z     vdW  Elec       q    Type
REMARK                         _______ _______ _______ _____ _____    ______ ____
ROOT
ATOM      1  C   UNL     1       0.318  11.528  19.868  0.00  0.00    +0.000 C 
ATOM      2  C   UNL     1       1.437  11.234  18.925  0.00  0.00    +0.000 C 
ATOM      3  C   UNL     1       2.148  12.341  18.660  0.00  0.00    +0.000 C 
ATOM      4  C   UNL     1       1.606  13.450  19.485  0.00  0.00    +0.000 C 
ATOM      5  O   UNL     1       2.074  14.572  19.498  0.00  0.00    +0.000 OA
ATOM      6  N   UNL     1       0.584  12.894  20.251  0.00  0.00    +0.000 N 
ATOM      7  C   UNL     1      -0.072  13.595  21.257  0.00  0.00    +0.000 A 
ATOM      8  C   UNL     1      -0.719  13.014  22.379  0.00  0.00    +0.000 A 
ATOM      9  C   UNL     1      -1.230  14.075  23.081  0.00  0.00    +0.000 A 
ATOM     10  C   UNL     1      -1.965  14.218  24.349  0.00  0.00    +0.000 C 
ATOM     11  O   UNL     1      -0.939  15.221  22.417  0.00  0.00    +0.000 OA
ATOM     12  N   UNL     1      -0.186  14.926  21.299  0.00  0.00    +0.000 NA
ENDROOT
BRANCH   1  16
ATOM     13  C   UNL     1      -3.729  11.159  18.301  0.00  0.00    +0.000 A 
ATOM     14  C   UNL     1      -3.359  12.262  19.075  0.00  0.00    +0.000 A 
ATOM     15  C   UNL     1      -2.046  12.397  19.526  0.00  0.00    +0.000 A 
ATOM     16  C   UNL     1      -1.075  11.420  19.234  0.00  0.00    +0.000 A 
ATOM     17  C   UNL     1      -1.444  10.349  18.400  0.00  0.00    +0.000 A 
ATOM     18  C   UNL     1      -2.761  10.213  17.948  0.00  0.00    +0.000 A 
BRANCH  13  19
ATOM     19  C   UNL     1      -5.158  11.036  17.910  0.00  0.00    +0.000 C 
ATOM     20  O   UNL     1      -5.913  10.207  18.393  0.00  0.00    +0.000 OA
BRANCH  19  22
ATOM     21  C   UNL     1      -6.619  12.719  17.233  0.00  0.00    +0.000 C 
ATOM     22  O   UNL     1      -5.470  11.925  16.936  0.00  0.00    +0.000 OA
ENDBRANCH  19  22
ENDBRANCH  13  19
ENDBRANCH   1  16
BRANCH   2  23
ATOM     23  C   UNL     1       1.819   9.944  18.293  0.00  0.00    +0.000 C 
ATOM     24  O   UNL     1       2.199   9.966  17.117  0.00  0.00    +0.000 OA
BRANCH  23  25
ATOM     25  C   UNL     1       1.853   8.633  19.009  0.00  0.00    +0.000 A 
ATOM     26  C   UNL     1       2.401   7.456  18.508  0.00  0.00    +0.000 A 
ATOM     27  C   UNL     1       2.377   6.264  19.235  0.00  0.00    +0.000 A 
ATOM     28  C   UNL     1       1.850   6.234  20.517  0.00  0.00    +0.000 A 
ATOM     29  C   UNL     1       1.337   7.408  21.060  0.00  0.00    +0.000 A 
ATOM     30  C   UNL     1       1.328   8.594  20.308  0.00  0.00    +0.000 A 
BRANCH  28  31
ATOM     31  O   UNL     1       1.839   5.002  21.101  0.00  0.00    +0.000 OA
BRANCH  31  32
ATOM     32  C   UNL     1       2.091   3.872  20.261  0.00  0.00    +0.000 C 
ATOM     33  C   UNL     1       2.962   2.857  20.994  0.00  0.00    +0.000 C 
ATOM     34  C   UNL     1       0.732   3.239  19.963  0.00  0.00    +0.000 C 
ENDBRANCH  31  32
ENDBRANCH  28  31
ENDBRANCH  23  25
ENDBRANCH   2  23
BRANCH   3  35
ATOM     35  O   UNL     1       3.239  12.476  17.839  0.00  0.00    +0.000 OA
ATOM     36  H   UNL     1       3.299  11.665  17.288  0.00  0.00    +0.000 HD
ENDBRANCH   3  35
TORSDOF 8
ENDMDL
MODEL 8
REMARK VINA RESULT:      -7.4      1.387      1.803
REMARK  Name = 
REMARK  12 active torsions:
REMARK  status: ('A' for Active; 'I' for Inactive)
REMARK    1  A    between atoms: C_1  and  O_2
REMARK    2  A    between atoms: O_2  and  C_3
REMARK    3  A    between atoms: C_3  and  C_5
REMARK    4  A    between atoms: C_8  and  C_9
REMARK    5  A    between atoms: C_10  and  C_11
REMARK    6  A    between atoms: C_11  and  C_13
REMARK    7  A    between atoms: C_16  and  O_17
REMARK    8  A    between atoms: O_17  and  C_18
REMARK    9  A    between atoms: C_18  and  C_19
REMARK   10  A    between atoms: C_18  and  C_20
REMARK   11  A    between atoms: C_23  and  O_24
REMARK   12  A    between atoms: C_30  and  C_31
REMARK                            x       y       z     vdW  Elec       q    Type
REMARK                         _______ _______ _______ _____ _____    ______ ____
ROOT
ATOM      1  C   UNL     1      -0.389  11.313  20.448  0.00  0.00    +0.000 C 
ATOM      2  C   UNL     1       0.948  11.418  19.794  0.00  0.00    +0.000 C 
ATOM      3  C   UNL     1       1.535  12.590  20.084  0.00  0.00    +0.000 C 
ATOM      4  C   UNL     1       0.664  13.324  21.035  0.00  0.00    +0.000 C 
ATOM      5  O   UNL     1       0.951  14.402  21.518  0.00  0.00    +0.000 OA
ATOM      6  N   UNL     1      -0.418  12.485  21.291  0.00  0.00    +0.000 N 
ATOM      7  C   UNL     1      -1.382  12.767  22.252  0.00  0.00    +0.000 A 
ATOM      8  C   UNL     1      -2.183  11.807  22.925  0.00  0.00    +0.000 A 
ATOM      9  C   UNL     1      -2.989  12.539  23.757  0.00  0.00    +0.000 A 
ATOM     10  C   UNL     1      -4.011  12.206  24.763  0.00  0.00    +0.000 C 
ATOM     11  O   UNL     1      -2.719  13.857  23.582  0.00  0.00    +0.000 OA
ATOM     12  N   UNL     1      -1.693  13.999  22.671  0.00  0.00    +0.000 NA
ENDROOT
BRANCH   1  16
ATOM     13  C   UNL     1      -3.887  11.329  17.854  0.00  0.00    +0.000 A 
ATOM     14  C   UNL     1      -3.669  12.364  18.767  0.00  0.00    +0.000 A 
ATOM     15  C   UNL     1      -2.518  12.376  19.556  0.00  0.00    +0.000 A 
ATOM     16  C   UNL     1      -1.567  11.342  19.465  0.00  0.00    +0.000 A 
ATOM     17  C   UNL     1      -1.766  10.341  18.496  0.00  0.00    +0.000 A 
ATOM     18  C   UNL     1      -2.921  10.329  17.707  0.00  0.00    +0.000 A 
BRANCH  13  19
ATOM     19  C   UNL     1      -5.165  11.335  17.094  0.00  0.00    +0.000 C 
ATOM     20  O   UNL     1      -5.226  11.546  15.893  0.00  0.00    +0.000 OA
BRANCH  19  22
ATOM     21  C   UNL     1      -7.208  12.151  17.861  0.00  0.00    +0.000 C 
ATOM     22  O   UNL     1      -6.218  11.123  17.919  0.00  0.00    +0.000 OA
ENDBRANCH  19  22
ENDBRANCH  13  19
ENDBRANCH   1  16
BRANCH   2  23
ATOM     23  C   UNL     1       1.647  10.440  18.921  0.00  0.00    +0.000 C 
ATOM     24  O   UNL     1       2.152  10.857  17.873  0.00  0.00    +0.000 OA
BRANCH  23  25
ATOM     25  C   UNL     1       1.850   9.000  19.264  0.00  0.00    +0.000 A 
ATOM     26  C   UNL     1       1.469   8.395  20.457  0.00  0.00    +0.000 A 
ATOM     27  C   UNL     1       1.711   7.043  20.709  0.00  0.00    +0.000 A 
ATOM     28  C   UNL     1       2.296   6.242  19.741  0.00  0.00    +0.000 A 
ATOM     29  C   UNL     1       2.646   6.811  18.520  0.00  0.00    +0.000 A 
ATOM     30  C   UNL     1       2.436   8.181  18.289  0.00  0.00    +0.000 A 
BRANCH  28  31
ATOM     31  O   UNL     1       2.526   4.955  20.126  0.00  0.00    +0.000 OA
BRANCH  31  32
ATOM     32  C   UNL     1       1.412   4.207  20.622  0.00  0.00    +0.000 C 
ATOM     33  C   UNL     1       0.838   3.325  19.518  0.00  0.00    +0.000 C 
ATOM     34  C   UNL     1       1.950   3.316  21.742  0.00  0.00    +0.000 C 
ENDBRANCH  31  32
ENDBRANCH  28  31
ENDBRANCH  23  25
ENDBRANCH   2  23
BRANCH   3  35
ATOM     35  O   UNL     1       2.756  13.056  19.666  0.00  0.00    +0.000 OA
ATOM     36  H   UNL     1       2.844  12.847  18.711  0.00  0.00    +0.000 HD
ENDBRANCH   3  35
TORSDOF 8
ENDMDL
MODEL 9
REMARK VINA RESULT:      -7.4      2.809      7.270
REMARK  Name = 
REMARK  12 active torsions:
REMARK  status: ('A' for Active; 'I' for Inactive)
REMARK    1  A    between atoms: C_1  and  O_2
REMARK    2  A    between atoms: O_2  and  C_3
REMARK    3  A    between atoms: C_3  and  C_5
REMARK    4  A    between atoms: C_8  and  C_9
REMARK    5  A    between atoms: C_10  and  C_11
REMARK    6  A    between atoms: C_11  and  C_13
REMARK    7  A    between atoms: C_16  and  O_17
REMARK    8  A    between atoms: O_17  and  C_18
REMARK    9  A    between atoms: C_18  and  C_19
REMARK   10  A    between atoms: C_18  and  C_20
REMARK   11  A    between atoms: C_23  and  O_24
REMARK   12  A    between atoms: C_30  and  C_31
REMARK                            x       y       z     vdW  Elec       q    Type
REMARK                         _______ _______ _______ _____ _____    ______ ____
ROOT
ATOM      1  C   UNL     1       0.612  10.720  20.003  0.00  0.00    +0.000 C 
ATOM      2  C   UNL     1       0.144  11.187  21.341  0.00  0.00    +0.000 C 
ATOM      3  C   UNL     1       0.146  10.181  22.229  0.00  0.00    +0.000 C 
ATOM      4  C   UNL     1       0.707   8.977  21.567  0.00  0.00    +0.000 C 
ATOM      5  O   UNL     1       0.879   7.914  22.133  0.00  0.00    +0.000 OA
ATOM      6  N   UNL     1       1.053   9.373  20.278  0.00  0.00    +0.000 N 
ATOM      7  C   UNL     1       1.745   8.552  19.395  0.00  0.00    +0.000 A 
ATOM      8  C   UNL     1       2.560   8.997  18.321  0.00  0.00    +0.000 A 
ATOM      9  C   UNL     1       3.017   7.850  17.725  0.00  0.00    +0.000 A 
ATOM     10  C   UNL     1       3.929   7.559  16.606  0.00  0.00    +0.000 C 
ATOM     11  O   UNL     1       2.494   6.780  18.374  0.00  0.00    +0.000 OA
ATOM     12  N   UNL     1       1.730   7.216  19.437  0.00  0.00    +0.000 NA
ENDROOT
BRANCH   1  16
ATOM     13  C   UNL     1      -2.639  10.841  17.107  0.00  0.00    +0.000 A 
ATOM     14  C   UNL     1      -1.774  11.928  17.258  0.00  0.00    +0.000 A 
ATOM     15  C   UNL     1      -0.703  11.858  18.149  0.00  0.00    +0.000 A 
ATOM     16  C   UNL     1      -0.485  10.707  18.929  0.00  0.00    +0.000 A 
ATOM     17  C   UNL     1      -1.323   9.597  18.721  0.00  0.00    +0.000 A 
ATOM     18  C   UNL     1      -2.397   9.667  17.828  0.00  0.00    +0.000 A 
BRANCH  13  19
ATOM     19  C   UNL     1      -3.801  11.003  16.194  0.00  0.00    +0.000 C 
ATOM     20  O   UNL     1      -3.903  10.408  15.133  0.00  0.00    +0.000 OA
BRANCH  19  22
ATOM     21  C   UNL     1      -5.557  11.384  17.675  0.00  0.00    +0.000 C 
ATOM     22  O   UNL     1      -4.676  11.913  16.683  0.00  0.00    +0.000 OA
ENDBRANCH  19  22
ENDBRANCH  13  19
ENDBRANCH   1  16
BRANCH   2  23
ATOM     23  C   UNL     1      -0.293  12.542  21.764  0.00  0.00    +0.000 C 
ATOM     24  O   UNL     1       0.567  13.424  21.860  0.00  0.00    +0.000 OA
BRANCH  23  25
ATOM     25  C   UNL     1      -1.716  12.932  22.001  0.00  0.00    +0.000 A 
ATOM     26  C   UNL     1      -2.379  12.853  23.222  0.00  0.00    +0.000 A 
ATOM     27  C   UNL     1      -3.719  13.221  23.358  0.00  0.00    +0.000 A 
ATOM     28  C   UNL     1      -4.419  13.737  22.278  0.00  0.00    +0.000 A 
ATOM     29  C   UNL     1      -3.766  13.870  21.056  0.00  0.00    +0.000 A 
ATOM     30  C   UNL     1      -2.430  13.460  20.917  0.00  0.00    +0.000 A 
BRANCH  28  31
ATOM     31  O   UNL     1      -5.731  14.011  22.525  0.00  0.00    +0.000 OA
BRANCH  31  32
ATOM     32  C   UNL     1      -6.514  12.984  23.142  0.00  0.00    +0.000 C 
ATOM     33  C   UNL     1      -7.476  13.595  24.155  0.00  0.00    +0.000 C 
ATOM     34  C   UNL     1      -7.321  12.322  22.025  0.00  0.00    +0.000 C 
ENDBRANCH  31  32
ENDBRANCH  28  31
ENDBRANCH  23  25
ENDBRANCH   2  23
BRANCH   3  35
ATOM     35  O   UNL     1      -0.223  10.212  23.551  0.00  0.00    +0.000 OA
ATOM     36  H   UNL     1      -0.947   9.560  23.673  0.00  0.00    +0.000 HD
ENDBRANCH   3  35
TORSDOF 8
ENDMDL
