MODEL 1
REMARK VINA RESULT:      -8.3      0.000      0.000
REMARK  Name = 
REMARK  6 active torsions:
REMARK  status: ('A' for Active; 'I' for Inactive)
REMARK    1  A    between atoms: C_1  and  C_2
REMARK    2  A    between atoms: C_5  and  C_6
REMARK    3  A    between atoms: C_6  and  N_7
REMARK    4  A    between atoms: C_13  and  C_15
REMARK    5  A    between atoms: C_21  and  C_22
REMARK    6  A    between atoms: C_22  and  O_24
REMARK                            x       y       z     vdW  Elec       q    Type
REMARK                         _______ _______ _______ _____ _____    ______ ____
ROOT
ATOM      1  N   UNL     1       7.299   4.999  16.837  0.00  0.00    +0.000 NA
ATOM      2  C   UNL     1       6.463   3.857  17.299  0.00  0.00    +0.000 C 
ATOM      3  C   UNL     1       5.339   4.432  18.205  0.00  0.00    +0.000 C 
ATOM      4  C   UNL     1       4.985   3.501  19.404  0.00  0.00    +0.000 C 
ATOM      5  C   UNL     1       4.240   2.240  18.967  0.00  0.00    +0.000 C 
ATOM      6  N   UNL     1       3.041   2.623  18.225  0.00  0.00    +0.000 N 
ATOM      7  C   UNL     1       1.747   2.659  18.738  0.00  0.00    +0.000 C 
ATOM      8  O   UNL     1       0.788   3.076  18.095  0.00  0.00    +0.000 OA
ATOM      9  C   UNL     1       3.315   3.392  17.022  0.00  0.00    +0.000 C 
ATOM     10  C   UNL     1       4.025   4.693  17.413  0.00  0.00    +0.000 C 
ATOM     11  C   UNL     1       5.966   5.739  18.738  0.00  0.00    +0.000 C 
ATOM     12  C   UNL     1       7.333   5.854  18.067  0.00  0.00    +0.000 C 
ENDROOT
BRANCH   7  13
ATOM     13  C   UNL     1       1.525   2.174  20.134  0.00  0.00    +0.000 C 
ATOM     14  C   UNL     1       2.300   2.777  21.287  0.00  0.00    +0.000 C 
ATOM     15  C   UNL     1       0.837   3.070  21.138  0.00  0.00    +0.000 C 
ENDBRANCH   7  13
BRANCH  12  16
ATOM     16  C   UNL     1       7.830   7.283  17.827  0.00  0.00    +0.000 C 
ATOM     17  O   UNL     1       7.544   7.981  16.868  0.00  0.00    +0.000 OA
BRANCH  16  18
ATOM     18  O   UNL     1       8.614   7.715  18.847  0.00  0.00    +0.000 OA
ATOM     19  H   UNL     1       8.088   8.253  19.476  0.00  0.00    +0.000 HD
ENDBRANCH  16  18
ENDBRANCH  12  16
BRANCH   1  20
ATOM     20  C   UNL     1       6.733   5.709  15.664  0.00  0.00    +0.000 C 
BRANCH  20  25
ATOM     21  C   UNL     1       5.334   2.835  11.990  0.00  0.00    +0.000 C 
ATOM     22  C   UNL     1       6.245   3.790  12.656  0.00  0.00    +0.000 A 
ATOM     23  C   UNL     1       7.357   4.473  12.215  0.00  0.00    +0.000 A 
ATOM     24  C   UNL     1       7.811   5.251  13.310  0.00  0.00    +0.000 A 
ATOM     25  C   UNL     1       6.918   5.031  14.341  0.00  0.00    +0.000 A 
ATOM     26  O   UNL     1       5.973   4.118  13.955  0.00  0.00    +0.000 OA
ENDBRANCH  20  25
ENDBRANCH   1  20
TORSDOF 5
ENDMDL
MODEL 2
REMARK VINA RESULT:      -7.6      3.334      3.682
REMARK  Name = 
REMARK  6 active torsions:
REMARK  status: ('A' for Active; 'I' for Inactive)
REMARK    1  A    between atoms: C_1  and  C_2
REMARK    2  A    between atoms: C_5  and  C_6
REMARK    3  A    between atoms: C_6  and  N_7
REMARK    4  A    between atoms: C_13  and  C_15
REMARK    5  A    between atoms: C_21  and  C_22
REMARK    6  A    between atoms: C_22  and  O_24
REMARK                            x       y       z     vdW  Elec       q    Type
REMARK                         _______ _______ _______ _____ _____    ______ ____
ROOT
ATOM      1  N   UNL     1       5.140   4.476  16.937  0.00  0.00    +0.000 NA
ATOM      2  C   UNL     1       3.874   4.758  17.670  0.00  0.00    +0.000 C 
ATOM      3  C   UNL     1       4.144   5.942  18.640  0.00  0.00    +0.000 C 
ATOM      4  C   UNL     1       3.387   5.806  19.995  0.00  0.00    +0.000 C 
ATOM      5  C   UNL     1       1.881   6.030  19.849  0.00  0.00    +0.000 C 
ATOM      6  N   UNL     1       1.646   7.337  19.243  0.00  0.00    +0.000 N 
ATOM      7  C   UNL     1       1.291   8.496  19.927  0.00  0.00    +0.000 C 
ATOM      8  O   UNL     1       1.193   9.590  19.377  0.00  0.00    +0.000 OA
ATOM      9  C   UNL     1       2.226   7.483  17.917  0.00  0.00    +0.000 C 
ATOM     10  C   UNL     1       3.746   7.312  18.017  0.00  0.00    +0.000 C 
ATOM     11  C   UNL     1       5.665   5.838  18.890  0.00  0.00    +0.000 C 
ATOM     12  C   UNL     1       6.156   4.682  18.019  0.00  0.00    +0.000 C 
ENDROOT
BRANCH   7  13
ATOM     13  C   UNL     1       1.024   8.399  21.394  0.00  0.00    +0.000 C 
ATOM     14  C   UNL     1       0.661   9.635  22.191  0.00  0.00    +0.000 C 
ATOM     15  C   UNL     1      -0.382   8.594  21.914  0.00  0.00    +0.000 C 
ENDBRANCH   7  13
BRANCH  12  16
ATOM     16  C   UNL     1       7.597   4.807  17.513  0.00  0.00    +0.000 C 
ATOM     17  O   UNL     1       8.320   3.877  17.194  0.00  0.00    +0.000 OA
BRANCH  16  18
ATOM     18  O   UNL     1       7.980   6.106  17.418  0.00  0.00    +0.000 OA
ATOM     19  H   UNL     1       8.522   6.357  18.196  0.00  0.00    +0.000 HD
ENDBRANCH  16  18
ENDBRANCH  12  16
BRANCH   1  20
ATOM     20  C   UNL     1       5.358   5.367  15.771  0.00  0.00    +0.000 C 
BRANCH  20  25
ATOM     21  C   UNL     1       4.825   2.961  11.571  0.00  0.00    +0.000 C 
ATOM     22  C   UNL     1       5.607   3.678  12.600  0.00  0.00    +0.000 A 
ATOM     23  C   UNL     1       6.913   4.117  12.636  0.00  0.00    +0.000 A 
ATOM     24  C   UNL     1       7.090   4.748  13.892  0.00  0.00    +0.000 A 
ATOM     25  C   UNL     1       5.865   4.700  14.530  0.00  0.00    +0.000 A 
ATOM     26  O   UNL     1       4.962   4.023  13.755  0.00  0.00    +0.000 OA
ENDBRANCH  20  25
ENDBRANCH   1  20
TORSDOF 5
ENDMDL
MODEL 3
REMARK VINA RESULT:      -7.5      1.656      4.427
REMARK  Name = 
REMARK  6 active torsions:
REMARK  status: ('A' for Active; 'I' for Inactive)
REMARK    1  A    between atoms: C_1  and  C_2
REMARK    2  A    between atoms: C_5  and  C_6
REMARK    3  A    between atoms: C_6  and  N_7
REMARK    4  A    between atoms: C_13  and  C_15
REMARK    5  A    between atoms: C_21  and  C_22
REMARK    6  A    between atoms: C_22  and  O_24
REMARK                            x       y       z     vdW  Elec       q    Type
REMARK                         _______ _______ _______ _____ _____    ______ ____
ROOT
ATOM      1  N   UNL     1       5.898   5.821  15.443  0.00  0.00    +0.000 NA
ATOM      2  C   UNL     1       4.910   5.797  16.557  0.00  0.00    +0.000 C 
ATOM      3  C   UNL     1       4.561   4.311  16.848  0.00  0.00    +0.000 C 
ATOM      4  C   UNL     1       3.067   4.099  17.235  0.00  0.00    +0.000 C 
ATOM      5  C   UNL     1       2.740   4.638  18.628  0.00  0.00    +0.000 C 
ATOM      6  N   UNL     1       3.632   4.017  19.604  0.00  0.00    +0.000 N 
ATOM      7  C   UNL     1       3.304   2.952  20.438  0.00  0.00    +0.000 C 
ATOM      8  O   UNL     1       4.121   2.410  21.178  0.00  0.00    +0.000 OA
ATOM      9  C   UNL     1       5.042   4.284  19.366  0.00  0.00    +0.000 C 
ATOM     10  C   UNL     1       5.431   3.720  17.996  0.00  0.00    +0.000 C 
ATOM     11  C   UNL     1       4.843   3.624  15.493  0.00  0.00    +0.000 C 
ATOM     12  C   UNL     1       5.382   4.716  14.571  0.00  0.00    +0.000 C 
ENDROOT
BRANCH   7  13
ATOM     13  C   UNL     1       1.897   2.448  20.424  0.00  0.00    +0.000 C 
ATOM     14  C   UNL     1       1.044   2.520  21.673  0.00  0.00    +0.000 C 
ATOM     15  C   UNL     1       0.750   3.427  20.516  0.00  0.00    +0.000 C 
ENDBRANCH   7  13
BRANCH  12  16
ATOM     16  C   UNL     1       6.373   4.244  13.502  0.00  0.00    +0.000 C 
ATOM     17  O   UNL     1       7.247   4.927  12.995  0.00  0.00    +0.000 OA
BRANCH  16  18
ATOM     18  O   UNL     1       6.190   2.934  13.199  0.00  0.00    +0.000 OA
ATOM     19  H   UNL     1       6.890   2.389  13.618  0.00  0.00    +0.000 HD
ENDBRANCH  16  18
ENDBRANCH  12  16
BRANCH   1  20
ATOM     20  C   UNL     1       7.295   5.592  15.888  0.00  0.00    +0.000 C 
BRANCH  20  25
ATOM     21  C   UNL     1       8.270   9.857  18.025  0.00  0.00    +0.000 C 
ATOM     22  C   UNL     1       8.133   8.386  18.000  0.00  0.00    +0.000 A 
ATOM     23  C   UNL     1       8.181   7.432  18.992  0.00  0.00    +0.000 A 
ATOM     24  C   UNL     1       7.975   6.181  18.358  0.00  0.00    +0.000 A 
ATOM     25  C   UNL     1       7.766   6.452  17.019  0.00  0.00    +0.000 A 
ATOM     26  O   UNL     1       7.888   7.797  16.791  0.00  0.00    +0.000 OA
ENDBRANCH  20  25
ENDBRANCH   1  20
TORSDOF 5
ENDMDL
MODEL 4
REMARK VINA RESULT:      -7.5      1.834      4.585
REMARK  Name = 
REMARK  6 active torsions:
REMARK  status: ('A' for Active; 'I' for Inactive)
REMARK    1  A    between atoms: C_1  and  C_2
REMARK    2  A    between atoms: C_5  and  C_6
REMARK    3  A    between atoms: C_6  and  N_7
REMARK    4  A    between atoms: C_13  and  C_15
REMARK    5  A    between atoms: C_21  and  C_22
REMARK    6  A    between atoms: C_22  and  O_24
REMARK                            x       y       z     vdW  Elec       q    Type
REMARK                         _______ _______ _______ _____ _____    ______ ____
ROOT
ATOM      1  N   UNL     1       6.005   6.392  15.850  0.00  0.00    +0.000 NA
ATOM      2  C   UNL     1       4.909   6.549  16.846  0.00  0.00    +0.000 C 
ATOM      3  C   UNL     1       4.374   5.130  17.186  0.00  0.00    +0.000 C 
ATOM      4  C   UNL     1       2.833   5.098  17.417  0.00  0.00    +0.000 C 
ATOM      5  C   UNL     1       2.423   5.767  18.729  0.00  0.00    +0.000 C 
ATOM      6  N   UNL     1       3.135   5.133  19.835  0.00  0.00    +0.000 N 
ATOM      7  C   UNL     1       2.609   4.169  20.691  0.00  0.00    +0.000 C 
ATOM      8  O   UNL     1       3.281   3.603  21.549  0.00  0.00    +0.000 OA
ATOM      9  C   UNL     1       4.583   5.237  19.740  0.00  0.00    +0.000 C 
ATOM     10  C   UNL     1       5.050   4.539  18.458  0.00  0.00    +0.000 C 
ATOM     11  C   UNL     1       4.720   4.322  15.916  0.00  0.00    +0.000 C 
ATOM     12  C   UNL     1       5.467   5.284  14.995  0.00  0.00    +0.000 C 
ENDROOT
BRANCH   7  13
ATOM     13  C   UNL     1       1.165   3.809  20.551  0.00  0.00    +0.000 C 
ATOM     14  C   UNL     1       0.731   2.763  19.546  0.00  0.00    +0.000 C 
ATOM     15  C   UNL     1       0.683   2.453  21.012  0.00  0.00    +0.000 C 
ENDBRANCH   7  13
BRANCH  12  16
ATOM     16  C   UNL     1       6.507   4.639  14.073  0.00  0.00    +0.000 C 
ATOM     17  O   UNL     1       7.426   5.222  13.523  0.00  0.00    +0.000 OA
BRANCH  16  18
ATOM     18  O   UNL     1       6.311   3.300  13.964  0.00  0.00    +0.000 OA
ATOM     19  H   UNL     1       7.047   2.890  13.462  0.00  0.00    +0.000 HD
ENDBRANCH  16  18
ENDBRANCH  12  16
BRANCH   1  20
ATOM     20  C   UNL     1       7.315   6.056  16.460  0.00  0.00    +0.000 C 
BRANCH  20  25
ATOM     21  C   UNL     1       8.397  10.604  17.823  0.00  0.00    +0.000 C 
ATOM     22  C   UNL     1       8.295   9.144  18.032  0.00  0.00    +0.000 A 
ATOM     23  C   UNL     1       8.469   8.351  19.146  0.00  0.00    +0.000 A 
ATOM     24  C   UNL     1       8.230   7.018  18.730  0.00  0.00    +0.000 A 
ATOM     25  C   UNL     1       7.878   7.082  17.395  0.00  0.00    +0.000 A 
ATOM     26  O   UNL     1       7.942   8.378  16.957  0.00  0.00    +0.000 OA
ENDBRANCH  20  25
ENDBRANCH   1  20
TORSDOF 5
ENDMDL
MODEL 5
REMARK VINA RESULT:      -7.3      3.110      7.388
REMARK  Name = 
REMARK  6 active torsions:
REMARK  status: ('A' for Active; 'I' for Inactive)
REMARK    1  A    between atoms: C_1  and  C_2
REMARK    2  A    between atoms: C_5  and  C_6
REMARK    3  A    between atoms: C_6  and  N_7
REMARK    4  A    between atoms: C_13  and  C_15
REMARK    5  A    between atoms: C_21  and  C_22
REMARK    6  A    between atoms: C_22  and  O_24
REMARK                            x       y       z     vdW  Elec       q    Type
REMARK                         _______ _______ _______ _____ _____    ______ ____
ROOT
ATOM      1  N   UNL     1       2.692   4.981  20.878  0.00  0.00    +0.000 NA
ATOM      2  C   UNL     1       3.901   5.388  20.108  0.00  0.00    +0.000 C 
ATOM      3  C   UNL     1       3.917   4.568  18.788  0.00  0.00    +0.000 C 
ATOM      4  C   UNL     1       5.352   4.159  18.341  0.00  0.00    +0.000 C 
ATOM      5  C   UNL     1       6.167   5.347  17.828  0.00  0.00    +0.000 C 
ATOM      6  N   UNL     1       5.439   5.993  16.739  0.00  0.00    +0.000 N 
ATOM      7  C   UNL     1       5.690   5.819  15.380  0.00  0.00    +0.000 C 
ATOM      8  O   UNL     1       4.989   6.319  14.505  0.00  0.00    +0.000 OA
ATOM      9  C   UNL     1       4.136   6.509  17.127  0.00  0.00    +0.000 C 
ATOM     10  C   UNL     1       3.263   5.345  17.609  0.00  0.00    +0.000 C 
ATOM     11  C   UNL     1       3.116   3.301  19.164  0.00  0.00    +0.000 C 
ATOM     12  C   UNL     1       2.652   3.508  20.605  0.00  0.00    +0.000 C 
ENDROOT
BRANCH   7  13
ATOM     13  C   UNL     1       6.861   4.983  14.978  0.00  0.00    +0.000 C 
ATOM     14  C   UNL     1       6.690   3.849  13.989  0.00  0.00    +0.000 C 
ATOM     15  C   UNL     1       7.415   5.095  13.576  0.00  0.00    +0.000 C 
ENDBRANCH   7  13
BRANCH  12  16
ATOM     16  C   UNL     1       1.325   2.836  20.971  0.00  0.00    +0.000 C 
ATOM     17  O   UNL     1       0.994   2.485  22.091  0.00  0.00    +0.000 OA
BRANCH  16  18
ATOM     18  O   UNL     1       0.519   2.704  19.887  0.00  0.00    +0.000 OA
ATOM     19  H   UNL     1      -0.418   2.630  20.169  0.00  0.00    +0.000 HD
ENDBRANCH  16  18
ENDBRANCH  12  16
BRANCH   1  20
ATOM     20  C   UNL     1       1.455   5.676  20.445  0.00  0.00    +0.000 C 
BRANCH  20  25
ATOM     21  C   UNL     1       1.688  10.002  18.222  0.00  0.00    +0.000 C 
ATOM     22  C   UNL     1       1.556   9.121  19.402  0.00  0.00    +0.000 A 
ATOM     23  C   UNL     1       1.260   9.377  20.723  0.00  0.00    +0.000 A 
ATOM     24  C   UNL     1       1.269   8.124  21.386  0.00  0.00    +0.000 A 
ATOM     25  C   UNL     1       1.524   7.172  20.418  0.00  0.00    +0.000 A 
ATOM     26  O   UNL     1       1.727   7.779  19.207  0.00  0.00    +0.000 OA
ENDBRANCH  20  25
ENDBRANCH   1  20
TORSDOF 5
ENDMDL
MODEL 6
REMARK VINA RESULT:      -7.1      8.360     10.710
REMARK  Name = 
REMARK  6 active torsions:
REMARK  status: ('A' for Active; 'I' for Inactive)
REMARK    1  A    between atoms: C_1  and  C_2
REMARK    2  A    between atoms: C_5  and  C_6
REMARK    3  A    between atoms: C_6  and  N_7
REMARK    4  A    between atoms: C_13  and  C_15
REMARK    5  A    between atoms: C_21  and  C_22
REMARK    6  A    between atoms: C_22  and  O_24
REMARK                            x       y       z     vdW  Elec       q    Type
REMARK                         _______ _______ _______ _____ _____    ______ ____
ROOT
ATOM      1  N   UNL     1       0.136   9.712  20.300  0.00  0.00    +0.000 NA
ATOM      2  C   UNL     1       0.027  10.885  19.389  0.00  0.00    +0.000 C 
ATOM      3  C   UNL     1       0.249  12.166  20.240  0.00  0.00    +0.000 C 
ATOM      4  C   UNL     1      -0.641  13.362  19.787  0.00  0.00    +0.000 C 
ATOM      5  C   UNL     1      -0.193  13.952  18.449  0.00  0.00    +0.000 C 
ATOM      6  N   UNL     1       1.210  14.345  18.544  0.00  0.00    +0.000 N 
ATOM      7  C   UNL     1       1.677  15.640  18.752  0.00  0.00    +0.000 C 
ATOM      8  O   UNL     1       2.866  15.901  18.912  0.00  0.00    +0.000 OA
ATOM      9  C   UNL     1       2.111  13.243  18.843  0.00  0.00    +0.000 C 
ATOM     10  C   UNL     1       1.730  12.644  20.202  0.00  0.00    +0.000 C 
ATOM     11  C   UNL     1      -0.179  11.714  21.654  0.00  0.00    +0.000 C 
ATOM     12  C   UNL     1      -0.538  10.234  21.532  0.00  0.00    +0.000 C 
ENDROOT
BRANCH   7  13
ATOM     13  C   UNL     1       0.682  16.754  18.785  0.00  0.00    +0.000 C 
ATOM     14  C   UNL     1       0.140  17.258  20.107  0.00  0.00    +0.000 C 
ATOM     15  C   UNL     1       1.092  18.108  19.319  0.00  0.00    +0.000 C 
ENDBRANCH   7  13
BRANCH  12  16
ATOM     16  C   UNL     1      -0.293   9.393  22.789  0.00  0.00    +0.000 C 
ATOM     17  O   UNL     1       0.282   9.772  23.795  0.00  0.00    +0.000 OA
BRANCH  16  18
ATOM     18  O   UNL     1      -0.837   8.154  22.671  0.00  0.00    +0.000 OA
ATOM     19  H   UNL     1      -0.129   7.482  22.572  0.00  0.00    +0.000 HD
ENDBRANCH  16  18
ENDBRANCH  12  16
BRANCH   1  20
ATOM     20  C   UNL     1       1.536   9.288  20.552  0.00  0.00    +0.000 C 
BRANCH  20  25
ATOM     21  C   UNL     1       1.415   4.423  20.713  0.00  0.00    +0.000 C 
ATOM     22  C   UNL     1       1.775   5.722  20.108  0.00  0.00    +0.000 A 
ATOM     23  C   UNL     1       2.324   6.059  18.890  0.00  0.00    +0.000 A 
ATOM     24  C   UNL     1       2.432   7.472  18.875  0.00  0.00    +0.000 A 
ATOM     25  C   UNL     1       1.897   7.917  20.069  0.00  0.00    +0.000 A 
ATOM     26  O   UNL     1       1.518   6.849  20.838  0.00  0.00    +0.000 OA
ENDBRANCH  20  25
ENDBRANCH   1  20
TORSDOF 5
ENDMDL
MODEL 7
REMARK VINA RESULT:      -7.1      8.351     10.619
REMARK  Name = 
REMARK  6 active torsions:
REMARK  status: ('A' for Active; 'I' for Inactive)
REMARK    1  A    between atoms: C_1  and  C_2
REMARK    2  A    between atoms: C_5  and  C_6
REMARK    3  A    between atoms: C_6  and  N_7
REMARK    4  A    between atoms: C_13  and  C_15
REMARK    5  A    between atoms: C_21  and  C_22
REMARK    6  A    between atoms: C_22  and  O_24
REMARK                            x       y       z     vdW  Elec       q    Type
REMARK                         _______ _______ _______ _____ _____    ______ ____
ROOT
ATOM      1  N   UNL     1       0.064   9.729  20.354  0.00  0.00    +0.000 NA
ATOM      2  C   UNL     1      -0.025  10.894  19.430  0.00  0.00    +0.000 C 
ATOM      3  C   UNL     1       0.261  12.177  20.259  0.00  0.00    +0.000 C 
ATOM      4  C   UNL     1      -0.597  13.398  19.809  0.00  0.00    +0.000 C 
ATOM      5  C   UNL     1      -0.159  13.954  18.454  0.00  0.00    +0.000 C 
ATOM      6  N   UNL     1       1.259  14.299  18.512  0.00  0.00    +0.000 N 
ATOM      7  C   UNL     1       1.775  15.580  18.692  0.00  0.00    +0.000 C 
ATOM      8  O   UNL     1       2.976  15.800  18.823  0.00  0.00    +0.000 OA
ATOM      9  C   UNL     1       2.127  13.170  18.807  0.00  0.00    +0.000 C 
ATOM     10  C   UNL     1       1.756  12.602  20.181  0.00  0.00    +0.000 C 
ATOM     11  C   UNL     1      -0.151  11.759  21.688  0.00  0.00    +0.000 C 
ATOM     12  C   UNL     1      -0.564  10.291  21.594  0.00  0.00    +0.000 C 
ENDROOT
BRANCH   7  13
ATOM     13  C   UNL     1       0.821  16.728  18.733  0.00  0.00    +0.000 C 
ATOM     14  C   UNL     1       0.300  17.245  20.058  0.00  0.00    +0.000 C 
ATOM     15  C   UNL     1       1.280  18.064  19.271  0.00  0.00    +0.000 C 
ENDBRANCH   7  13
BRANCH  12  16
ATOM     16  C   UNL     1      -0.321   9.457  22.856  0.00  0.00    +0.000 C 
ATOM     17  O   UNL     1       0.343   9.805  23.818  0.00  0.00    +0.000 OA
BRANCH  16  18
ATOM     18  O   UNL     1      -0.975   8.270  22.802  0.00  0.00    +0.000 OA
ATOM     19  H   UNL     1      -0.976   7.842  23.684  0.00  0.00    +0.000 HD
ENDBRANCH  16  18
ENDBRANCH  12  16
BRANCH   1  20
ATOM     20  C   UNL     1       1.453   9.260  20.581  0.00  0.00    +0.000 C 
BRANCH  20  25
ATOM     21  C   UNL     1       3.607   5.982  17.696  0.00  0.00    +0.000 C 
ATOM     22  C   UNL     1       2.787   6.395  18.854  0.00  0.00    +0.000 A 
ATOM     23  C   UNL     1       2.261   5.694  19.917  0.00  0.00    +0.000 A 
ATOM     24  C   UNL     1       1.567   6.636  20.715  0.00  0.00    +0.000 A 
ATOM     25  C   UNL     1       1.752   7.868  20.117  0.00  0.00    +0.000 A 
ATOM     26  O   UNL     1       2.476   7.722  18.963  0.00  0.00    +0.000 OA
ENDBRANCH  20  25
ENDBRANCH   1  20
TORSDOF 5
ENDMDL
MODEL 8
REMARK VINA RESULT:      -6.9      3.392      3.845
REMARK  Name = 
REMARK  6 active torsions:
REMARK  status: ('A' for Active; 'I' for Inactive)
REMARK    1  A    between atoms: C_1  and  C_2
REMARK    2  A    between atoms: C_5  and  C_6
REMARK    3  A    between atoms: C_6  and  N_7
REMARK    4  A    between atoms: C_13  and  C_15
REMARK    5  A    between atoms: C_21  and  C_22
REMARK    6  A    between atoms: C_22  and  O_24
REMARK                            x       y       z     vdW  Elec       q    Type
REMARK                         _______ _______ _______ _____ _____    ______ ____
ROOT
ATOM      1  N   UNL     1       5.127   4.610  17.132  0.00  0.00    +0.000 NA
ATOM      2  C   UNL     1       3.816   4.867  17.789  0.00  0.00    +0.000 C 
ATOM      3  C   UNL     1       4.041   5.941  18.889  0.00  0.00    +0.000 C 
ATOM      4  C   UNL     1       3.174   5.704  20.161  0.00  0.00    +0.000 C 
ATOM      5  C   UNL     1       1.692   5.995  19.924  0.00  0.00    +0.000 C 
ATOM      6  N   UNL     1       1.545   7.362  19.433  0.00  0.00    +0.000 N 
ATOM      7  C   UNL     1       1.169   8.463  20.199  0.00  0.00    +0.000 C 
ATOM      8  O   UNL     1       1.147   9.607  19.754  0.00  0.00    +0.000 OA
ATOM      9  C   UNL     1       2.233   7.614  18.176  0.00  0.00    +0.000 C 
ATOM     10  C   UNL     1       3.734   7.378  18.375  0.00  0.00    +0.000 C 
ATOM     11  C   UNL     1       5.534   5.758  19.243  0.00  0.00    +0.000 C 
ATOM     12  C   UNL     1       6.060   4.674  18.303  0.00  0.00    +0.000 C 
ENDROOT
BRANCH   7  13
ATOM     13  C   UNL     1       0.783   8.234  21.624  0.00  0.00    +0.000 C 
ATOM     14  C   UNL     1       0.845   9.369  22.626  0.00  0.00    +0.000 C 
ATOM     15  C   UNL     1      -0.486   8.853  22.164  0.00  0.00    +0.000 C 
ENDBRANCH   7  13
BRANCH  12  16
ATOM     16  C   UNL     1       7.539   4.794  17.924  0.00  0.00    +0.000 C 
ATOM     17  O   UNL     1       8.144   4.040  17.180  0.00  0.00    +0.000 OA
BRANCH  16  18
ATOM     18  O   UNL     1       8.111   5.886  18.493  0.00  0.00    +0.000 OA
ATOM     19  H   UNL     1       7.727   6.047  19.381  0.00  0.00    +0.000 HD
ENDBRANCH  16  18
ENDBRANCH  12  16
BRANCH   1  20
ATOM     20  C   UNL     1       5.464   5.600  16.079  0.00  0.00    +0.000 C 
BRANCH  20  25
ATOM     21  C   UNL     1       8.179   5.328  12.046  0.00  0.00    +0.000 C 
ATOM     22  C   UNL     1       7.115   4.868  12.963  0.00  0.00    +0.000 A 
ATOM     23  C   UNL     1       6.336   3.732  12.987  0.00  0.00    +0.000 A 
ATOM     24  C   UNL     1       5.491   3.849  14.118  0.00  0.00    +0.000 A 
ATOM     25  C   UNL     1       5.838   5.030  14.746  0.00  0.00    +0.000 A 
ATOM     26  O   UNL     1       6.813   5.670  14.028  0.00  0.00    +0.000 OA
ENDBRANCH  20  25
ENDBRANCH   1  20
TORSDOF 5
ENDMDL
MODEL 9
REMARK VINA RESULT:      -6.9      9.629     12.206
REMARK  Name = 
REMARK  6 active torsions:
REMARK  status: ('A' for Active; 'I' for Inactive)
REMARK    1  A    between atoms: C_1  and  C_2
REMARK    2  A    between atoms: C_5  and  C_6
REMARK    3  A    between atoms: C_6  and  N_7
REMARK    4  A    between atoms: C_13  and  C_15
REMARK    5  A    between atoms: C_21  and  C_22
REMARK    6  A    between atoms: C_22  and  O_24
REMARK                            x       y       z     vdW  Elec       q    Type
REMARK                         _______ _______ _______ _____ _____    ______ ____
ROOT
ATOM      1  N   UNL     1      -1.247  12.861  20.134  0.00  0.00    +0.000 NA
ATOM      2  C   UNL     1      -0.483  13.897  19.385  0.00  0.00    +0.000 C 
ATOM      3  C   UNL     1       0.896  14.062  20.083  0.00  0.00    +0.000 C 
ATOM      4  C   UNL     1       1.406  15.534  20.086  0.00  0.00    +0.000 C 
ATOM      5  C   UNL     1       1.846  16.005  18.699  0.00  0.00    +0.000 C 
ATOM      6  N   UNL     1       2.865  15.094  18.184  0.00  0.00    +0.000 N 
ATOM      7  C   UNL     1       4.238  15.324  18.197  0.00  0.00    +0.000 C 
ATOM      8  O   UNL     1       5.057  14.485  17.832  0.00  0.00    +0.000 OA
ATOM      9  C   UNL     1       2.409  13.721  18.041  0.00  0.00    +0.000 C 
ATOM     10  C   UNL     1       1.997  13.186  19.417  0.00  0.00    +0.000 C 
ATOM     11  C   UNL     1       0.599  13.619  21.533  0.00  0.00    +0.000 C 
ATOM     12  C   UNL     1      -0.863  13.178  21.547  0.00  0.00    +0.000 C 
ENDROOT
BRANCH   7  13
ATOM     13  C   UNL     1       4.730  16.649  18.682  0.00  0.00    +0.000 C 
ATOM     14  C   UNL     1       5.217  16.811  20.107  0.00  0.00    +0.000 C 
ATOM     15  C   UNL     1       6.201  16.841  18.975  0.00  0.00    +0.000 C 
ENDBRANCH   7  13
BRANCH  12  16
ATOM     16  C   UNL     1      -1.208  12.077  22.556  0.00  0.00    +0.000 C 
ATOM     17  O   UNL     1      -0.405  11.339  23.101  0.00  0.00    +0.000 OA
BRANCH  16  18
ATOM     18  O   UNL     1      -2.541  12.038  22.812  0.00  0.00    +0.000 OA
ATOM     19  H   UNL     1      -2.797  11.149  23.138  0.00  0.00    +0.000 HD
ENDBRANCH  16  18
ENDBRANCH  12  16
BRANCH   1  20
ATOM     20  C   UNL     1      -0.897  11.472  19.745  0.00  0.00    +0.000 C 
BRANCH  20  25
ATOM     21  C   UNL     1      -4.658  11.336  16.655  0.00  0.00    +0.000 C 
ATOM     22  C   UNL     1      -3.344  10.893  17.168  0.00  0.00    +0.000 A 
ATOM     23  C   UNL     1      -2.396  10.028  16.667  0.00  0.00    +0.000 A 
ATOM     24  C   UNL     1      -1.335  10.008  17.606  0.00  0.00    +0.000 A 
ATOM     25  C   UNL     1      -1.679  10.900  18.603  0.00  0.00    +0.000 A 
ATOM     26  O   UNL     1      -2.919  11.425  18.353  0.00  0.00    +0.000 OA
ENDBRANCH  20  25
ENDBRANCH   1  20
TORSDOF 5
ENDMDL
