MODEL 1
REMARK VINA RESULT:      -7.3      0.000      0.000
REMARK  Name = 
REMARK  9 active torsions:
REMARK  status: ('A' for Active; 'I' for Inactive)
REMARK    1  A    between atoms: C_1  and  O_2
REMARK    2  A    between atoms: O_2  and  C_3
REMARK    3  A    between atoms: C_6  and  C_7
REMARK    4  A    between atoms: N_9  and  C_10
REMARK    5  A    between atoms: C_10  and  N_12
REMARK    6  A    between atoms: N_12  and  C_13
REMARK    7  A    between atoms: C_19  and  C_20
REMARK    8  A    between atoms: C_25  and  O_26
REMARK    9  A    between atoms: O_26  and  C_27
REMARK                            x       y       z     vdW  Elec       q    Type
REMARK                         _______ _______ _______ _____ _____    ______ ____
ROOT
ATOM      1  C   UNL     1       6.745   6.497  16.800  0.00  0.00    +0.000 C 
ATOM      2  S   UNL     1       7.025   5.403  15.568  0.00  0.00    +0.000 S 
ENDROOT
BRANCH   1   5
ATOM      3  C   UNL     1       8.131   8.063  18.168  0.00  0.00    +0.000 C 
ATOM      4  O   UNL     1       8.527   7.240  18.979  0.00  0.00    +0.000 OA
ATOM      5  N   UNL     1       7.414   7.700  17.026  0.00  0.00    +0.000 N 
ATOM      6  H   UNL     1       7.290   8.392  16.303  0.00  0.00    +0.000 HD
BRANCH   3  10
ATOM      7  C   UNL     1       9.089  12.272  18.520  0.00  0.00    +0.000 A 
ATOM      8  C   UNL     1       8.222  11.773  17.547  0.00  0.00    +0.000 A 
ATOM      9  C   UNL     1       7.957  10.408  17.468  0.00  0.00    +0.000 A 
ATOM     10  C   UNL     1       8.564   9.486  18.339  0.00  0.00    +0.000 A 
ATOM     11  C   UNL     1       9.484   9.979  19.262  0.00  0.00    +0.000 A 
ATOM     12  C   UNL     1       9.768  11.365  19.356  0.00  0.00    +0.000 A 
BRANCH   7  14
ATOM     13  C   UNL     1       8.329  14.354  19.371  0.00  0.00    +0.000 C 
ATOM     14  O   UNL     1       9.309  13.618  18.639  0.00  0.00    +0.000 OA
ENDBRANCH   7  14
BRANCH  12  15
ATOM     15  O   UNL     1      10.706  11.649  20.319  0.00  0.00    +0.000 OA
ATOM     16  C   UNL     1      12.054  11.872  19.921  0.00  0.00    +0.000 C 
ENDBRANCH  12  15
ENDBRANCH   3  10
ENDBRANCH   1   5
BRANCH   1  17
ATOM     17  N   UNL     1       5.824   6.138  17.763  0.00  0.00    +0.000 N 
ATOM     18  H   UNL     1       6.233   5.912  18.663  0.00  0.00    +0.000 HD
BRANCH  17  19
ATOM     19  C   UNL     1       4.416   6.233  17.657  0.00  0.00    +0.000 A 
ATOM     20  C   UNL     1       3.797   7.483  17.664  0.00  0.00    +0.000 A 
ATOM     21  C   UNL     1       2.429   7.575  17.888  0.00  0.00    +0.000 A 
ATOM     22  C   UNL     1       1.730   6.425  18.246  0.00  0.00    +0.000 A 
ATOM     23  C   UNL     1       2.347   5.174  18.252  0.00  0.00    +0.000 A 
ATOM     24  N   UNL     1       1.764   4.131  18.857  0.00  0.00    +0.000 NA
ATOM     25  C   UNL     1       2.469   2.976  18.913  0.00  0.00    +0.000 A 
ATOM     26  C   UNL     1       2.903   2.575  20.317  0.00  0.00    +0.000 C 
ATOM     27  C   UNL     1       3.410   2.670  17.950  0.00  0.00    +0.000 A 
ATOM     28  C   UNL     1       4.100   3.758  17.452  0.00  0.00    +0.000 A 
ATOM     29  C   UNL     1       3.643   5.059  17.734  0.00  0.00    +0.000 A 
ENDBRANCH  17  19
ENDBRANCH   1  17
TORSDOF 6
ENDMDL
MODEL 2
REMARK VINA RESULT:      -7.3      0.810      1.771
REMARK  Name = 
REMARK  9 active torsions:
REMARK  status: ('A' for Active; 'I' for Inactive)
REMARK    1  A    between atoms: C_1  and  O_2
REMARK    2  A    between atoms: O_2  and  C_3
REMARK    3  A    between atoms: C_6  and  C_7
REMARK    4  A    between atoms: N_9  and  C_10
REMARK    5  A    between atoms: C_10  and  N_12
REMARK    6  A    between atoms: N_12  and  C_13
REMARK    7  A    between atoms: C_19  and  C_20
REMARK    8  A    between atoms: C_25  and  O_26
REMARK    9  A    between atoms: O_26  and  C_27
REMARK                            x       y       z     vdW  Elec       q    Type
REMARK                         _______ _______ _______ _____ _____    ______ ____
ROOT
ATOM      1  C   UNL     1       6.639   6.440  16.717  0.00  0.00    +0.000 C 
ATOM      2  S   UNL     1       6.942   5.335  15.501  0.00  0.00    +0.000 S 
ENDROOT
BRANCH   1   5
ATOM      3  C   UNL     1       8.009   8.032  18.072  0.00  0.00    +0.000 C 
ATOM      4  O   UNL     1       8.419   7.219  18.885  0.00  0.00    +0.000 OA
ATOM      5  N   UNL     1       7.292   7.653  16.934  0.00  0.00    +0.000 N 
ATOM      6  H   UNL     1       7.156   8.339  16.208  0.00  0.00    +0.000 HD
BRANCH   3  10
ATOM      7  C   UNL     1       9.500  12.056  18.659  0.00  0.00    +0.000 A 
ATOM      8  C   UNL     1       9.951  10.966  19.406  0.00  0.00    +0.000 A 
ATOM      9  C   UNL     1       9.429   9.694  19.187  0.00  0.00    +0.000 A 
ATOM     10  C   UNL     1       8.422   9.462  18.233  0.00  0.00    +0.000 A 
ATOM     11  C   UNL     1       7.923  10.564  17.541  0.00  0.00    +0.000 A 
ATOM     12  C   UNL     1       8.441  11.866  17.752  0.00  0.00    +0.000 A 
BRANCH   7  14
ATOM     13  C   UNL     1      10.196  13.741  20.180  0.00  0.00    +0.000 C 
ATOM     14  O   UNL     1      10.049  13.298  18.831  0.00  0.00    +0.000 OA
ENDBRANCH   7  14
BRANCH  12  15
ATOM     15  O   UNL     1       7.813  12.816  16.982  0.00  0.00    +0.000 OA
ATOM     16  C   UNL     1       7.024  13.811  17.625  0.00  0.00    +0.000 C 
ENDBRANCH  12  15
ENDBRANCH   3  10
ENDBRANCH   1   5
BRANCH   1  17
ATOM     17  N   UNL     1       5.715   6.081  17.678  0.00  0.00    +0.000 N 
ATOM     18  H   UNL     1       6.124   5.803  18.563  0.00  0.00    +0.000 HD
BRANCH  17  19
ATOM     19  C   UNL     1       4.311   6.238  17.593  0.00  0.00    +0.000 A 
ATOM     20  C   UNL     1       3.741   7.506  17.706  0.00  0.00    +0.000 A 
ATOM     21  C   UNL     1       2.380   7.632  17.950  0.00  0.00    +0.000 A 
ATOM     22  C   UNL     1       1.639   6.485  18.223  0.00  0.00    +0.000 A 
ATOM     23  C   UNL     1       2.207   5.215  18.124  0.00  0.00    +0.000 A 
ATOM     24  N   UNL     1       1.588   4.150  18.650  0.00  0.00    +0.000 NA
ATOM     25  C   UNL     1       2.248   2.968  18.607  0.00  0.00    +0.000 A 
ATOM     26  C   UNL     1       2.676   2.440  19.971  0.00  0.00    +0.000 C 
ATOM     27  C   UNL     1       3.170   2.705  17.614  0.00  0.00    +0.000 A 
ATOM     28  C   UNL     1       3.898   3.801  17.197  0.00  0.00    +0.000 A 
ATOM     29  C   UNL     1       3.494   5.092  17.586  0.00  0.00    +0.000 A 
ENDBRANCH  17  19
ENDBRANCH   1  17
TORSDOF 6
ENDMDL
MODEL 3
REMARK VINA RESULT:      -7.3      6.112      9.146
REMARK  Name = 
REMARK  9 active torsions:
REMARK  status: ('A' for Active; 'I' for Inactive)
REMARK    1  A    between atoms: C_1  and  O_2
REMARK    2  A    between atoms: O_2  and  C_3
REMARK    3  A    between atoms: C_6  and  C_7
REMARK    4  A    between atoms: N_9  and  C_10
REMARK    5  A    between atoms: C_10  and  N_12
REMARK    6  A    between atoms: N_12  and  C_13
REMARK    7  A    between atoms: C_19  and  C_20
REMARK    8  A    between atoms: C_25  and  O_26
REMARK    9  A    between atoms: O_26  and  C_27
REMARK                            x       y       z     vdW  Elec       q    Type
REMARK                         _______ _______ _______ _____ _____    ______ ____
ROOT
ATOM      1  C   UNL     1       1.131   8.903  20.789  0.00  0.00    +0.000 C 
ATOM      2  S   UNL     1       1.224   9.276  22.415  0.00  0.00    +0.000 S 
ENDROOT
BRANCH   1   5
ATOM      3  C   UNL     1      -0.051  10.155  18.978  0.00  0.00    +0.000 C 
ATOM      4  O   UNL     1       0.921  10.765  18.561  0.00  0.00    +0.000 OA
ATOM      5  N   UNL     1       0.057   9.140  19.931  0.00  0.00    +0.000 N 
ATOM      6  H   UNL     1      -0.743   8.546  20.085  0.00  0.00    +0.000 HD
BRANCH   3  10
ATOM      7  C   UNL     1      -3.893  11.193  17.267  0.00  0.00    +0.000 A 
ATOM      8  C   UNL     1      -3.449  11.697  18.491  0.00  0.00    +0.000 A 
ATOM      9  C   UNL     1      -2.211  11.321  19.004  0.00  0.00    +0.000 A 
ATOM     10  C   UNL     1      -1.376  10.412  18.329  0.00  0.00    +0.000 A 
ATOM     11  C   UNL     1      -1.853   9.855  17.144  0.00  0.00    +0.000 A 
ATOM     12  C   UNL     1      -3.113  10.224  16.608  0.00  0.00    +0.000 A 
BRANCH   7  14
ATOM     13  C   UNL     1      -5.765  12.643  17.432  0.00  0.00    +0.000 C 
ATOM     14  O   UNL     1      -5.084  11.603  16.731  0.00  0.00    +0.000 OA
ENDBRANCH   7  14
BRANCH  12  15
ATOM     15  O   UNL     1      -3.405   9.561  15.441  0.00  0.00    +0.000 OA
ATOM     16  C   UNL     1      -3.031  10.152  14.201  0.00  0.00    +0.000 C 
ENDBRANCH  12  15
ENDBRANCH   3  10
ENDBRANCH   1   5
BRANCH   1  17
ATOM     17  N   UNL     1       2.182   8.193  20.245  0.00  0.00    +0.000 N 
ATOM     18  H   UNL     1       3.054   8.710  20.205  0.00  0.00    +0.000 HD
BRANCH  17  19
ATOM     19  C   UNL     1       2.189   6.815  19.924  0.00  0.00    +0.000 A 
ATOM     20  C   UNL     1       1.575   5.896  20.775  0.00  0.00    +0.000 A 
ATOM     21  C   UNL     1       1.854   4.541  20.646  0.00  0.00    +0.000 A 
ATOM     22  C   UNL     1       2.855   4.145  19.762  0.00  0.00    +0.000 A 
ATOM     23  C   UNL     1       3.481   5.061  18.918  0.00  0.00    +0.000 A 
ATOM     24  N   UNL     1       4.615   4.737  18.284  0.00  0.00    +0.000 NA
ATOM     25  C   UNL     1       5.221   5.712  17.564  0.00  0.00    +0.000 A 
ATOM     26  C   UNL     1       6.560   6.167  18.129  0.00  0.00    +0.000 C 
ATOM     27  C   UNL     1       4.491   6.745  17.011  0.00  0.00    +0.000 A 
ATOM     28  C   UNL     1       3.410   7.155  17.765  0.00  0.00    +0.000 A 
ATOM     29  C   UNL     1       2.978   6.366  18.848  0.00  0.00    +0.000 A 
ENDBRANCH  17  19
ENDBRANCH   1  17
TORSDOF 6
ENDMDL
MODEL 4
REMARK VINA RESULT:      -7.3      5.846      9.324
REMARK  Name = 
REMARK  9 active torsions:
REMARK  status: ('A' for Active; 'I' for Inactive)
REMARK    1  A    between atoms: C_1  and  O_2
REMARK    2  A    between atoms: O_2  and  C_3
REMARK    3  A    between atoms: C_6  and  C_7
REMARK    4  A    between atoms: N_9  and  C_10
REMARK    5  A    between atoms: C_10  and  N_12
REMARK    6  A    between atoms: N_12  and  C_13
REMARK    7  A    between atoms: C_19  and  C_20
REMARK    8  A    between atoms: C_25  and  O_26
REMARK    9  A    between atoms: O_26  and  C_27
REMARK                            x       y       z     vdW  Elec       q    Type
REMARK                         _______ _______ _______ _____ _____    ______ ____
ROOT
ATOM      1  C   UNL     1       0.742   9.118  21.524  0.00  0.00    +0.000 C 
ATOM      2  S   UNL     1      -0.288   9.357  22.818  0.00  0.00    +0.000 S 
ENDROOT
BRANCH   1   5
ATOM      3  C   UNL     1       1.950   7.518  20.031  0.00  0.00    +0.000 C 
ATOM      4  O   UNL     1       1.927   8.210  19.025  0.00  0.00    +0.000 OA
ATOM      5  N   UNL     1       1.536   7.999  21.276  0.00  0.00    +0.000 N 
ATOM      6  H   UNL     1       1.762   7.455  22.094  0.00  0.00    +0.000 HD
BRANCH   3  10
ATOM      7  C   UNL     1       3.467   3.467  19.818  0.00  0.00    +0.000 A 
ATOM      8  C   UNL     1       2.295   3.801  20.500  0.00  0.00    +0.000 A 
ATOM      9  C   UNL     1       1.857   5.121  20.549  0.00  0.00    +0.000 A 
ATOM     10  C   UNL     1       2.581   6.164  19.943  0.00  0.00    +0.000 A 
ATOM     11  C   UNL     1       3.788   5.838  19.327  0.00  0.00    +0.000 A 
ATOM     12  C   UNL     1       4.250   4.499  19.268  0.00  0.00    +0.000 A 
BRANCH   7  14
ATOM     13  C   UNL     1       3.485   1.474  18.529  0.00  0.00    +0.000 C 
ATOM     14  O   UNL     1       3.872   2.164  19.718  0.00  0.00    +0.000 OA
ENDBRANCH   7  14
BRANCH  12  15
ATOM     15  O   UNL     1       5.460   4.386  18.626  0.00  0.00    +0.000 OA
ATOM     16  C   UNL     1       5.480   4.305  17.205  0.00  0.00    +0.000 C 
ENDBRANCH  12  15
ENDBRANCH   3  10
ENDBRANCH   1   5
BRANCH   1  17
ATOM     17  N   UNL     1       0.912  10.173  20.651  0.00  0.00    +0.000 N 
ATOM     18  H   UNL     1       1.880  10.368  20.420  0.00  0.00    +0.000 HD
BRANCH  17  19
ATOM     19  C   UNL     1      -0.109  10.854  19.947  0.00  0.00    +0.000 A 
ATOM     20  C   UNL     1      -0.953  10.151  19.087  0.00  0.00    +0.000 A 
ATOM     21  C   UNL     1      -1.726  10.841  18.161  0.00  0.00    +0.000 A 
ATOM     22  C   UNL     1      -1.530  12.211  18.013  0.00  0.00    +0.000 A 
ATOM     23  C   UNL     1      -0.677  12.917  18.861  0.00  0.00    +0.000 A 
ATOM     24  N   UNL     1      -0.278  14.157  18.547  0.00  0.00    +0.000 NA
ATOM     25  C   UNL     1       0.631  14.739  19.365  0.00  0.00    +0.000 A 
ATOM     26  C   UNL     1       1.998  14.956  18.729  0.00  0.00    +0.000 C 
ATOM     27  C   UNL     1       0.707  14.397  20.701  0.00  0.00    +0.000 A 
ATOM     28  C   UNL     1       0.434  13.072  20.973  0.00  0.00    +0.000 A 
ATOM     29  C   UNL     1      -0.140  12.261  19.976  0.00  0.00    +0.000 A 
ENDBRANCH  17  19
ENDBRANCH   1  17
TORSDOF 6
ENDMDL
MODEL 5
REMARK VINA RESULT:      -7.2      5.525      8.888
REMARK  Name = 
REMARK  9 active torsions:
REMARK  status: ('A' for Active; 'I' for Inactive)
REMARK    1  A    between atoms: C_1  and  O_2
REMARK    2  A    between atoms: O_2  and  C_3
REMARK    3  A    between atoms: C_6  and  C_7
REMARK    4  A    between atoms: N_9  and  C_10
REMARK    5  A    between atoms: C_10  and  N_12
REMARK    6  A    between atoms: N_12  and  C_13
REMARK    7  A    between atoms: C_19  and  C_20
REMARK    8  A    between atoms: C_25  and  O_26
REMARK    9  A    between atoms: O_26  and  C_27
REMARK                            x       y       z     vdW  Elec       q    Type
REMARK                         _______ _______ _______ _____ _____    ______ ____
ROOT
ATOM      1  C   UNL     1       1.422   9.989  18.559  0.00  0.00    +0.000 C 
ATOM      2  S   UNL     1       2.075  11.509  18.316  0.00  0.00    +0.000 S 
ENDROOT
BRANCH   1   5
ATOM      3  C   UNL     1       2.398   7.698  18.759  0.00  0.00    +0.000 C 
ATOM      4  O   UNL     1       2.202   7.557  19.956  0.00  0.00    +0.000 OA
ATOM      5  N   UNL     1       1.886   8.781  18.041  0.00  0.00    +0.000 N 
ATOM      6  H   UNL     1       1.912   8.738  17.034  0.00  0.00    +0.000 HD
BRANCH   3  10
ATOM      7  C   UNL     1       4.670   4.677  16.643  0.00  0.00    +0.000 A 
ATOM      8  C   UNL     1       5.017   6.029  16.634  0.00  0.00    +0.000 A 
ATOM      9  C   UNL     1       4.246   6.963  17.320  0.00  0.00    +0.000 A 
ATOM     10  C   UNL     1       3.085   6.590  18.022  0.00  0.00    +0.000 A 
ATOM     11  C   UNL     1       2.700   5.252  17.968  0.00  0.00    +0.000 A 
ATOM     12  C   UNL     1       3.473   4.288  17.273  0.00  0.00    +0.000 A 
BRANCH   7  14
ATOM     13  C   UNL     1       5.976   4.119  14.740  0.00  0.00    +0.000 C 
ATOM     14  O   UNL     1       5.456   3.748  16.017  0.00  0.00    +0.000 OA
ENDBRANCH   7  14
BRANCH  12  15
ATOM     15  O   UNL     1       2.924   3.029  17.331  0.00  0.00    +0.000 OA
ATOM     16  C   UNL     1       3.311   2.158  18.388  0.00  0.00    +0.000 C 
ENDBRANCH  12  15
ENDBRANCH   3  10
ENDBRANCH   1   5
BRANCH   1  17
ATOM     17  N   UNL     1       0.237   9.919  19.263  0.00  0.00    +0.000 N 
ATOM     18  H   UNL     1      -0.501   9.413  18.784  0.00  0.00    +0.000 HD
BRANCH  17  19
ATOM     19  C   UNL     1       0.032  10.314  20.606  0.00  0.00    +0.000 A 
ATOM     20  C   UNL     1       0.337   9.436  21.647  0.00  0.00    +0.000 A 
ATOM     21  C   UNL     1      -0.156   9.680  22.922  0.00  0.00    +0.000 A 
ATOM     22  C   UNL     1      -1.066  10.718  23.102  0.00  0.00    +0.000 A 
ATOM     23  C   UNL     1      -1.384  11.591  22.062  0.00  0.00    +0.000 A 
ATOM     24  N   UNL     1      -2.449  12.398  22.152  0.00  0.00    +0.000 NA
ATOM     25  C   UNL     1      -2.756  13.141  21.062  0.00  0.00    +0.000 A 
ATOM     26  C   UNL     1      -4.063  12.749  20.384  0.00  0.00    +0.000 C 
ATOM     27  C   UNL     1      -1.778  13.525  20.166  0.00  0.00    +0.000 A 
ATOM     28  C   UNL     1      -0.768  12.603  19.985  0.00  0.00    +0.000 A 
ATOM     29  C   UNL     1      -0.652  11.515  20.871  0.00  0.00    +0.000 A 
ENDBRANCH  17  19
ENDBRANCH   1  17
TORSDOF 6
ENDMDL
MODEL 6
REMARK VINA RESULT:      -7.2      4.996      7.629
REMARK  Name = 
REMARK  9 active torsions:
REMARK  status: ('A' for Active; 'I' for Inactive)
REMARK    1  A    between atoms: C_1  and  O_2
REMARK    2  A    between atoms: O_2  and  C_3
REMARK    3  A    between atoms: C_6  and  C_7
REMARK    4  A    between atoms: N_9  and  C_10
REMARK    5  A    between atoms: C_10  and  N_12
REMARK    6  A    between atoms: N_12  and  C_13
REMARK    7  A    between atoms: C_19  and  C_20
REMARK    8  A    between atoms: C_25  and  O_26
REMARK    9  A    between atoms: O_26  and  C_27
REMARK                            x       y       z     vdW  Elec       q    Type
REMARK                         _______ _______ _______ _____ _____    ______ ____
ROOT
ATOM      1  C   UNL     1       2.270   5.539  20.795  0.00  0.00    +0.000 C 
ATOM      2  S   UNL     1       2.120   3.999  21.428  0.00  0.00    +0.000 S 
ENDROOT
BRANCH   1   5
ATOM      3  C   UNL     1       1.506   7.893  20.450  0.00  0.00    +0.000 C 
ATOM      4  O   UNL     1       2.016   8.055  19.352  0.00  0.00    +0.000 OA
ATOM      5  N   UNL     1       1.475   6.648  21.083  0.00  0.00    +0.000 N 
ATOM      6  H   UNL     1       0.874   6.537  21.885  0.00  0.00    +0.000 HD
BRANCH   3  10
ATOM      7  C   UNL     1      -0.548  11.099  22.517  0.00  0.00    +0.000 A 
ATOM      8  C   UNL     1      -0.306   9.854  23.102  0.00  0.00    +0.000 A 
ATOM      9  C   UNL     1       0.347   8.852  22.389  0.00  0.00    +0.000 A 
ATOM     10  C   UNL     1       0.764   9.042  21.059  0.00  0.00    +0.000 A 
ATOM     11  C   UNL     1       0.456  10.259  20.454  0.00  0.00    +0.000 A 
ATOM     12  C   UNL     1      -0.210  11.290  21.163  0.00  0.00    +0.000 A 
BRANCH   7  14
ATOM     13  C   UNL     1      -2.563  12.068  23.311  0.00  0.00    +0.000 C 
ATOM     14  O   UNL     1      -1.138  12.105  23.231  0.00  0.00    +0.000 OA
ENDBRANCH   7  14
BRANCH  12  15
ATOM     15  O   UNL     1      -0.429  12.406  20.392  0.00  0.00    +0.000 OA
ATOM     16  C   UNL     1      -1.484  12.385  19.436  0.00  0.00    +0.000 C 
ENDBRANCH  12  15
ENDBRANCH   3  10
ENDBRANCH   1   5
BRANCH   1  17
ATOM     17  N   UNL     1       3.213   5.723  19.804  0.00  0.00    +0.000 N 
ATOM     18  H   UNL     1       4.018   6.267  20.095  0.00  0.00    +0.000 HD
BRANCH  17  19
ATOM     19  C   UNL     1       3.235   5.094  18.537  0.00  0.00    +0.000 A 
ATOM     20  C   UNL     1       2.289   4.118  18.225  0.00  0.00    +0.000 A 
ATOM     21  C   UNL     1       2.496   3.279  17.137  0.00  0.00    +0.000 A 
ATOM     22  C   UNL     1       3.716   3.335  16.469  0.00  0.00    +0.000 A 
ATOM     23  C   UNL     1       4.671   4.301  16.786  0.00  0.00    +0.000 A 
ATOM     24  N   UNL     1       5.931   4.181  16.348  0.00  0.00    +0.000 NA
ATOM     25  C   UNL     1       6.826   5.101  16.782  0.00  0.00    +0.000 A 
ATOM     26  C   UNL     1       7.899   4.543  17.708  0.00  0.00    +0.000 C 
ATOM     27  C   UNL     1       6.424   6.375  17.130  0.00  0.00    +0.000 A 
ATOM     28  C   UNL     1       5.176   6.446  17.716  0.00  0.00    +0.000 A 
ATOM     29  C   UNL     1       4.325   5.325  17.677  0.00  0.00    +0.000 A 
ENDBRANCH  17  19
ENDBRANCH   1  17
TORSDOF 6
ENDMDL
MODEL 7
REMARK VINA RESULT:      -7.2      4.947      7.276
REMARK  Name = 
REMARK  9 active torsions:
REMARK  status: ('A' for Active; 'I' for Inactive)
REMARK    1  A    between atoms: C_1  and  O_2
REMARK    2  A    between atoms: O_2  and  C_3
REMARK    3  A    between atoms: C_6  and  C_7
REMARK    4  A    between atoms: N_9  and  C_10
REMARK    5  A    between atoms: C_10  and  N_12
REMARK    6  A    between atoms: N_12  and  C_13
REMARK    7  A    between atoms: C_19  and  C_20
REMARK    8  A    between atoms: C_25  and  O_26
REMARK    9  A    between atoms: O_26  and  C_27
REMARK                            x       y       z     vdW  Elec       q    Type
REMARK                         _______ _______ _______ _____ _____    ______ ____
ROOT
ATOM      1  C   UNL     1       2.812   5.255  19.123  0.00  0.00    +0.000 C 
ATOM      2  S   UNL     1       2.503   3.623  19.311  0.00  0.00    +0.000 S 
ENDROOT
BRANCH   1   5
ATOM      3  C   UNL     1       1.997   7.618  19.135  0.00  0.00    +0.000 C 
ATOM      4  O   UNL     1       2.324   7.893  17.991  0.00  0.00    +0.000 OA
ATOM      5  N   UNL     1       2.071   6.317  19.640  0.00  0.00    +0.000 N 
ATOM      6  H   UNL     1       1.606   6.120  20.512  0.00  0.00    +0.000 HD
BRANCH   3  10
ATOM      7  C   UNL     1       0.271  10.560  21.805  0.00  0.00    +0.000 A 
ATOM      8  C   UNL     1       0.538   9.246  22.197  0.00  0.00    +0.000 A 
ATOM      9  C   UNL     1       1.081   8.335  21.295  0.00  0.00    +0.000 A 
ATOM     10  C   UNL     1       1.358   8.689  19.963  0.00  0.00    +0.000 A 
ATOM     11  C   UNL     1       1.023   9.979  19.555  0.00  0.00    +0.000 A 
ATOM     12  C   UNL     1       0.468  10.919  20.458  0.00  0.00    +0.000 A 
BRANCH   7  14
ATOM     13  C   UNL     1      -1.541  11.258  23.169  0.00  0.00    +0.000 C 
ATOM     14  O   UNL     1      -0.209  11.474  22.702  0.00  0.00    +0.000 OA
ENDBRANCH   7  14
BRANCH  12  15
ATOM     15  O   UNL     1       0.201  12.129  19.864  0.00  0.00    +0.000 OA
ATOM     16  C   UNL     1      -0.902  12.227  18.970  0.00  0.00    +0.000 C 
ENDBRANCH  12  15
ENDBRANCH   3  10
ENDBRANCH   1   5
BRANCH   1  17
ATOM     17  N   UNL     1       3.852   5.607  18.286  0.00  0.00    +0.000 N 
ATOM     18  H   UNL     1       3.615   6.327  17.611  0.00  0.00    +0.000 HD
BRANCH  17  19
ATOM     19  C   UNL     1       5.201   5.199  18.404  0.00  0.00    +0.000 A 
ATOM     20  C   UNL     1       5.970   5.633  19.484  0.00  0.00    +0.000 A 
ATOM     21  C   UNL     1       7.353   5.514  19.440  0.00  0.00    +0.000 A 
ATOM     22  C   UNL     1       7.952   5.096  18.254  0.00  0.00    +0.000 A 
ATOM     23  C   UNL     1       7.188   4.674  17.166  0.00  0.00    +0.000 A 
ATOM     24  N   UNL     1       7.743   4.545  15.954  0.00  0.00    +0.000 NA
ATOM     25  C   UNL     1       6.918   4.232  14.926  0.00  0.00    +0.000 A 
ATOM     26  C   UNL     1       6.752   5.341  13.896  0.00  0.00    +0.000 C 
ATOM     27  C   UNL     1       5.756   3.517  15.141  0.00  0.00    +0.000 A 
ATOM     28  C   UNL     1       5.128   3.784  16.340  0.00  0.00    +0.000 A 
ATOM     29  C   UNL     1       5.807   4.515  17.333  0.00  0.00    +0.000 A 
ENDBRANCH  17  19
ENDBRANCH   1  17
TORSDOF 6
ENDMDL
MODEL 8
REMARK VINA RESULT:      -7.0      5.462      8.478
REMARK  Name = 
REMARK  9 active torsions:
REMARK  status: ('A' for Active; 'I' for Inactive)
REMARK    1  A    between atoms: C_1  and  O_2
REMARK    2  A    between atoms: O_2  and  C_3
REMARK    3  A    between atoms: C_6  and  C_7
REMARK    4  A    between atoms: N_9  and  C_10
REMARK    5  A    between atoms: C_10  and  N_12
REMARK    6  A    between atoms: N_12  and  C_13
REMARK    7  A    between atoms: C_19  and  C_20
REMARK    8  A    between atoms: C_25  and  O_26
REMARK    9  A    between atoms: O_26  and  C_27
REMARK                            x       y       z     vdW  Elec       q    Type
REMARK                         _______ _______ _______ _____ _____    ______ ____
ROOT
ATOM      1  C   UNL     1       0.962   9.643  18.885  0.00  0.00    +0.000 C 
ATOM      2  S   UNL     1      -0.560  10.028  18.311  0.00  0.00    +0.000 S 
ENDROOT
BRANCH   1   5
ATOM      3  C   UNL     1       2.253   7.531  19.228  0.00  0.00    +0.000 C 
ATOM      4  O   UNL     1       1.737   7.213  20.288  0.00  0.00    +0.000 OA
ATOM      5  N   UNL     1       1.783   8.599  18.460  0.00  0.00    +0.000 N 
ATOM      6  H   UNL     1       2.117   8.686  17.513  0.00  0.00    +0.000 HD
BRANCH   3  10
ATOM      7  C   UNL     1       5.466   5.242  17.439  0.00  0.00    +0.000 A 
ATOM      8  C   UNL     1       4.882   6.345  16.812  0.00  0.00    +0.000 A 
ATOM      9  C   UNL     1       3.842   7.039  17.425  0.00  0.00    +0.000 A 
ATOM     10  C   UNL     1       3.327   6.648  18.673  0.00  0.00    +0.000 A 
ATOM     11  C   UNL     1       3.862   5.504  19.263  0.00  0.00    +0.000 A 
ATOM     12  C   UNL     1       4.920   4.784  18.653  0.00  0.00    +0.000 A 
BRANCH   7  14
ATOM     13  C   UNL     1       6.876   4.998  15.545  0.00  0.00    +0.000 C 
ATOM     14  O   UNL     1       6.525   4.591  16.868  0.00  0.00    +0.000 OA
ENDBRANCH   7  14
BRANCH  12  15
ATOM     15  O   UNL     1       5.301   3.685  19.385  0.00  0.00    +0.000 OA
ATOM     16  C   UNL     1       4.314   2.727  19.753  0.00  0.00    +0.000 C 
ENDBRANCH  12  15
ENDBRANCH   3  10
ENDBRANCH   1   5
BRANCH   1  17
ATOM     17  N   UNL     1       1.429  10.365  19.965  0.00  0.00    +0.000 N 
ATOM     18  H   UNL     1       2.251  10.924  19.766  0.00  0.00    +0.000 HD
BRANCH  17  19
ATOM     19  C   UNL     1       0.781  10.524  21.213  0.00  0.00    +0.000 A 
ATOM     20  C   UNL     1       0.844   9.510  22.168  0.00  0.00    +0.000 A 
ATOM     21  C   UNL     1      -0.040   9.514  23.240  0.00  0.00    +0.000 A 
ATOM     22  C   UNL     1      -1.067  10.454  23.258  0.00  0.00    +0.000 A 
ATOM     23  C   UNL     1      -1.142  11.464  22.298  0.00  0.00    +0.000 A 
ATOM     24  N   UNL     1      -2.264  12.181  22.151  0.00  0.00    +0.000 NA
ATOM     25  C   UNL     1      -2.299  13.071  21.131  0.00  0.00    +0.000 A 
ATOM     26  C   UNL     1      -3.284  12.717  20.025  0.00  0.00    +0.000 C 
ATOM     27  C   UNL     1      -1.140  13.653  20.655  0.00  0.00    +0.000 A 
ATOM     28  C   UNL     1      -0.030  12.833  20.683  0.00  0.00    +0.000 A 
ATOM     29  C   UNL     1      -0.076  11.625  21.404  0.00  0.00    +0.000 A 
ENDBRANCH  17  19
ENDBRANCH   1  17
TORSDOF 6
ENDMDL
MODEL 9
REMARK VINA RESULT:      -7.0      5.179      7.432
REMARK  Name = 
REMARK  9 active torsions:
REMARK  status: ('A' for Active; 'I' for Inactive)
REMARK    1  A    between atoms: C_1  and  O_2
REMARK    2  A    between atoms: O_2  and  C_3
REMARK    3  A    between atoms: C_6  and  C_7
REMARK    4  A    between atoms: N_9  and  C_10
REMARK    5  A    between atoms: C_10  and  N_12
REMARK    6  A    between atoms: N_12  and  C_13
REMARK    7  A    between atoms: C_19  and  C_20
REMARK    8  A    between atoms: C_25  and  O_26
REMARK    9  A    between atoms: O_26  and  C_27
REMARK                            x       y       z     vdW  Elec       q    Type
REMARK                         _______ _______ _______ _____ _____    ______ ____
ROOT
ATOM      1  C   UNL     1       2.646   6.194  18.231  0.00  0.00    +0.000 C 
ATOM      2  S   UNL     1       1.776   4.801  17.920  0.00  0.00    +0.000 S 
ENDROOT
BRANCH   1   5
ATOM      3  C   UNL     1       1.707   7.284  20.274  0.00  0.00    +0.000 C 
ATOM      4  O   UNL     1       1.846   6.333  21.026  0.00  0.00    +0.000 OA
ATOM      5  N   UNL     1       2.233   7.296  18.980  0.00  0.00    +0.000 N 
ATOM      6  H   UNL     1       2.259   8.174  18.485  0.00  0.00    +0.000 HD
BRANCH   3  10
ATOM      7  C   UNL     1      -0.018  10.780  22.161  0.00  0.00    +0.000 A 
ATOM      8  C   UNL     1       0.112   9.554  22.816  0.00  0.00    +0.000 A 
ATOM      9  C   UNL     1       0.662   8.456  22.160  0.00  0.00    +0.000 A 
ATOM     10  C   UNL     1       1.081   8.530  20.819  0.00  0.00    +0.000 A 
ATOM     11  C   UNL     1       0.882   9.734  20.146  0.00  0.00    +0.000 A 
ATOM     12  C   UNL     1       0.322  10.862  20.798  0.00  0.00    +0.000 A 
BRANCH   7  14
ATOM     13  C   UNL     1      -1.927  11.968  22.925  0.00  0.00    +0.000 C 
ATOM     14  O   UNL     1      -0.506  11.877  22.819  0.00  0.00    +0.000 OA
ENDBRANCH   7  14
BRANCH  12  15
ATOM     15  O   UNL     1       0.200  11.947  19.965  0.00  0.00    +0.000 OA
ATOM     16  C   UNL     1      -0.984  12.088  19.186  0.00  0.00    +0.000 C 
ENDBRANCH  12  15
ENDBRANCH   3  10
ENDBRANCH   1   5
BRANCH   1  17
ATOM     17  N   UNL     1       3.868   6.326  17.602  0.00  0.00    +0.000 N 
ATOM     18  H   UNL     1       3.911   7.091  16.937  0.00  0.00    +0.000 HD
BRANCH  17  19
ATOM     19  C   UNL     1       5.059   5.635  17.925  0.00  0.00    +0.000 A 
ATOM     20  C   UNL     1       5.708   5.889  19.134  0.00  0.00    +0.000 A 
ATOM     21  C   UNL     1       7.021   5.471  19.313  0.00  0.00    +0.000 A 
ATOM     22  C   UNL     1       7.709   4.936  18.227  0.00  0.00    +0.000 A 
ATOM     23  C   UNL     1       7.068   4.692  17.013  0.00  0.00    +0.000 A 
ATOM     24  N   UNL     1       7.780   4.449  15.904  0.00  0.00    +0.000 NA
ATOM     25  C   UNL     1       7.093   4.325  14.743  0.00  0.00    +0.000 A 
ATOM     26  C   UNL     1       7.345   5.446  13.744  0.00  0.00    +0.000 C 
ATOM     27  C   UNL     1       5.786   3.879  14.735  0.00  0.00    +0.000 A 
ATOM     28  C   UNL     1       5.035   4.274  15.824  0.00  0.00    +0.000 A 
ATOM     29  C   UNL     1       5.677   4.838  16.943  0.00  0.00    +0.000 A 
ENDBRANCH  17  19
ENDBRANCH   1  17
TORSDOF 6
ENDMDL
