MODEL 1
REMARK VINA RESULT:      -7.1      0.000      0.000
REMARK  Name = 
REMARK  7 active torsions:
REMARK  status: ('A' for Active; 'I' for Inactive)
REMARK    1  A    between atoms: C_2  and  C_3
REMARK    2  A    between atoms: C_4  and  N_5
REMARK    3  A    between atoms: C_12  and  C_13
REMARK    4  A    between atoms: C_18  and  C_19
REMARK    5  A    between atoms: C_22  and  N_23
REMARK    6  A    between atoms: N_26  and  N_27
REMARK    7  A    between atoms: C_28  and  C_29
REMARK                            x       y       z     vdW  Elec       q    Type
REMARK                         _______ _______ _______ _____ _____    ______ ____
ROOT
ATOM      1  C   UNL     1      -2.069  12.816  21.351  0.00  0.00    +0.000 A 
ATOM      2  C   UNL     1      -3.157  13.656  21.143  0.00  0.00    +0.000 A 
ATOM      3  S   UNL     1      -3.985  13.178  19.718  0.00  0.00    +0.000 S 
ATOM      4  C   UNL     1      -2.837  11.968  19.323  0.00  0.00    +0.000 A 
ATOM      5  C   UNL     1      -1.865  11.823  20.308  0.00  0.00    +0.000 A 
ENDROOT
BRANCH   2   6
ATOM      6  N   UNL     1      -3.536  14.730  21.912  0.00  0.00    +0.000 N 
ATOM      7  C   UNL     1      -3.408  16.118  21.427  0.00  0.00    +0.000 C 
ATOM      8  C   UNL     1      -3.165  17.037  22.639  0.00  0.00    +0.000 C 
ATOM      9  O   UNL     1      -4.231  16.932  23.600  0.00  0.00    +0.000 OA
ATOM     10  C   UNL     1      -4.343  15.578  24.076  0.00  0.00    +0.000 C 
ATOM     11  C   UNL     1      -4.608  14.597  22.921  0.00  0.00    +0.000 C 
ENDBRANCH   2   6
BRANCH   4  12
ATOM     12  C   UNL     1      -2.970  11.207  18.028  0.00  0.00    +0.000 A 
ATOM     13  N   UNL     1      -2.189  11.481  16.925  0.00  0.00    +0.000 NA
ATOM     14  C   UNL     1      -2.700  10.718  15.989  0.00  0.00    +0.000 A 
ATOM     15  N   UNL     1      -3.702   9.971  16.514  0.00  0.00    +0.000 N 
ATOM     16  N   UNL     1      -3.885  10.251  17.808  0.00  0.00    +0.000 NA
ATOM     17  H   UNL     1      -4.302   9.287  16.065  0.00  0.00    +0.000 HD
ENDBRANCH   4  12
BRANCH   5  18
ATOM     18  C   UNL     1      -0.816  10.779  20.297  0.00  0.00    +0.000 A 
ATOM     19  C   UNL     1       0.212  10.813  19.353  0.00  0.00    +0.000 A 
ATOM     20  C   UNL     1       1.226   9.849  19.353  0.00  0.00    +0.000 A 
ATOM     21  C   UNL     1       1.224   8.781  20.253  0.00  0.00    +0.000 A 
ATOM     22  C   UNL     1       0.193   8.725  21.189  0.00  0.00    +0.000 A 
ATOM     23  C   UNL     1      -0.777   9.741  21.242  0.00  0.00    +0.000 A 
BRANCH  21  24
ATOM     24  N   UNL     1       2.219   7.772  20.272  0.00  0.00    +0.000 N 
ATOM     25  C   UNL     1       2.706   7.122  19.156  0.00  0.00    +0.000 C 
ATOM     26  O   UNL     1       2.325   7.308  17.997  0.00  0.00    +0.000 OA
ATOM     27  N   UNL     1       3.728   6.213  19.430  0.00  0.00    +0.000 N 
ATOM     28  H   UNL     1       2.631   7.552  21.164  0.00  0.00    +0.000 HD
ATOM     29  H   UNL     1       3.974   5.930  20.365  0.00  0.00    +0.000 HD
BRANCH  27  30
ATOM     30  N   UNL     1       4.224   5.556  18.342  0.00  0.00    +0.000 NA
ATOM     31  C   UNL     1       5.148   6.083  17.620  0.00  0.00    +0.000 C 
BRANCH  31  32
ATOM     32  C   UNL     1       5.645   5.309  16.516  0.00  0.00    +0.000 A 
ATOM     33  C   UNL     1       5.156   4.158  15.920  0.00  0.00    +0.000 A 
ATOM     34  C   UNL     1       6.072   3.810  14.902  0.00  0.00    +0.000 A 
ATOM     35  C   UNL     1       7.053   4.770  14.931  0.00  0.00    +0.000 A 
ATOM     36  O   UNL     1       6.804   5.688  15.904  0.00  0.00    +0.000 OA
ENDBRANCH  31  32
ENDBRANCH  27  30
ENDBRANCH  21  24
ENDBRANCH   5  18
BRANCH   1  38
ATOM     37  N   UNL     1      -0.521  13.118  23.418  0.00  0.00    +0.000 NA
ATOM     38  C   UNL     1      -1.222  12.981  22.500  0.00  0.00    +0.000 C 
ENDBRANCH   1  38
TORSDOF 7
ENDMDL
MODEL 2
REMARK VINA RESULT:      -6.9      2.560      3.872
REMARK  Name = 
REMARK  7 active torsions:
REMARK  status: ('A' for Active; 'I' for Inactive)
REMARK    1  A    between atoms: C_2  and  C_3
REMARK    2  A    between atoms: C_4  and  N_5
REMARK    3  A    between atoms: C_12  and  C_13
REMARK    4  A    between atoms: C_18  and  C_19
REMARK    5  A    between atoms: C_22  and  N_23
REMARK    6  A    between atoms: N_26  and  N_27
REMARK    7  A    between atoms: C_28  and  C_29
REMARK                            x       y       z     vdW  Elec       q    Type
REMARK                         _______ _______ _______ _____ _____    ______ ____
ROOT
ATOM      1  C   UNL     1      -3.269  13.994  21.700  0.00  0.00    +0.000 A 
ATOM      2  C   UNL     1      -3.567  15.352  21.675  0.00  0.00    +0.000 A 
ATOM      3  S   UNL     1      -2.128  16.250  21.414  0.00  0.00    +0.000 S 
ATOM      4  C   UNL     1      -1.122  14.864  21.468  0.00  0.00    +0.000 A 
ATOM      5  C   UNL     1      -1.852  13.685  21.577  0.00  0.00    +0.000 A 
ENDROOT
BRANCH   2   6
ATOM      6  N   UNL     1      -4.799  15.935  21.855  0.00  0.00    +0.000 N 
ATOM      7  C   UNL     1      -5.078  16.825  22.999  0.00  0.00    +0.000 C 
ATOM      8  C   UNL     1      -6.569  16.698  23.363  0.00  0.00    +0.000 C 
ATOM      9  O   UNL     1      -7.413  17.027  22.245  0.00  0.00    +0.000 OA
ATOM     10  C   UNL     1      -7.142  16.147  21.138  0.00  0.00    +0.000 C 
ATOM     11  C   UNL     1      -5.670  16.233  20.700  0.00  0.00    +0.000 C 
ENDBRANCH   2   6
BRANCH   4  12
ATOM     12  C   UNL     1       0.376  15.026  21.394  0.00  0.00    +0.000 A 
ATOM     13  N   UNL     1       1.027  15.366  20.227  0.00  0.00    +0.000 NA
ATOM     14  C   UNL     1       2.296  15.266  20.541  0.00  0.00    +0.000 A 
ATOM     15  N   UNL     1       2.411  14.940  21.852  0.00  0.00    +0.000 N 
ATOM     16  N   UNL     1       1.209  14.795  22.420  0.00  0.00    +0.000 NA
ATOM     17  H   UNL     1       3.244  14.784  22.409  0.00  0.00    +0.000 HD
ENDBRANCH   4  12
BRANCH   5  18
ATOM     18  C   UNL     1      -1.261  12.329  21.527  0.00  0.00    +0.000 A 
ATOM     19  C   UNL     1      -1.072  11.680  20.307  0.00  0.00    +0.000 A 
ATOM     20  C   UNL     1      -0.485  10.411  20.245  0.00  0.00    +0.000 A 
ATOM     21  C   UNL     1      -0.121   9.714  21.399  0.00  0.00    +0.000 A 
ATOM     22  C   UNL     1      -0.321  10.344  22.626  0.00  0.00    +0.000 A 
ATOM     23  C   UNL     1      -0.831  11.653  22.680  0.00  0.00    +0.000 A 
BRANCH  21  24
ATOM     24  N   UNL     1       0.455   8.419  21.382  0.00  0.00    +0.000 N 
ATOM     25  C   UNL     1       1.368   7.973  20.449  0.00  0.00    +0.000 C 
ATOM     26  O   UNL     1       1.786   8.627  19.488  0.00  0.00    +0.000 OA
ATOM     27  N   UNL     1       1.834   6.680  20.684  0.00  0.00    +0.000 N 
ATOM     28  H   UNL     1       0.212   7.800  22.138  0.00  0.00    +0.000 HD
ATOM     29  H   UNL     1       1.423   6.065  21.367  0.00  0.00    +0.000 HD
BRANCH  27  30
ATOM     30  N   UNL     1       2.737   6.216  19.772  0.00  0.00    +0.000 NA
ATOM     31  C   UNL     1       2.371   5.418  18.832  0.00  0.00    +0.000 C 
BRANCH  31  32
ATOM     32  C   UNL     1       3.373   5.007  17.888  0.00  0.00    +0.000 A 
ATOM     33  C   UNL     1       3.770   3.746  17.476  0.00  0.00    +0.000 A 
ATOM     34  C   UNL     1       4.828   3.934  16.558  0.00  0.00    +0.000 A 
ATOM     35  C   UNL     1       5.005   5.292  16.460  0.00  0.00    +0.000 A 
ATOM     36  O   UNL     1       4.126   5.955  17.259  0.00  0.00    +0.000 OA
ENDBRANCH  31  32
ENDBRANCH  27  30
ENDBRANCH  21  24
ENDBRANCH   5  18
BRANCH   1  38
ATOM     37  N   UNL     1      -5.140  12.220  22.033  0.00  0.00    +0.000 NA
ATOM     38  C   UNL     1      -4.307  13.016  21.874  0.00  0.00    +0.000 C 
ENDBRANCH   1  38
TORSDOF 7
ENDMDL
MODEL 3
REMARK VINA RESULT:      -6.9      2.530      3.146
REMARK  Name = 
REMARK  7 active torsions:
REMARK  status: ('A' for Active; 'I' for Inactive)
REMARK    1  A    between atoms: C_2  and  C_3
REMARK    2  A    between atoms: C_4  and  N_5
REMARK    3  A    between atoms: C_12  and  C_13
REMARK    4  A    between atoms: C_18  and  C_19
REMARK    5  A    between atoms: C_22  and  N_23
REMARK    6  A    between atoms: N_26  and  N_27
REMARK    7  A    between atoms: C_28  and  C_29
REMARK                            x       y       z     vdW  Elec       q    Type
REMARK                         _______ _______ _______ _____ _____    ______ ____
ROOT
ATOM      1  C   UNL     1      -2.379  13.500  22.458  0.00  0.00    +0.000 A 
ATOM      2  C   UNL     1      -2.691  14.852  22.377  0.00  0.00    +0.000 A 
ATOM      3  S   UNL     1      -1.609  15.626  21.293  0.00  0.00    +0.000 S 
ATOM      4  C   UNL     1      -0.669  14.215  21.048  0.00  0.00    +0.000 A 
ATOM      5  C   UNL     1      -1.208  13.104  21.689  0.00  0.00    +0.000 A 
ENDROOT
BRANCH   2   6
ATOM      6  N   UNL     1      -3.682  15.517  23.058  0.00  0.00    +0.000 N 
ATOM      7  C   UNL     1      -3.394  16.703  23.889  0.00  0.00    +0.000 C 
ATOM      8  C   UNL     1      -4.414  16.749  25.042  0.00  0.00    +0.000 C 
ATOM      9  O   UNL     1      -5.764  16.793  24.548  0.00  0.00    +0.000 OA
ATOM     10  C   UNL     1      -6.041  15.628  23.748  0.00  0.00    +0.000 C 
ATOM     11  C   UNL     1      -5.072  15.522  22.558  0.00  0.00    +0.000 C 
ENDBRANCH   2   6
BRANCH   4  12
ATOM     12  C   UNL     1       0.581  14.286  20.207  0.00  0.00    +0.000 A 
ATOM     13  N   UNL     1       1.845  14.298  20.759  0.00  0.00    +0.000 NA
ATOM     14  C   UNL     1       2.629  14.508  19.730  0.00  0.00    +0.000 A 
ATOM     15  N   UNL     1       1.883  14.559  18.599  0.00  0.00    +0.000 N 
ATOM     16  N   UNL     1       0.583  14.408  18.872  0.00  0.00    +0.000 NA
ATOM     17  H   UNL     1       2.174  14.709  17.638  0.00  0.00    +0.000 HD
ENDBRANCH   4  12
BRANCH   5  18
ATOM     18  C   UNL     1      -0.680  11.727  21.560  0.00  0.00    +0.000 A 
ATOM     19  C   UNL     1      -0.518  11.143  20.303  0.00  0.00    +0.000 A 
ATOM     20  C   UNL     1       0.010   9.854  20.167  0.00  0.00    +0.000 A 
ATOM     21  C   UNL     1       0.339   9.075  21.278  0.00  0.00    +0.000 A 
ATOM     22  C   UNL     1       0.164   9.640  22.540  0.00  0.00    +0.000 A 
ATOM     23  C   UNL     1      -0.285  10.966  22.671  0.00  0.00    +0.000 A 
BRANCH  21  24
ATOM     24  N   UNL     1       0.854   7.757  21.185  0.00  0.00    +0.000 N 
ATOM     25  C   UNL     1       1.796   7.341  20.266  0.00  0.00    +0.000 C 
ATOM     26  O   UNL     1       2.295   8.047  19.385  0.00  0.00    +0.000 OA
ATOM     27  N   UNL     1       2.188   6.012  20.419  0.00  0.00    +0.000 N 
ATOM     28  H   UNL     1       0.541   7.094  21.874  0.00  0.00    +0.000 HD
ATOM     29  H   UNL     1       1.712   5.366  21.027  0.00  0.00    +0.000 HD
BRANCH  27  30
ATOM     30  N   UNL     1       3.117   5.576  19.519  0.00  0.00    +0.000 NA
ATOM     31  C   UNL     1       2.788   5.329  18.301  0.00  0.00    +0.000 C 
BRANCH  31  32
ATOM     32  C   UNL     1       3.832   4.913  17.406  0.00  0.00    +0.000 A 
ATOM     33  C   UNL     1       4.359   3.659  17.144  0.00  0.00    +0.000 A 
ATOM     34  C   UNL     1       5.398   3.845  16.205  0.00  0.00    +0.000 A 
ATOM     35  C   UNL     1       5.435   5.192  15.944  0.00  0.00    +0.000 A 
ATOM     36  O   UNL     1       4.488   5.851  16.664  0.00  0.00    +0.000 OA
ENDBRANCH  31  32
ENDBRANCH  27  30
ENDBRANCH  21  24
ENDBRANCH   5  18
BRANCH   1  38
ATOM     37  N   UNL     1      -3.784  11.881  23.929  0.00  0.00    +0.000 NA
ATOM     38  C   UNL     1      -3.156  12.613  23.278  0.00  0.00    +0.000 C 
ENDBRANCH   1  38
TORSDOF 7
ENDMDL
MODEL 4
REMARK VINA RESULT:      -6.9      2.364      3.007
REMARK  Name = 
REMARK  7 active torsions:
REMARK  status: ('A' for Active; 'I' for Inactive)
REMARK    1  A    between atoms: C_2  and  C_3
REMARK    2  A    between atoms: C_4  and  N_5
REMARK    3  A    between atoms: C_12  and  C_13
REMARK    4  A    between atoms: C_18  and  C_19
REMARK    5  A    between atoms: C_22  and  N_23
REMARK    6  A    between atoms: N_26  and  N_27
REMARK    7  A    between atoms: C_28  and  C_29
REMARK                            x       y       z     vdW  Elec       q    Type
REMARK                         _______ _______ _______ _____ _____    ______ ____
ROOT
ATOM      1  C   UNL     1      -2.086  13.196  22.151  0.00  0.00    +0.000 A 
ATOM      2  C   UNL     1      -2.453  14.532  22.039  0.00  0.00    +0.000 A 
ATOM      3  S   UNL     1      -1.411  15.321  20.926  0.00  0.00    +0.000 S 
ATOM      4  C   UNL     1      -0.417  13.942  20.709  0.00  0.00    +0.000 A 
ATOM      5  C   UNL     1      -0.906  12.828  21.383  0.00  0.00    +0.000 A 
ENDROOT
BRANCH   2   6
ATOM      6  N   UNL     1      -3.464  15.175  22.712  0.00  0.00    +0.000 N 
ATOM      7  C   UNL     1      -3.194  16.282  23.650  0.00  0.00    +0.000 C 
ATOM      8  C   UNL     1      -4.280  16.272  24.742  0.00  0.00    +0.000 C 
ATOM      9  O   UNL     1      -5.596  16.398  24.175  0.00  0.00    +0.000 OA
ATOM     10  C   UNL     1      -5.856  15.308  23.270  0.00  0.00    +0.000 C 
ATOM     11  C   UNL     1      -4.821  15.263  22.134  0.00  0.00    +0.000 C 
ENDBRANCH   2   6
BRANCH   4  12
ATOM     12  C   UNL     1       0.823  14.042  19.856  0.00  0.00    +0.000 A 
ATOM     13  N   UNL     1       0.846  13.648  18.534  0.00  0.00    +0.000 NA
ATOM     14  C   UNL     1       2.109  13.758  18.202  0.00  0.00    +0.000 A 
ATOM     15  N   UNL     1       2.809  14.254  19.252  0.00  0.00    +0.000 N 
ATOM     16  N   UNL     1       2.016  14.456  20.309  0.00  0.00    +0.000 NA
ATOM     17  H   UNL     1       3.801  14.456  19.331  0.00  0.00    +0.000 HD
ENDBRANCH   4  12
BRANCH   5  18
ATOM     18  C   UNL     1      -0.324  11.470  21.284  0.00  0.00    +0.000 A 
ATOM     19  C   UNL     1       0.327  10.894  22.375  0.00  0.00    +0.000 A 
ATOM     20  C   UNL     1       0.853   9.599  22.303  0.00  0.00    +0.000 A 
ATOM     21  C   UNL     1       0.806   8.853  21.124  0.00  0.00    +0.000 A 
ATOM     22  C   UNL     1       0.175   9.424  20.021  0.00  0.00    +0.000 A 
ATOM     23  C   UNL     1      -0.429  10.690  20.121  0.00  0.00    +0.000 A 
BRANCH  21  24
ATOM     24  N   UNL     1       1.346   7.548  21.002  0.00  0.00    +0.000 N 
ATOM     25  C   UNL     1       2.132   7.114  19.954  0.00  0.00    +0.000 C 
ATOM     26  O   UNL     1       2.448   7.789  18.969  0.00  0.00    +0.000 OA
ATOM     27  N   UNL     1       2.594   5.806  20.096  0.00  0.00    +0.000 N 
ATOM     28  H   UNL     1       1.180   6.911  21.763  0.00  0.00    +0.000 HD
ATOM     29  H   UNL     1       2.253   5.177  20.805  0.00  0.00    +0.000 HD
BRANCH  27  30
ATOM     30  N   UNL     1       3.372   5.352  19.069  0.00  0.00    +0.000 NA
ATOM     31  C   UNL     1       4.631   5.605  19.038  0.00  0.00    +0.000 C 
BRANCH  31  32
ATOM     32  C   UNL     1       5.387   5.058  17.946  0.00  0.00    +0.000 A 
ATOM     33  C   UNL     1       4.978   4.398  16.798  0.00  0.00    +0.000 A 
ATOM     34  C   UNL     1       6.152   4.045  16.095  0.00  0.00    +0.000 A 
ATOM     35  C   UNL     1       7.199   4.519  16.845  0.00  0.00    +0.000 A 
ATOM     36  O   UNL     1       6.749   5.139  17.969  0.00  0.00    +0.000 OA
ENDBRANCH  31  32
ENDBRANCH  27  30
ENDBRANCH  21  24
ENDBRANCH   5  18
BRANCH   1  38
ATOM     37  N   UNL     1      -3.408  11.584  23.704  0.00  0.00    +0.000 NA
ATOM     38  C   UNL     1      -2.820  12.300  23.001  0.00  0.00    +0.000 C 
ENDBRANCH   1  38
TORSDOF 7
ENDMDL
MODEL 5
REMARK VINA RESULT:      -6.8      2.547      3.465
REMARK  Name = 
REMARK  7 active torsions:
REMARK  status: ('A' for Active; 'I' for Inactive)
REMARK    1  A    between atoms: C_2  and  C_3
REMARK    2  A    between atoms: C_4  and  N_5
REMARK    3  A    between atoms: C_12  and  C_13
REMARK    4  A    between atoms: C_18  and  C_19
REMARK    5  A    between atoms: C_22  and  N_23
REMARK    6  A    between atoms: N_26  and  N_27
REMARK    7  A    between atoms: C_28  and  C_29
REMARK                            x       y       z     vdW  Elec       q    Type
REMARK                         _______ _______ _______ _____ _____    ______ ____
ROOT
ATOM      1  C   UNL     1      -3.223  13.938  22.144  0.00  0.00    +0.000 A 
ATOM      2  C   UNL     1      -3.598  15.272  22.029  0.00  0.00    +0.000 A 
ATOM      3  S   UNL     1      -2.418  16.121  21.117  0.00  0.00    +0.000 S 
ATOM      4  C   UNL     1      -1.373  14.769  20.999  0.00  0.00    +0.000 A 
ATOM      5  C   UNL     1      -1.934  13.620  21.549  0.00  0.00    +0.000 A 
ENDROOT
BRANCH   2   6
ATOM      6  N   UNL     1      -4.712  15.870  22.566  0.00  0.00    +0.000 N 
ATOM      7  C   UNL     1      -6.044  15.737  21.943  0.00  0.00    +0.000 C 
ATOM      8  C   UNL     1      -6.853  17.012  22.245  0.00  0.00    +0.000 C 
ATOM      9  O   UNL     1      -6.976  17.234  23.661  0.00  0.00    +0.000 OA
ATOM     10  C   UNL     1      -5.674  17.374  24.259  0.00  0.00    +0.000 C 
ATOM     11  C   UNL     1      -4.808  16.126  24.018  0.00  0.00    +0.000 C 
ENDBRANCH   2   6
BRANCH   4  12
ATOM     12  C   UNL     1      -0.022  14.923  20.347  0.00  0.00    +0.000 A 
ATOM     13  N   UNL     1       0.144  14.925  18.978  0.00  0.00    +0.000 NA
ATOM     14  C   UNL     1       1.446  14.935  18.825  0.00  0.00    +0.000 A 
ATOM     15  N   UNL     1       2.041  15.000  20.041  0.00  0.00    +0.000 N 
ATOM     16  N   UNL     1       1.134  15.007  21.023  0.00  0.00    +0.000 NA
ATOM     17  H   UNL     1       3.028  15.022  20.278  0.00  0.00    +0.000 HD
ENDBRANCH   4  12
BRANCH   5  18
ATOM     18  C   UNL     1      -1.314  12.277  21.487  0.00  0.00    +0.000 A 
ATOM     19  C   UNL     1      -1.217  11.594  20.274  0.00  0.00    +0.000 A 
ATOM     20  C   UNL     1      -0.604  10.338  20.198  0.00  0.00    +0.000 A 
ATOM     21  C   UNL     1      -0.122   9.687  21.335  0.00  0.00    +0.000 A 
ATOM     22  C   UNL     1      -0.231  10.350  22.556  0.00  0.00    +0.000 A 
ATOM     23  C   UNL     1      -0.767  11.648  22.617  0.00  0.00    +0.000 A 
BRANCH  21  24
ATOM     24  N   UNL     1       0.483   8.405  21.305  0.00  0.00    +0.000 N 
ATOM     25  C   UNL     1       1.438   8.004  20.393  0.00  0.00    +0.000 C 
ATOM     26  O   UNL     1       1.873   8.692  19.464  0.00  0.00    +0.000 OA
ATOM     27  N   UNL     1       1.925   6.716  20.611  0.00  0.00    +0.000 N 
ATOM     28  H   UNL     1       0.228   7.762  22.036  0.00  0.00    +0.000 HD
ATOM     29  H   UNL     1       1.505   6.074  21.264  0.00  0.00    +0.000 HD
BRANCH  27  30
ATOM     30  N   UNL     1       2.869   6.295  19.719  0.00  0.00    +0.000 NA
ATOM     31  C   UNL     1       2.534   5.628  18.673  0.00  0.00    +0.000 C 
BRANCH  31  32
ATOM     32  C   UNL     1       3.582   5.258  17.763  0.00  0.00    +0.000 A 
ATOM     33  C   UNL     1       4.437   6.034  16.998  0.00  0.00    +0.000 A 
ATOM     34  C   UNL     1       5.241   5.139  16.256  0.00  0.00    +0.000 A 
ATOM     35  C   UNL     1       4.836   3.878  16.620  0.00  0.00    +0.000 A 
ATOM     36  O   UNL     1       3.833   3.936  17.536  0.00  0.00    +0.000 OA
ENDBRANCH  31  32
ENDBRANCH  27  30
ENDBRANCH  21  24
ENDBRANCH   5  18
BRANCH   1  38
ATOM     37  N   UNL     1      -4.747  12.247  23.399  0.00  0.00    +0.000 NA
ATOM     38  C   UNL     1      -4.057  12.997  22.839  0.00  0.00    +0.000 C 
ENDBRANCH   1  38
TORSDOF 7
ENDMDL
MODEL 6
REMARK VINA RESULT:      -6.8      2.544      3.538
REMARK  Name = 
REMARK  7 active torsions:
REMARK  status: ('A' for Active; 'I' for Inactive)
REMARK    1  A    between atoms: C_2  and  C_3
REMARK    2  A    between atoms: C_4  and  N_5
REMARK    3  A    between atoms: C_12  and  C_13
REMARK    4  A    between atoms: C_18  and  C_19
REMARK    5  A    between atoms: C_22  and  N_23
REMARK    6  A    between atoms: N_26  and  N_27
REMARK    7  A    between atoms: C_28  and  C_29
REMARK                            x       y       z     vdW  Elec       q    Type
REMARK                         _______ _______ _______ _____ _____    ______ ____
ROOT
ATOM      1  C   UNL     1      -3.219  13.952  21.923  0.00  0.00    +0.000 A 
ATOM      2  C   UNL     1      -3.611  15.277  21.767  0.00  0.00    +0.000 A 
ATOM      3  S   UNL     1      -2.428  16.120  20.852  0.00  0.00    +0.000 S 
ATOM      4  C   UNL     1      -1.363  14.779  20.786  0.00  0.00    +0.000 A 
ATOM      5  C   UNL     1      -1.917  13.637  21.357  0.00  0.00    +0.000 A 
ENDROOT
BRANCH   2   6
ATOM      6  N   UNL     1      -4.742  15.873  22.270  0.00  0.00    +0.000 N 
ATOM      7  C   UNL     1      -4.701  16.731  23.471  0.00  0.00    +0.000 C 
ATOM      8  C   UNL     1      -6.053  16.616  24.199  0.00  0.00    +0.000 C 
ATOM      9  O   UNL     1      -7.145  16.994  23.342  0.00  0.00    +0.000 OA
ATOM     10  C   UNL     1      -7.185  16.145  22.180  0.00  0.00    +0.000 C 
ATOM     11  C   UNL     1      -5.872  16.222  21.384  0.00  0.00    +0.000 C 
ENDBRANCH   2   6
BRANCH   4  12
ATOM     12  C   UNL     1      -0.004  14.936  20.152  0.00  0.00    +0.000 A 
ATOM     13  N   UNL     1       0.246  14.591  18.840  0.00  0.00    +0.000 NA
ATOM     14  C   UNL     1       1.543  14.739  18.723  0.00  0.00    +0.000 A 
ATOM     15  N   UNL     1       2.049  15.210  19.890  0.00  0.00    +0.000 N 
ATOM     16  N   UNL     1       1.088  15.356  20.808  0.00  0.00    +0.000 NA
ATOM     17  H   UNL     1       3.008  15.429  20.137  0.00  0.00    +0.000 HD
ENDBRANCH   4  12
BRANCH   5  18
ATOM     18  C   UNL     1      -1.278  12.302  21.339  0.00  0.00    +0.000 A 
ATOM     19  C   UNL     1      -0.763  11.745  22.510  0.00  0.00    +0.000 A 
ATOM     20  C   UNL     1      -0.185  10.470  22.512  0.00  0.00    +0.000 A 
ATOM     21  C   UNL     1      -0.043   9.727  21.338  0.00  0.00    +0.000 A 
ATOM     22  C   UNL     1      -0.536  10.281  20.158  0.00  0.00    +0.000 A 
ATOM     23  C   UNL     1      -1.193  11.524  20.174  0.00  0.00    +0.000 A 
BRANCH  21  24
ATOM     24  N   UNL     1       0.556   8.443  21.292  0.00  0.00    +0.000 N 
ATOM     25  C   UNL     1       1.478   8.035  20.349  0.00  0.00    +0.000 C 
ATOM     26  O   UNL     1       1.883   8.717  19.404  0.00  0.00    +0.000 OA
ATOM     27  N   UNL     1       1.966   6.746  20.556  0.00  0.00    +0.000 N 
ATOM     28  H   UNL     1       0.324   7.804  22.034  0.00  0.00    +0.000 HD
ATOM     29  H   UNL     1       1.567   6.108  21.226  0.00  0.00    +0.000 HD
BRANCH  27  30
ATOM     30  N   UNL     1       2.877   6.318  19.634  0.00  0.00    +0.000 NA
ATOM     31  C   UNL     1       2.592   5.363  18.822  0.00  0.00    +0.000 C 
BRANCH  31  32
ATOM     32  C   UNL     1       3.590   4.999  17.855  0.00  0.00    +0.000 A 
ATOM     33  C   UNL     1       4.504   5.772  17.157  0.00  0.00    +0.000 A 
ATOM     34  C   UNL     1       5.212   4.892  16.307  0.00  0.00    +0.000 A 
ATOM     35  C   UNL     1       4.698   3.642  16.545  0.00  0.00    +0.000 A 
ATOM     36  O   UNL     1       3.716   3.692  17.485  0.00  0.00    +0.000 OA
ENDBRANCH  31  32
ENDBRANCH  27  30
ENDBRANCH  21  24
ENDBRANCH   5  18
BRANCH   1  38
ATOM     37  N   UNL     1      -4.724  12.271  23.215  0.00  0.00    +0.000 NA
ATOM     38  C   UNL     1      -4.052  13.017  22.628  0.00  0.00    +0.000 C 
ENDBRANCH   1  38
TORSDOF 7
ENDMDL
MODEL 7
REMARK VINA RESULT:      -6.7      2.665      3.465
REMARK  Name = 
REMARK  7 active torsions:
REMARK  status: ('A' for Active; 'I' for Inactive)
REMARK    1  A    between atoms: C_2  and  C_3
REMARK    2  A    between atoms: C_4  and  N_5
REMARK    3  A    between atoms: C_12  and  C_13
REMARK    4  A    between atoms: C_18  and  C_19
REMARK    5  A    between atoms: C_22  and  N_23
REMARK    6  A    between atoms: N_26  and  N_27
REMARK    7  A    between atoms: C_28  and  C_29
REMARK                            x       y       z     vdW  Elec       q    Type
REMARK                         _______ _______ _______ _____ _____    ______ ____
ROOT
ATOM      1  C   UNL     1      -1.769  13.170  22.638  0.00  0.00    +0.000 A 
ATOM      2  C   UNL     1      -1.996  14.539  22.715  0.00  0.00    +0.000 A 
ATOM      3  S   UNL     1      -0.758  15.374  21.868  0.00  0.00    +0.000 S 
ATOM      4  C   UNL     1       0.124  13.946  21.526  0.00  0.00    +0.000 A 
ATOM      5  C   UNL     1      -0.543  12.800  21.947  0.00  0.00    +0.000 A 
ENDROOT
BRANCH   2   6
ATOM      6  N   UNL     1      -3.019  15.175  23.377  0.00  0.00    +0.000 N 
ATOM      7  C   UNL     1      -4.408  15.139  22.880  0.00  0.00    +0.000 C 
ATOM      8  C   UNL     1      -5.111  16.442  23.302  0.00  0.00    +0.000 C 
ATOM      9  O   UNL     1      -5.087  16.614  24.730  0.00  0.00    +0.000 OA
ATOM     10  C   UNL     1      -3.729  16.660  25.205  0.00  0.00    +0.000 C 
ATOM     11  C   UNL     1      -2.963  15.377  24.839  0.00  0.00    +0.000 C 
ENDBRANCH   2   6
BRANCH   4  12
ATOM     12  C   UNL     1       1.463  14.042  20.837  0.00  0.00    +0.000 A 
ATOM     13  N   UNL     1       2.652  14.101  21.534  0.00  0.00    +0.000 NA
ATOM     14  C   UNL     1       3.546  14.318  20.600  0.00  0.00    +0.000 A 
ATOM     15  N   UNL     1       2.938  14.328  19.389  0.00  0.00    +0.000 N 
ATOM     16  N   UNL     1       1.620  14.142  19.509  0.00  0.00    +0.000 NA
ATOM     17  H   UNL     1       3.336  14.472  18.466  0.00  0.00    +0.000 HD
ENDBRANCH   4  12
BRANCH   5  18
ATOM     18  C   UNL     1      -0.080  11.419  21.681  0.00  0.00    +0.000 A 
ATOM     19  C   UNL     1       0.308  10.585  22.730  0.00  0.00    +0.000 A 
ATOM     20  C   UNL     1       0.717   9.267  22.494  0.00  0.00    +0.000 A 
ATOM     21  C   UNL     1       0.816   8.751  21.201  0.00  0.00    +0.000 A 
ATOM     22  C   UNL     1       0.450   9.580  20.143  0.00  0.00    +0.000 A 
ATOM     23  C   UNL     1      -0.043  10.874  20.388  0.00  0.00    +0.000 A 
BRANCH  21  24
ATOM     24  N   UNL     1       1.248   7.431  20.916  0.00  0.00    +0.000 N 
ATOM     25  C   UNL     1       2.092   7.081  19.882  0.00  0.00    +0.000 C 
ATOM     26  O   UNL     1       2.563   7.862  19.049  0.00  0.00    +0.000 OA
ATOM     27  N   UNL     1       2.419   5.726  19.851  0.00  0.00    +0.000 N 
ATOM     28  H   UNL     1       0.950   6.706  21.549  0.00  0.00    +0.000 HD
ATOM     29  H   UNL     1       1.955   5.036  20.419  0.00  0.00    +0.000 HD
BRANCH  27  30
ATOM     30  N   UNL     1       3.252   5.356  18.834  0.00  0.00    +0.000 NA
ATOM     31  C   UNL     1       4.525   5.319  19.007  0.00  0.00    +0.000 C 
BRANCH  31  32
ATOM     32  C   UNL     1       5.329   4.880  17.901  0.00  0.00    +0.000 A 
ATOM     33  C   UNL     1       4.971   4.351  16.671  0.00  0.00    +0.000 A 
ATOM     34  C   UNL     1       6.175   4.058  15.991  0.00  0.00    +0.000 A 
ATOM     35  C   UNL     1       7.188   4.433  16.839  0.00  0.00    +0.000 A 
ATOM     36  O   UNL     1       6.688   4.937  17.999  0.00  0.00    +0.000 OA
ENDBRANCH  31  32
ENDBRANCH  27  30
ENDBRANCH  21  24
ENDBRANCH   5  18
BRANCH   1  38
ATOM     37  N   UNL     1      -3.429  11.498  23.735  0.00  0.00    +0.000 NA
ATOM     38  C   UNL     1      -2.680  12.238  23.241  0.00  0.00    +0.000 C 
ENDBRANCH   1  38
TORSDOF 7
ENDMDL
MODEL 8
REMARK VINA RESULT:      -6.7      2.686      4.018
REMARK  Name = 
REMARK  7 active torsions:
REMARK  status: ('A' for Active; 'I' for Inactive)
REMARK    1  A    between atoms: C_2  and  C_3
REMARK    2  A    between atoms: C_4  and  N_5
REMARK    3  A    between atoms: C_12  and  C_13
REMARK    4  A    between atoms: C_18  and  C_19
REMARK    5  A    between atoms: C_22  and  N_23
REMARK    6  A    between atoms: N_26  and  N_27
REMARK    7  A    between atoms: C_28  and  C_29
REMARK                            x       y       z     vdW  Elec       q    Type
REMARK                         _______ _______ _______ _____ _____    ______ ____
ROOT
ATOM      1  C   UNL     1      -3.153  14.035  22.248  0.00  0.00    +0.000 A 
ATOM      2  C   UNL     1      -3.418  15.399  22.290  0.00  0.00    +0.000 A 
ATOM      3  S   UNL     1      -1.987  16.273  21.925  0.00  0.00    +0.000 S 
ATOM      4  C   UNL     1      -1.014  14.865  21.849  0.00  0.00    +0.000 A 
ATOM      5  C   UNL     1      -1.761  13.699  21.989  0.00  0.00    +0.000 A 
ENDROOT
BRANCH   2   6
ATOM      6  N   UNL     1      -4.614  16.003  22.597  0.00  0.00    +0.000 N 
ATOM      7  C   UNL     1      -5.736  16.040  21.638  0.00  0.00    +0.000 C 
ATOM      8  C   UNL     1      -6.551  17.321  21.892  0.00  0.00    +0.000 C 
ATOM      9  O   UNL     1      -7.039  17.375  23.245  0.00  0.00    +0.000 OA
ATOM     10  C   UNL     1      -5.939  17.349  24.173  0.00  0.00    +0.000 C 
ATOM     11  C   UNL     1      -5.084  16.082  23.995  0.00  0.00    +0.000 C 
ENDBRANCH   2   6
BRANCH   4  12
ATOM     12  C   UNL     1       0.475  14.996  21.644  0.00  0.00    +0.000 A 
ATOM     13  N   UNL     1       1.337  15.324  22.669  0.00  0.00    +0.000 NA
ATOM     14  C   UNL     1       2.491  15.475  22.065  0.00  0.00    +0.000 A 
ATOM     15  N   UNL     1       2.349  15.190  20.747  0.00  0.00    +0.000 N 
ATOM     16  N   UNL     1       1.084  14.870  20.456  0.00  0.00    +0.000 NA
ATOM     17  H   UNL     1       3.039  15.211  20.003  0.00  0.00    +0.000 HD
ENDBRANCH   4  12
BRANCH   5  18
ATOM     18  C   UNL     1      -1.210  12.333  21.848  0.00  0.00    +0.000 A 
ATOM     19  C   UNL     1      -0.920  11.563  22.975  0.00  0.00    +0.000 A 
ATOM     20  C   UNL     1      -0.428  10.258  22.852  0.00  0.00    +0.000 A 
ATOM     21  C   UNL     1      -0.149   9.693  21.607  0.00  0.00    +0.000 A 
ATOM     22  C   UNL     1      -0.416  10.458  20.474  0.00  0.00    +0.000 A 
ATOM     23  C   UNL     1      -0.991  11.736  20.596  0.00  0.00    +0.000 A 
BRANCH  21  24
ATOM     24  N   UNL     1       0.371   8.384  21.440  0.00  0.00    +0.000 N 
ATOM     25  C   UNL     1       1.335   8.029  20.519  0.00  0.00    +0.000 C 
ATOM     26  O   UNL     1       1.855   8.791  19.698  0.00  0.00    +0.000 OA
ATOM     27  N   UNL     1       1.725   6.692  20.594  0.00  0.00    +0.000 N 
ATOM     28  H   UNL     1       0.042   7.677  22.076  0.00  0.00    +0.000 HD
ATOM     29  H   UNL     1       1.236   6.008  21.147  0.00  0.00    +0.000 HD
BRANCH  27  30
ATOM     30  N   UNL     1       2.677   6.316  19.690  0.00  0.00    +0.000 NA
ATOM     31  C   UNL     1       2.461   5.348  18.873  0.00  0.00    +0.000 C 
BRANCH  31  32
ATOM     32  C   UNL     1       3.497   5.040  17.926  0.00  0.00    +0.000 A 
ATOM     33  C   UNL     1       4.353   5.866  17.216  0.00  0.00    +0.000 A 
ATOM     34  C   UNL     1       5.141   5.024  16.398  0.00  0.00    +0.000 A 
ATOM     35  C   UNL     1       4.727   3.743  16.666  0.00  0.00    +0.000 A 
ATOM     36  O   UNL     1       3.733   3.738  17.594  0.00  0.00    +0.000 OA
ENDBRANCH  31  32
ENDBRANCH  27  30
ENDBRANCH  21  24
ENDBRANCH   5  18
BRANCH   1  38
ATOM     37  N   UNL     1      -5.036  12.301  22.700  0.00  0.00    +0.000 NA
ATOM     38  C   UNL     1      -4.194  13.075  22.487  0.00  0.00    +0.000 C 
ENDBRANCH   1  38
TORSDOF 7
ENDMDL
MODEL 9
REMARK VINA RESULT:      -6.6      2.460      3.498
REMARK  Name = 
REMARK  7 active torsions:
REMARK  status: ('A' for Active; 'I' for Inactive)
REMARK    1  A    between atoms: C_2  and  C_3
REMARK    2  A    between atoms: C_4  and  N_5
REMARK    3  A    between atoms: C_12  and  C_13
REMARK    4  A    between atoms: C_18  and  C_19
REMARK    5  A    between atoms: C_22  and  N_23
REMARK    6  A    between atoms: N_26  and  N_27
REMARK    7  A    between atoms: C_28  and  C_29
REMARK                            x       y       z     vdW  Elec       q    Type
REMARK                         _______ _______ _______ _____ _____    ______ ____
ROOT
ATOM      1  C   UNL     1      -2.822  14.139  21.406  0.00  0.00    +0.000 A 
ATOM      2  C   UNL     1      -3.224  15.470  21.418  0.00  0.00    +0.000 A 
ATOM      3  S   UNL     1      -2.038  16.434  20.638  0.00  0.00    +0.000 S 
ATOM      4  C   UNL     1      -0.959  15.122  20.414  0.00  0.00    +0.000 A 
ATOM      5  C   UNL     1      -1.509  13.911  20.823  0.00  0.00    +0.000 A 
ENDROOT
BRANCH   2   6
ATOM      6  N   UNL     1      -4.368  15.987  21.979  0.00  0.00    +0.000 N 
ATOM      7  C   UNL     1      -4.442  16.340  23.410  0.00  0.00    +0.000 C 
ATOM      8  C   UNL     1      -5.895  16.147  23.884  0.00  0.00    +0.000 C 
ATOM      9  O   UNL     1      -6.810  16.949  23.116  0.00  0.00    +0.000 OA
ATOM     10  C   UNL     1      -6.739  16.591  21.724  0.00  0.00    +0.000 C 
ATOM     11  C   UNL     1      -5.317  16.777  21.167  0.00  0.00    +0.000 C 
ENDBRANCH   2   6
BRANCH   4  12
ATOM     12  C   UNL     1       0.407  15.370  19.826  0.00  0.00    +0.000 A 
ATOM     13  N   UNL     1       0.839  14.755  18.669  0.00  0.00    +0.000 NA
ATOM     14  C   UNL     1       2.096  15.116  18.578  0.00  0.00    +0.000 A 
ATOM     15  N   UNL     1       2.396  15.960  19.595  0.00  0.00    +0.000 N 
ATOM     16  N   UNL     1       1.340  16.149  20.393  0.00  0.00    +0.000 NA
ATOM     17  H   UNL     1       3.274  16.418  19.819  0.00  0.00    +0.000 HD
ENDBRANCH   4  12
BRANCH   5  18
ATOM     18  C   UNL     1      -0.857  12.595  20.641  0.00  0.00    +0.000 A 
ATOM     19  C   UNL     1       0.076  12.129  21.568  0.00  0.00    +0.000 A 
ATOM     20  C   UNL     1       0.675  10.872  21.424  0.00  0.00    +0.000 A 
ATOM     21  C   UNL     1       0.415  10.058  20.320  0.00  0.00    +0.000 A 
ATOM     22  C   UNL     1      -0.502  10.520  19.377  0.00  0.00    +0.000 A 
ATOM     23  C   UNL     1      -1.167  11.744  19.568  0.00  0.00    +0.000 A 
BRANCH  21  24
ATOM     24  N   UNL     1       1.017   8.790  20.124  0.00  0.00    +0.000 N 
ATOM     25  C   UNL     1       1.846   8.464  19.070  0.00  0.00    +0.000 C 
ATOM     26  O   UNL     1       2.153   9.218  18.142  0.00  0.00    +0.000 OA
ATOM     27  N   UNL     1       2.363   7.170  19.135  0.00  0.00    +0.000 N 
ATOM     28  H   UNL     1       0.862   8.095  20.836  0.00  0.00    +0.000 HD
ATOM     29  H   UNL     1       2.035   6.480  19.791  0.00  0.00    +0.000 HD
BRANCH  27  30
ATOM     30  N   UNL     1       3.184   6.823  18.101  0.00  0.00    +0.000 NA
ATOM     31  C   UNL     1       3.783   5.686  18.090  0.00  0.00    +0.000 C 
BRANCH  31  32
ATOM     32  C   UNL     1       4.597   5.380  16.947  0.00  0.00    +0.000 A 
ATOM     33  C   UNL     1       5.085   6.191  15.936  0.00  0.00    +0.000 A 
ATOM     34  C   UNL     1       5.795   5.350  15.049  0.00  0.00    +0.000 A 
ATOM     35  C   UNL     1       5.706   4.085  15.576  0.00  0.00    +0.000 A 
ATOM     36  O   UNL     1       4.986   4.090  16.730  0.00  0.00    +0.000 OA
ENDBRANCH  31  32
ENDBRANCH  27  30
ENDBRANCH  21  24
ENDBRANCH   5  18
BRANCH   1  38
ATOM     37  N   UNL     1      -4.315  12.280  22.442  0.00  0.00    +0.000 NA
ATOM     38  C   UNL     1      -3.655  13.114  21.972  0.00  0.00    +0.000 C 
ENDBRANCH   1  38
TORSDOF 7
ENDMDL
