MODEL 1
REMARK VINA RESULT:      -7.7      0.000      0.000
REMARK  Name = 
REMARK  11 active torsions:
REMARK  status: ('A' for Active; 'I' for Inactive)
REMARK    1  A    between atoms: C_1  and  C_2
REMARK    2  A    between atoms: C_2  and  N_3
REMARK    3  A    between atoms: N_6  and  C_7
REMARK    4  A    between atoms: C_7  and  C_8
REMARK    5  A    between atoms: C_8  and  N_9
REMARK    6  A    between atoms: C_10  and  C_12
REMARK    7  A    between atoms: C_22  and  C_23
REMARK    8  A    between atoms: C_26  and  O_27
REMARK    9  A    between atoms: O_27  and  C_28
REMARK   10  A    between atoms: C_29  and  O_30
REMARK   11  A    between atoms: O_30  and  C_31
REMARK                            x       y       z     vdW  Elec       q    Type
REMARK                         _______ _______ _______ _____ _____    ______ ____
ROOT
ATOM      1  C   UNL     1       2.010   7.715  18.929  0.00  0.00    +0.000 A 
ATOM      2  C   UNL     1       1.787   8.426  17.749  0.00  0.00    +0.000 A 
ATOM      3  C   UNL     1       1.108   9.647  17.793  0.00  0.00    +0.000 A 
ATOM      4  C   UNL     1       0.645  10.169  19.010  0.00  0.00    +0.000 A 
ATOM      5  C   UNL     1       0.880   9.451  20.180  0.00  0.00    +0.000 A 
ATOM      6  C   UNL     1       1.548   8.222  20.144  0.00  0.00    +0.000 A 
ATOM      7  N   UNL     1       0.477   9.916  21.425  0.00  0.00    +0.000 N 
ATOM      8  C   UNL     1      -0.150  11.083  21.728  0.00  0.00    +0.000 C 
ATOM      9  O   UNL     1      -0.370  11.278  22.922  0.00  0.00    +0.000 OA
ATOM     10  C   UNL     1      -0.540  12.052  20.643  0.00  0.00    +0.000 C 
ATOM     11  C   UNL     1      -1.125  13.237  20.925  0.00  0.00    +0.000 C 
ATOM     12  S   UNL     1      -0.247  11.696  18.969  0.00  0.00    +0.000 S 
ATOM     13  H   UNL     1       0.672   9.358  22.247  0.00  0.00    +0.000 HD
ENDROOT
BRANCH  11  14
ATOM     14  C   UNL     1      -1.366  13.775  22.270  0.00  0.00    +0.000 A 
ATOM     15  C   UNL     1      -0.476  14.673  22.855  0.00  0.00    +0.000 A 
ATOM     16  C   UNL     1      -0.810  15.265  24.073  0.00  0.00    +0.000 A 
ATOM     17  C   UNL     1      -2.023  14.972  24.721  0.00  0.00    +0.000 A 
ATOM     18  C   UNL     1      -2.905  14.037  24.147  0.00  0.00    +0.000 A 
ATOM     19  C   UNL     1      -2.553  13.442  22.925  0.00  0.00    +0.000 A 
BRANCH  17  20
ATOM     20  O   UNL     1      -2.174  15.693  25.878  0.00  0.00    +0.000 OA
ATOM     21  C   UNL     1      -1.017  16.224  26.509  0.00  0.00    +0.000 C 
ENDBRANCH  17  20
BRANCH  18  22
ATOM     22  O   UNL     1      -4.079  13.756  24.794  0.00  0.00    +0.000 OA
ATOM     23  C   UNL     1      -4.540  12.411  24.799  0.00  0.00    +0.000 C 
ENDBRANCH  18  22
ENDBRANCH  11  14
BRANCH   1  25
ATOM     24  N   UNL     1       3.895   6.361  19.607  0.00  0.00    +0.000 N 
ATOM     25  C   UNL     1       2.699   6.404  18.924  0.00  0.00    +0.000 C 
ATOM     26  O   UNL     1       2.196   5.438  18.362  0.00  0.00    +0.000 OA
ATOM     27  H   UNL     1       4.100   7.068  20.305  0.00  0.00    +0.000 HD
BRANCH  24  28
ATOM     28  C   UNL     1       4.628   5.118  19.717  0.00  0.00    +0.000 C 
BRANCH  28  29
ATOM     29  C   UNL     1       6.044   5.231  19.131  0.00  0.00    +0.000 C 
BRANCH  29  33
ATOM     30  N   UNL     1       5.997   5.041  15.389  0.00  0.00    +0.000 NA
ATOM     31  C   UNL     1       4.879   4.642  16.278  0.00  0.00    +0.000 C 
ATOM     32  C   UNL     1       5.284   3.653  17.404  0.00  0.00    +0.000 C 
ATOM     33  N   UNL     1       6.422   4.101  18.245  0.00  0.00    +0.000 NA
ATOM     34  C   UNL     1       7.531   4.506  17.343  0.00  0.00    +0.000 C 
ATOM     35  C   UNL     1       7.119   5.506  16.234  0.00  0.00    +0.000 C 
BRANCH  30  37
ATOM     36  C   UNL     1       5.676   3.942  13.146  0.00  0.00    +0.000 C 
ATOM     37  C   UNL     1       6.360   3.918  14.507  0.00  0.00    +0.000 C 
ENDBRANCH  30  37
ENDBRANCH  29  33
ENDBRANCH  28  29
ENDBRANCH  24  28
ENDBRANCH   1  25
TORSDOF 8
ENDMDL
MODEL 2
REMARK VINA RESULT:      -7.5      3.734     11.148
REMARK  Name = 
REMARK  11 active torsions:
REMARK  status: ('A' for Active; 'I' for Inactive)
REMARK    1  A    between atoms: C_1  and  C_2
REMARK    2  A    between atoms: C_2  and  N_3
REMARK    3  A    between atoms: N_6  and  C_7
REMARK    4  A    between atoms: C_7  and  C_8
REMARK    5  A    between atoms: C_8  and  N_9
REMARK    6  A    between atoms: C_10  and  C_12
REMARK    7  A    between atoms: C_22  and  C_23
REMARK    8  A    between atoms: C_26  and  O_27
REMARK    9  A    between atoms: O_27  and  C_28
REMARK   10  A    between atoms: C_29  and  O_30
REMARK   11  A    between atoms: O_30  and  C_31
REMARK                            x       y       z     vdW  Elec       q    Type
REMARK                         _______ _______ _______ _____ _____    ______ ____
ROOT
ATOM      1  C   UNL     1      -0.008  10.882  20.742  0.00  0.00    +0.000 A 
ATOM      2  C   UNL     1      -0.357  10.065  21.818  0.00  0.00    +0.000 A 
ATOM      3  C   UNL     1       0.107   8.748  21.867  0.00  0.00    +0.000 A 
ATOM      4  C   UNL     1       0.919   8.233  20.846  0.00  0.00    +0.000 A 
ATOM      5  C   UNL     1       1.264   9.062  19.780  0.00  0.00    +0.000 A 
ATOM      6  C   UNL     1       0.794  10.379  19.718  0.00  0.00    +0.000 A 
ATOM      7  N   UNL     1       2.086   8.634  18.747  0.00  0.00    +0.000 N 
ATOM      8  C   UNL     1       2.694   7.428  18.596  0.00  0.00    +0.000 C 
ATOM      9  O   UNL     1       3.406   7.307  17.601  0.00  0.00    +0.000 OA
ATOM     10  C   UNL     1       2.482   6.327  19.603  0.00  0.00    +0.000 C 
ATOM     11  C   UNL     1       3.109   5.135  19.496  0.00  0.00    +0.000 C 
ATOM     12  S   UNL     1       1.422   6.541  20.961  0.00  0.00    +0.000 S 
ATOM     13  H   UNL     1       2.309   9.274  17.996  0.00  0.00    +0.000 HD
ENDROOT
BRANCH  11  14
ATOM     14  C   UNL     1       4.117   4.785  18.487  0.00  0.00    +0.000 A 
ATOM     15  C   UNL     1       3.749   4.206  17.275  0.00  0.00    +0.000 A 
ATOM     16  C   UNL     1       4.719   4.015  16.290  0.00  0.00    +0.000 A 
ATOM     17  C   UNL     1       6.057   4.394  16.498  0.00  0.00    +0.000 A 
ATOM     18  C   UNL     1       6.434   4.946  17.737  0.00  0.00    +0.000 A 
ATOM     19  C   UNL     1       5.451   5.124  18.722  0.00  0.00    +0.000 A 
BRANCH  17  20
ATOM     20  O   UNL     1       6.834   4.162  15.392  0.00  0.00    +0.000 OA
ATOM     21  C   UNL     1       6.198   3.999  14.132  0.00  0.00    +0.000 C 
ENDBRANCH  17  20
BRANCH  18  22
ATOM     22  O   UNL     1       7.743   5.303  17.927  0.00  0.00    +0.000 OA
ATOM     23  C   UNL     1       8.104   5.907  19.162  0.00  0.00    +0.000 C 
ENDBRANCH  18  22
ENDBRANCH  11  14
BRANCH   1  25
ATOM     24  N   UNL     1      -0.077  12.972  19.526  0.00  0.00    +0.000 N 
ATOM     25  C   UNL     1      -0.501  12.275  20.636  0.00  0.00    +0.000 C 
ATOM     26  O   UNL     1      -1.257  12.735  21.485  0.00  0.00    +0.000 OA
ATOM     27  H   UNL     1       0.266  12.465  18.716  0.00  0.00    +0.000 HD
BRANCH  24  28
ATOM     28  C   UNL     1      -0.540  14.321  19.290  0.00  0.00    +0.000 C 
BRANCH  28  29
ATOM     29  C   UNL     1       0.585  15.237  18.783  0.00  0.00    +0.000 C 
BRANCH  29  33
ATOM     30  N   UNL     1       3.820  17.104  18.478  0.00  0.00    +0.000 NA
ATOM     31  C   UNL     1       3.324  16.093  17.514  0.00  0.00    +0.000 C 
ATOM     32  C   UNL     1       2.914  14.744  18.163  0.00  0.00    +0.000 C 
ATOM     33  N   UNL     1       1.935  14.860  19.273  0.00  0.00    +0.000 NA
ATOM     34  C   UNL     1       2.439  15.882  20.226  0.00  0.00    +0.000 C 
ATOM     35  C   UNL     1       2.828  17.230  19.569  0.00  0.00    +0.000 C 
BRANCH  30  37
ATOM     36  C   UNL     1       5.709  17.614  20.065  0.00  0.00    +0.000 C 
ATOM     37  C   UNL     1       5.163  16.728  18.951  0.00  0.00    +0.000 C 
ENDBRANCH  30  37
ENDBRANCH  29  33
ENDBRANCH  28  29
ENDBRANCH  24  28
ENDBRANCH   1  25
TORSDOF 8
ENDMDL
MODEL 3
REMARK VINA RESULT:      -7.5      3.238     11.948
REMARK  Name = 
REMARK  11 active torsions:
REMARK  status: ('A' for Active; 'I' for Inactive)
REMARK    1  A    between atoms: C_1  and  C_2
REMARK    2  A    between atoms: C_2  and  N_3
REMARK    3  A    between atoms: N_6  and  C_7
REMARK    4  A    between atoms: C_7  and  C_8
REMARK    5  A    between atoms: C_8  and  N_9
REMARK    6  A    between atoms: C_10  and  C_12
REMARK    7  A    between atoms: C_22  and  C_23
REMARK    8  A    between atoms: C_26  and  O_27
REMARK    9  A    between atoms: O_27  and  C_28
REMARK   10  A    between atoms: C_29  and  O_30
REMARK   11  A    between atoms: O_30  and  C_31
REMARK                            x       y       z     vdW  Elec       q    Type
REMARK                         _______ _______ _______ _____ _____    ______ ____
ROOT
ATOM      1  C   UNL     1      -0.879  11.572  21.661  0.00  0.00    +0.000 A 
ATOM      2  C   UNL     1      -0.749  12.263  20.456  0.00  0.00    +0.000 A 
ATOM      3  C   UNL     1      -0.002  11.706  19.414  0.00  0.00    +0.000 A 
ATOM      4  C   UNL     1       0.623  10.459  19.565  0.00  0.00    +0.000 A 
ATOM      5  C   UNL     1       0.481   9.779  20.772  0.00  0.00    +0.000 A 
ATOM      6  C   UNL     1      -0.255  10.335  21.824  0.00  0.00    +0.000 A 
ATOM      7  N   UNL     1       1.046   8.529  20.986  0.00  0.00    +0.000 N 
ATOM      8  C   UNL     1       1.768   7.769  20.121  0.00  0.00    +0.000 C 
ATOM      9  O   UNL     1       2.132   6.673  20.545  0.00  0.00    +0.000 OA
ATOM     10  C   UNL     1       2.088   8.271  18.737  0.00  0.00    +0.000 C 
ATOM     11  C   UNL     1       2.767   7.515  17.846  0.00  0.00    +0.000 C 
ATOM     12  S   UNL     1       1.590   9.850  18.215  0.00  0.00    +0.000 S 
ATOM     13  H   UNL     1       0.913   8.074  21.880  0.00  0.00    +0.000 HD
ENDROOT
BRANCH  11  14
ATOM     14  C   UNL     1       3.188   6.123  18.048  0.00  0.00    +0.000 A 
ATOM     15  C   UNL     1       4.447   5.821  18.562  0.00  0.00    +0.000 A 
ATOM     16  C   UNL     1       4.756   4.495  18.867  0.00  0.00    +0.000 A 
ATOM     17  C   UNL     1       3.825   3.461  18.664  0.00  0.00    +0.000 A 
ATOM     18  C   UNL     1       2.566   3.763  18.111  0.00  0.00    +0.000 A 
ATOM     19  C   UNL     1       2.271   5.100  17.800  0.00  0.00    +0.000 A 
BRANCH  17  20
ATOM     20  O   UNL     1       4.312   2.245  19.070  0.00  0.00    +0.000 OA
ATOM     21  C   UNL     1       4.368   1.961  20.461  0.00  0.00    +0.000 C 
ENDBRANCH  17  20
BRANCH  18  22
ATOM     22  O   UNL     1       1.674   2.744  17.912  0.00  0.00    +0.000 OA
ATOM     23  C   UNL     1       0.666   2.531  18.892  0.00  0.00    +0.000 C 
ENDBRANCH  18  22
ENDBRANCH  11  14
BRANCH   1  25
ATOM     24  N   UNL     1      -1.415  13.474  23.055  0.00  0.00    +0.000 N 
ATOM     25  C   UNL     1      -1.637  12.138  22.801  0.00  0.00    +0.000 C 
ATOM     26  O   UNL     1      -2.421  11.442  23.435  0.00  0.00    +0.000 OA
ATOM     27  H   UNL     1      -1.025  14.065  22.329  0.00  0.00    +0.000 HD
BRANCH  24  28
ATOM     28  C   UNL     1      -2.143  14.146  24.109  0.00  0.00    +0.000 C 
BRANCH  28  29
ATOM     29  C   UNL     1      -3.233  15.077  23.553  0.00  0.00    +0.000 C 
BRANCH  29  33
ATOM     30  N   UNL     1      -6.142  15.995  21.376  0.00  0.00    +0.000 NA
ATOM     31  C   UNL     1      -5.903  16.514  22.745  0.00  0.00    +0.000 C 
ATOM     32  C   UNL     1      -5.656  15.410  23.808  0.00  0.00    +0.000 C 
ATOM     33  N   UNL     1      -4.576  14.451  23.469  0.00  0.00    +0.000 NA
ATOM     34  C   UNL     1      -4.822  13.946  22.094  0.00  0.00    +0.000 C 
ATOM     35  C   UNL     1      -5.049  15.057  21.038  0.00  0.00    +0.000 C 
BRANCH  30  37
ATOM     36  C   UNL     1      -7.840  14.832  19.925  0.00  0.00    +0.000 C 
ATOM     37  C   UNL     1      -7.479  15.384  21.299  0.00  0.00    +0.000 C 
ENDBRANCH  30  37
ENDBRANCH  29  33
ENDBRANCH  28  29
ENDBRANCH  24  28
ENDBRANCH   1  25
TORSDOF 8
ENDMDL
MODEL 4
REMARK VINA RESULT:      -7.4      1.242      1.296
REMARK  Name = 
REMARK  11 active torsions:
REMARK  status: ('A' for Active; 'I' for Inactive)
REMARK    1  A    between atoms: C_1  and  C_2
REMARK    2  A    between atoms: C_2  and  N_3
REMARK    3  A    between atoms: N_6  and  C_7
REMARK    4  A    between atoms: C_7  and  C_8
REMARK    5  A    between atoms: C_8  and  N_9
REMARK    6  A    between atoms: C_10  and  C_12
REMARK    7  A    between atoms: C_22  and  C_23
REMARK    8  A    between atoms: C_26  and  O_27
REMARK    9  A    between atoms: O_27  and  C_28
REMARK   10  A    between atoms: C_29  and  O_30
REMARK   11  A    between atoms: O_30  and  C_31
REMARK                            x       y       z     vdW  Elec       q    Type
REMARK                         _______ _______ _______ _____ _____    ______ ____
ROOT
ATOM      1  C   UNL     1       1.792   7.706  19.880  0.00  0.00    +0.000 A 
ATOM      2  C   UNL     1       1.868   8.374  18.657  0.00  0.00    +0.000 A 
ATOM      3  C   UNL     1       1.239   9.612  18.504  0.00  0.00    +0.000 A 
ATOM      4  C   UNL     1       0.528  10.194  19.563  0.00  0.00    +0.000 A 
ATOM      5  C   UNL     1       0.465   9.519  20.780  0.00  0.00    +0.000 A 
ATOM      6  C   UNL     1       1.082   8.273  20.939  0.00  0.00    +0.000 A 
ATOM      7  N   UNL     1      -0.195  10.043  21.883  0.00  0.00    +0.000 N 
ATOM      8  C   UNL     1      -0.835  11.237  21.995  0.00  0.00    +0.000 C 
ATOM      9  O   UNL     1      -1.315  11.486  23.100  0.00  0.00    +0.000 OA
ATOM     10  C   UNL     1      -0.934  12.171  20.817  0.00  0.00    +0.000 C 
ATOM     11  C   UNL     1      -1.527  13.381  20.917  0.00  0.00    +0.000 C 
ATOM     12  S   UNL     1      -0.279  11.740  19.268  0.00  0.00    +0.000 S 
ATOM     13  H   UNL     1      -0.212   9.515  22.746  0.00  0.00    +0.000 HD
ENDROOT
BRANCH  11  14
ATOM     14  C   UNL     1      -2.051  13.979  22.152  0.00  0.00    +0.000 A 
ATOM     15  C   UNL     1      -1.243  14.768  22.967  0.00  0.00    +0.000 A 
ATOM     16  C   UNL     1      -1.814  15.428  24.056  0.00  0.00    +0.000 A 
ATOM     17  C   UNL     1      -3.184  15.311  24.346  0.00  0.00    +0.000 A 
ATOM     18  C   UNL     1      -3.992  14.484  23.543  0.00  0.00    +0.000 A 
ATOM     19  C   UNL     1      -3.404  13.818  22.456  0.00  0.00    +0.000 A 
BRANCH  17  20
ATOM     20  O   UNL     1      -3.547  16.074  25.427  0.00  0.00    +0.000 OA
ATOM     21  C   UNL     1      -4.096  17.364  25.200  0.00  0.00    +0.000 C 
ENDBRANCH  17  20
BRANCH  18  22
ATOM     22  O   UNL     1      -5.324  14.373  23.844  0.00  0.00    +0.000 OA
ATOM     23  C   UNL     1      -6.250  15.154  23.099  0.00  0.00    +0.000 C 
ENDBRANCH  18  22
ENDBRANCH  11  14
BRANCH   1  25
ATOM     24  N   UNL     1       3.655   6.213  19.490  0.00  0.00    +0.000 N 
ATOM     25  C   UNL     1       2.420   6.379  20.078  0.00  0.00    +0.000 C 
ATOM     26  O   UNL     1       1.860   5.519  20.749  0.00  0.00    +0.000 OA
ATOM     27  H   UNL     1       4.202   7.029  19.235  0.00  0.00    +0.000 HD
BRANCH  24  28
ATOM     28  C   UNL     1       4.385   4.977  19.664  0.00  0.00    +0.000 C 
BRANCH  28  29
ATOM     29  C   UNL     1       5.848   5.104  19.211  0.00  0.00    +0.000 C 
BRANCH  29  33
ATOM     30  N   UNL     1       6.139   5.632  15.513  0.00  0.00    +0.000 NA
ATOM     31  C   UNL     1       4.921   5.161  16.215  0.00  0.00    +0.000 C 
ATOM     32  C   UNL     1       5.158   3.947  17.153  0.00  0.00    +0.000 C 
ATOM     33  N   UNL     1       6.238   4.137  18.154  0.00  0.00    +0.000 NA
ATOM     34  C   UNL     1       7.448   4.618  17.440  0.00  0.00    +0.000 C 
ATOM     35  C   UNL     1       7.203   5.841  16.520  0.00  0.00    +0.000 C 
BRANCH  30  37
ATOM     36  C   UNL     1       7.616   5.160  13.528  0.00  0.00    +0.000 C 
ATOM     37  C   UNL     1       6.513   4.673  14.459  0.00  0.00    +0.000 C 
ENDBRANCH  30  37
ENDBRANCH  29  33
ENDBRANCH  28  29
ENDBRANCH  24  28
ENDBRANCH   1  25
TORSDOF 8
ENDMDL
MODEL 5
REMARK VINA RESULT:      -7.4      2.977     12.278
REMARK  Name = 
REMARK  11 active torsions:
REMARK  status: ('A' for Active; 'I' for Inactive)
REMARK    1  A    between atoms: C_1  and  C_2
REMARK    2  A    between atoms: C_2  and  N_3
REMARK    3  A    between atoms: N_6  and  C_7
REMARK    4  A    between atoms: C_7  and  C_8
REMARK    5  A    between atoms: C_8  and  N_9
REMARK    6  A    between atoms: C_10  and  C_12
REMARK    7  A    between atoms: C_22  and  C_23
REMARK    8  A    between atoms: C_26  and  O_27
REMARK    9  A    between atoms: O_27  and  C_28
REMARK   10  A    between atoms: C_29  and  O_30
REMARK   11  A    between atoms: O_30  and  C_31
REMARK                            x       y       z     vdW  Elec       q    Type
REMARK                         _______ _______ _______ _____ _____    ______ ____
ROOT
ATOM      1  C   UNL     1      -0.116  10.807  20.830  0.00  0.00    +0.000 A 
ATOM      2  C   UNL     1      -0.340   9.949  21.906  0.00  0.00    +0.000 A 
ATOM      3  C   UNL     1       0.225   8.670  21.903  0.00  0.00    +0.000 A 
ATOM      4  C   UNL     1       1.015   8.236  20.829  0.00  0.00    +0.000 A 
ATOM      5  C   UNL     1       1.235   9.106  19.763  0.00  0.00    +0.000 A 
ATOM      6  C   UNL     1       0.663  10.384  19.753  0.00  0.00    +0.000 A 
ATOM      7  N   UNL     1       2.028   8.759  18.678  0.00  0.00    +0.000 N 
ATOM      8  C   UNL     1       2.716   7.606  18.469  0.00  0.00    +0.000 C 
ATOM      9  O   UNL     1       3.379   7.557  17.434  0.00  0.00    +0.000 OA
ATOM     10  C   UNL     1       2.646   6.476  19.463  0.00  0.00    +0.000 C 
ATOM     11  C   UNL     1       3.355   5.338  19.298  0.00  0.00    +0.000 C 
ATOM     12  S   UNL     1       1.651   6.586  20.882  0.00  0.00    +0.000 S 
ATOM     13  H   UNL     1       2.159   9.427  17.928  0.00  0.00    +0.000 HD
ENDROOT
BRANCH  11  14
ATOM     14  C   UNL     1       4.328   5.083  18.229  0.00  0.00    +0.000 A 
ATOM     15  C   UNL     1       4.016   4.250  17.157  0.00  0.00    +0.000 A 
ATOM     16  C   UNL     1       4.915   4.142  16.095  0.00  0.00    +0.000 A 
ATOM     17  C   UNL     1       6.126   4.855  16.087  0.00  0.00    +0.000 A 
ATOM     18  C   UNL     1       6.457   5.669  17.187  0.00  0.00    +0.000 A 
ATOM     19  C   UNL     1       5.548   5.761  18.253  0.00  0.00    +0.000 A 
BRANCH  17  20
ATOM     20  O   UNL     1       6.839   4.643  14.934  0.00  0.00    +0.000 OA
ATOM     21  C   UNL     1       6.182   4.047  13.825  0.00  0.00    +0.000 C 
ENDBRANCH  17  20
BRANCH  18  22
ATOM     22  O   UNL     1       7.645   6.350  17.168  0.00  0.00    +0.000 OA
ATOM     23  C   UNL     1       7.640   7.722  17.542  0.00  0.00    +0.000 C 
ENDBRANCH  18  22
ENDBRANCH  11  14
BRANCH   1  25
ATOM     24  N   UNL     1      -0.696  12.864  21.963  0.00  0.00    +0.000 N 
ATOM     25  C   UNL     1      -0.718  12.159  20.779  0.00  0.00    +0.000 C 
ATOM     26  O   UNL     1      -1.173  12.599  19.730  0.00  0.00    +0.000 OA
ATOM     27  H   UNL     1      -0.041  12.600  22.691  0.00  0.00    +0.000 HD
BRANCH  24  28
ATOM     28  C   UNL     1      -1.206  14.216  22.017  0.00  0.00    +0.000 C 
BRANCH  28  29
ATOM     29  C   UNL     1      -2.738  14.259  21.899  0.00  0.00    +0.000 C 
BRANCH  29  33
ATOM     30  N   UNL     1      -6.314  14.288  23.019  0.00  0.00    +0.000 NA
ATOM     31  C   UNL     1      -5.194  14.958  23.722  0.00  0.00    +0.000 C 
ATOM     32  C   UNL     1      -3.981  14.034  24.010  0.00  0.00    +0.000 C 
ATOM     33  N   UNL     1      -3.440  13.330  22.821  0.00  0.00    +0.000 NA
ATOM     34  C   UNL     1      -4.573  12.671  22.120  0.00  0.00    +0.000 C 
ATOM     35  C   UNL     1      -5.770  13.608  21.823  0.00  0.00    +0.000 C 
BRANCH  30  37
ATOM     36  C   UNL     1      -7.896  12.342  23.257  0.00  0.00    +0.000 C 
ATOM     37  C   UNL     1      -7.011  13.376  23.942  0.00  0.00    +0.000 C 
ENDBRANCH  30  37
ENDBRANCH  29  33
ENDBRANCH  28  29
ENDBRANCH  24  28
ENDBRANCH   1  25
TORSDOF 8
ENDMDL
MODEL 6
REMARK VINA RESULT:      -7.4      2.960      3.770
REMARK  Name = 
REMARK  11 active torsions:
REMARK  status: ('A' for Active; 'I' for Inactive)
REMARK    1  A    between atoms: C_1  and  C_2
REMARK    2  A    between atoms: C_2  and  N_3
REMARK    3  A    between atoms: N_6  and  C_7
REMARK    4  A    between atoms: C_7  and  C_8
REMARK    5  A    between atoms: C_8  and  N_9
REMARK    6  A    between atoms: C_10  and  C_12
REMARK    7  A    between atoms: C_22  and  C_23
REMARK    8  A    between atoms: C_26  and  O_27
REMARK    9  A    between atoms: O_27  and  C_28
REMARK   10  A    between atoms: C_29  and  O_30
REMARK   11  A    between atoms: O_30  and  C_31
REMARK                            x       y       z     vdW  Elec       q    Type
REMARK                         _______ _______ _______ _____ _____    ______ ____
ROOT
ATOM      1  C   UNL     1       1.355   8.462  20.245  0.00  0.00    +0.000 A 
ATOM      2  C   UNL     1       1.467   8.396  21.635  0.00  0.00    +0.000 A 
ATOM      3  C   UNL     1       0.712   9.259  22.432  0.00  0.00    +0.000 A 
ATOM      4  C   UNL     1      -0.158  10.196  21.855  0.00  0.00    +0.000 A 
ATOM      5  C   UNL     1      -0.263  10.247  20.467  0.00  0.00    +0.000 A 
ATOM      6  C   UNL     1       0.499   9.394  19.660  0.00  0.00    +0.000 A 
ATOM      7  N   UNL     1      -1.122  11.127  19.823  0.00  0.00    +0.000 N 
ATOM      8  C   UNL     1      -1.984  12.022  20.375  0.00  0.00    +0.000 C 
ATOM      9  O   UNL     1      -2.667  12.667  19.582  0.00  0.00    +0.000 OA
ATOM     10  C   UNL     1      -2.068  12.189  21.870  0.00  0.00    +0.000 C 
ATOM     11  C   UNL     1      -2.948  13.040  22.442  0.00  0.00    +0.000 C 
ATOM     12  S   UNL     1      -1.039  11.284  22.936  0.00  0.00    +0.000 S 
ATOM     13  H   UNL     1      -1.164  11.126  18.812  0.00  0.00    +0.000 HD
ENDROOT
BRANCH  11  14
ATOM     14  C   UNL     1      -3.970  13.819  21.733  0.00  0.00    +0.000 A 
ATOM     15  C   UNL     1      -3.705  15.110  21.281  0.00  0.00    +0.000 A 
ATOM     16  C   UNL     1      -4.654  15.763  20.494  0.00  0.00    +0.000 A 
ATOM     17  C   UNL     1      -5.870  15.146  20.150  0.00  0.00    +0.000 A 
ATOM     18  C   UNL     1      -6.152  13.856  20.638  0.00  0.00    +0.000 A 
ATOM     19  C   UNL     1      -5.192  13.213  21.436  0.00  0.00    +0.000 A 
BRANCH  17  20
ATOM     20  O   UNL     1      -6.636  15.941  19.336  0.00  0.00    +0.000 OA
ATOM     21  C   UNL     1      -6.030  17.060  18.705  0.00  0.00    +0.000 C 
ENDBRANCH  17  20
BRANCH  18  22
ATOM     22  O   UNL     1      -7.344  13.272  20.301  0.00  0.00    +0.000 OA
ATOM     23  C   UNL     1      -7.314  12.075  19.534  0.00  0.00    +0.000 C 
ENDBRANCH  18  22
ENDBRANCH  11  14
BRANCH   1  25
ATOM     24  N   UNL     1       2.648   6.439  19.948  0.00  0.00    +0.000 N 
ATOM     25  C   UNL     1       2.158   7.585  19.361  0.00  0.00    +0.000 C 
ATOM     26  O   UNL     1       2.333   7.879  18.184  0.00  0.00    +0.000 OA
ATOM     27  H   UNL     1       2.219   6.089  20.799  0.00  0.00    +0.000 HD
BRANCH  24  28
ATOM     28  C   UNL     1       3.398   5.482  19.166  0.00  0.00    +0.000 C 
BRANCH  28  29
ATOM     29  C   UNL     1       4.899   5.812  19.135  0.00  0.00    +0.000 C 
BRANCH  29  33
ATOM     30  N   UNL     1       6.540   4.075  16.249  0.00  0.00    +0.000 NA
ATOM     31  C   UNL     1       7.256   4.719  17.377  0.00  0.00    +0.000 C 
ATOM     32  C   UNL     1       6.823   6.185  17.650  0.00  0.00    +0.000 C 
ATOM     33  N   UNL     1       5.365   6.377  17.844  0.00  0.00    +0.000 NA
ATOM     34  C   UNL     1       4.659   5.720  16.713  0.00  0.00    +0.000 C 
ATOM     35  C   UNL     1       5.086   4.252  16.461  0.00  0.00    +0.000 C 
BRANCH  30  37
ATOM     36  C   UNL     1       6.329   4.056  13.739  0.00  0.00    +0.000 C 
ATOM     37  C   UNL     1       7.015   4.633  14.971  0.00  0.00    +0.000 C 
ENDBRANCH  30  37
ENDBRANCH  29  33
ENDBRANCH  28  29
ENDBRANCH  24  28
ENDBRANCH   1  25
TORSDOF 8
ENDMDL
MODEL 7
REMARK VINA RESULT:      -7.3      1.066      1.397
REMARK  Name = 
REMARK  11 active torsions:
REMARK  status: ('A' for Active; 'I' for Inactive)
REMARK    1  A    between atoms: C_1  and  C_2
REMARK    2  A    between atoms: C_2  and  N_3
REMARK    3  A    between atoms: N_6  and  C_7
REMARK    4  A    between atoms: C_7  and  C_8
REMARK    5  A    between atoms: C_8  and  N_9
REMARK    6  A    between atoms: C_10  and  C_12
REMARK    7  A    between atoms: C_22  and  C_23
REMARK    8  A    between atoms: C_26  and  O_27
REMARK    9  A    between atoms: O_27  and  C_28
REMARK   10  A    between atoms: C_29  and  O_30
REMARK   11  A    between atoms: O_30  and  C_31
REMARK                            x       y       z     vdW  Elec       q    Type
REMARK                         _______ _______ _______ _____ _____    ______ ____
ROOT
ATOM      1  C   UNL     1       1.964   7.408  19.871  0.00  0.00    +0.000 A 
ATOM      2  C   UNL     1       1.995   8.059  18.637  0.00  0.00    +0.000 A 
ATOM      3  C   UNL     1       1.401   9.317  18.501  0.00  0.00    +0.000 A 
ATOM      4  C   UNL     1       0.770   9.935  19.591  0.00  0.00    +0.000 A 
ATOM      5  C   UNL     1       0.751   9.276  20.818  0.00  0.00    +0.000 A 
ATOM      6  C   UNL     1       1.333   8.011  20.959  0.00  0.00    +0.000 A 
ATOM      7  N   UNL     1       0.171   9.836  21.948  0.00  0.00    +0.000 N 
ATOM      8  C   UNL     1      -0.420  11.052  22.079  0.00  0.00    +0.000 C 
ATOM      9  O   UNL     1      -0.830  11.330  23.205  0.00  0.00    +0.000 OA
ATOM     10  C   UNL     1      -0.552  11.976  20.896  0.00  0.00    +0.000 C 
ATOM     11  C   UNL     1      -1.097  13.207  21.013  0.00  0.00    +0.000 C 
ATOM     12  S   UNL     1       0.001  11.505  19.320  0.00  0.00    +0.000 S 
ATOM     13  H   UNL     1       0.184   9.318  22.817  0.00  0.00    +0.000 HD
ENDROOT
BRANCH  11  14
ATOM     14  C   UNL     1      -1.532  13.836  22.266  0.00  0.00    +0.000 A 
ATOM     15  C   UNL     1      -0.649  14.594  23.033  0.00  0.00    +0.000 A 
ATOM     16  C   UNL     1      -1.135  15.287  24.143  0.00  0.00    +0.000 A 
ATOM     17  C   UNL     1      -2.493  15.233  24.502  0.00  0.00    +0.000 A 
ATOM     18  C   UNL     1      -3.377  14.439  23.747  0.00  0.00    +0.000 A 
ATOM     19  C   UNL     1      -2.874  13.740  22.639  0.00  0.00    +0.000 A 
BRANCH  17  20
ATOM     20  O   UNL     1      -2.767  16.019  25.592  0.00  0.00    +0.000 OA
ATOM     21  C   UNL     1      -2.177  17.309  25.670  0.00  0.00    +0.000 C 
ENDBRANCH  17  20
BRANCH  18  22
ATOM     22  O   UNL     1      -4.695  14.391  24.114  0.00  0.00    +0.000 OA
ATOM     23  C   UNL     1      -5.601  15.293  23.493  0.00  0.00    +0.000 C 
ENDBRANCH  18  22
ENDBRANCH  11  14
BRANCH   1  25
ATOM     24  N   UNL     1       3.834   5.906  19.560  0.00  0.00    +0.000 N 
ATOM     25  C   UNL     1       2.556   6.063  20.051  0.00  0.00    +0.000 C 
ATOM     26  O   UNL     1       1.931   5.180  20.628  0.00  0.00    +0.000 OA
ATOM     27  H   UNL     1       4.411   6.723  19.394  0.00  0.00    +0.000 HD
BRANCH  24  28
ATOM     28  C   UNL     1       4.531   4.650  19.731  0.00  0.00    +0.000 C 
BRANCH  28  29
ATOM     29  C   UNL     1       5.572   4.415  18.625  0.00  0.00    +0.000 C 
BRANCH  29  33
ATOM     30  N   UNL     1       6.792   3.791  15.137  0.00  0.00    +0.000 NA
ATOM     31  C   UNL     1       7.488   4.622  16.149  0.00  0.00    +0.000 C 
ATOM     32  C   UNL     1       6.595   5.711  16.801  0.00  0.00    +0.000 C 
ATOM     33  N   UNL     1       5.331   5.205  17.392  0.00  0.00    +0.000 NA
ATOM     34  C   UNL     1       4.648   4.368  16.371  0.00  0.00    +0.000 C 
ATOM     35  C   UNL     1       5.544   3.274  15.740  0.00  0.00    +0.000 C 
BRANCH  30  37
ATOM     36  C   UNL     1       6.362   3.744  12.656  0.00  0.00    +0.000 C 
ATOM     37  C   UNL     1       6.565   4.579  13.913  0.00  0.00    +0.000 C 
ENDBRANCH  30  37
ENDBRANCH  29  33
ENDBRANCH  28  29
ENDBRANCH  24  28
ENDBRANCH   1  25
TORSDOF 8
ENDMDL
MODEL 8
REMARK VINA RESULT:      -7.2      1.260      1.273
REMARK  Name = 
REMARK  11 active torsions:
REMARK  status: ('A' for Active; 'I' for Inactive)
REMARK    1  A    between atoms: C_1  and  C_2
REMARK    2  A    between atoms: C_2  and  N_3
REMARK    3  A    between atoms: N_6  and  C_7
REMARK    4  A    between atoms: C_7  and  C_8
REMARK    5  A    between atoms: C_8  and  N_9
REMARK    6  A    between atoms: C_10  and  C_12
REMARK    7  A    between atoms: C_22  and  C_23
REMARK    8  A    between atoms: C_26  and  O_27
REMARK    9  A    between atoms: O_27  and  C_28
REMARK   10  A    between atoms: C_29  and  O_30
REMARK   11  A    between atoms: O_30  and  C_31
REMARK                            x       y       z     vdW  Elec       q    Type
REMARK                         _______ _______ _______ _____ _____    ______ ____
ROOT
ATOM      1  C   UNL     1       1.772   7.987  19.630  0.00  0.00    +0.000 A 
ATOM      2  C   UNL     1       1.690   8.505  18.337  0.00  0.00    +0.000 A 
ATOM      3  C   UNL     1       1.154   9.780  18.134  0.00  0.00    +0.000 A 
ATOM      4  C   UNL     1       0.693  10.547  19.214  0.00  0.00    +0.000 A 
ATOM      5  C   UNL     1       0.787  10.018  20.500  0.00  0.00    +0.000 A 
ATOM      6  C   UNL     1       1.311   8.739  20.711  0.00  0.00    +0.000 A 
ATOM      7  N   UNL     1       0.378  10.728  21.621  0.00  0.00    +0.000 N 
ATOM      8  C   UNL     1      -0.126  11.989  21.685  0.00  0.00    +0.000 C 
ATOM      9  O   UNL     1      -0.381  12.407  22.814  0.00  0.00    +0.000 OA
ATOM     10  C   UNL     1      -0.349  12.794  20.432  0.00  0.00    +0.000 C 
ATOM     11  C   UNL     1      -0.808  14.064  20.475  0.00  0.00    +0.000 C 
ATOM     12  S   UNL     1      -0.016  12.129  18.863  0.00  0.00    +0.000 S 
ATOM     13  H   UNL     1       0.467  10.302  22.535  0.00  0.00    +0.000 HD
ENDROOT
BRANCH  11  14
ATOM     14  C   UNL     1      -1.053  14.845  21.694  0.00  0.00    +0.000 A 
ATOM     15  C   UNL     1      -0.054  15.641  22.250  0.00  0.00    +0.000 A 
ATOM     16  C   UNL     1      -0.367  16.472  23.326  0.00  0.00    +0.000 A 
ATOM     17  C   UNL     1      -1.666  16.520  23.859  0.00  0.00    +0.000 A 
ATOM     18  C   UNL     1      -2.666  15.689  23.320  0.00  0.00    +0.000 A 
ATOM     19  C   UNL     1      -2.336  14.851  22.243  0.00  0.00    +0.000 A 
BRANCH  17  20
ATOM     20  O   UNL     1      -1.769  17.432  24.879  0.00  0.00    +0.000 OA
ATOM     21  C   UNL     1      -1.448  17.020  26.200  0.00  0.00    +0.000 C 
ENDBRANCH  17  20
BRANCH  18  22
ATOM     22  O   UNL     1      -3.925  15.741  23.856  0.00  0.00    +0.000 OA
ATOM     23  C   UNL     1      -5.035  15.541  22.990  0.00  0.00    +0.000 C 
ENDBRANCH  18  22
ENDBRANCH  11  14
BRANCH   1  25
ATOM     24  N   UNL     1       3.437   6.292  19.174  0.00  0.00    +0.000 N 
ATOM     25  C   UNL     1       2.307   6.630  19.888  0.00  0.00    +0.000 C 
ATOM     26  O   UNL     1       1.770   5.894  20.707  0.00  0.00    +0.000 OA
ATOM     27  H   UNL     1       4.012   7.024  18.770  0.00  0.00    +0.000 HD
BRANCH  24  28
ATOM     28  C   UNL     1       4.078   5.013  19.386  0.00  0.00    +0.000 C 
BRANCH  28  29
ATOM     29  C   UNL     1       5.609   5.118  19.315  0.00  0.00    +0.000 C 
BRANCH  29  33
ATOM     30  N   UNL     1       6.379   5.708  15.695  0.00  0.00    +0.000 NA
ATOM     31  C   UNL     1       5.119   5.123  16.216  0.00  0.00    +0.000 C 
ATOM     32  C   UNL     1       5.327   3.926  17.182  0.00  0.00    +0.000 C 
ATOM     33  N   UNL     1       6.230   4.200  18.326  0.00  0.00    +0.000 NA
ATOM     34  C   UNL     1       7.483   4.793  17.792  0.00  0.00    +0.000 C 
ATOM     35  C   UNL     1       7.265   5.999  16.844  0.00  0.00    +0.000 C 
BRANCH  30  37
ATOM     36  C   UNL     1       5.980   4.106  13.792  0.00  0.00    +0.000 C 
ATOM     37  C   UNL     1       6.983   4.797  14.708  0.00  0.00    +0.000 C 
ENDBRANCH  30  37
ENDBRANCH  29  33
ENDBRANCH  28  29
ENDBRANCH  24  28
ENDBRANCH   1  25
TORSDOF 8
ENDMDL
MODEL 9
REMARK VINA RESULT:      -7.2      2.954     12.384
REMARK  Name = 
REMARK  11 active torsions:
REMARK  status: ('A' for Active; 'I' for Inactive)
REMARK    1  A    between atoms: C_1  and  C_2
REMARK    2  A    between atoms: C_2  and  N_3
REMARK    3  A    between atoms: N_6  and  C_7
REMARK    4  A    between atoms: C_7  and  C_8
REMARK    5  A    between atoms: C_8  and  N_9
REMARK    6  A    between atoms: C_10  and  C_12
REMARK    7  A    between atoms: C_22  and  C_23
REMARK    8  A    between atoms: C_26  and  O_27
REMARK    9  A    between atoms: O_27  and  C_28
REMARK   10  A    between atoms: C_29  and  O_30
REMARK   11  A    between atoms: O_30  and  C_31
REMARK                            x       y       z     vdW  Elec       q    Type
REMARK                         _______ _______ _______ _____ _____    ______ ____
ROOT
ATOM      1  C   UNL     1      -0.147  10.797  20.054  0.00  0.00    +0.000 A 
ATOM      2  C   UNL     1      -0.330  10.045  21.216  0.00  0.00    +0.000 A 
ATOM      3  C   UNL     1       0.324   8.817  21.357  0.00  0.00    +0.000 A 
ATOM      4  C   UNL     1       1.161   8.328  20.344  0.00  0.00    +0.000 A 
ATOM      5  C   UNL     1       1.338   9.092  19.192  0.00  0.00    +0.000 A 
ATOM      6  C   UNL     1       0.678  10.317  19.038  0.00  0.00    +0.000 A 
ATOM      7  N   UNL     1       2.173   8.688  18.159  0.00  0.00    +0.000 N 
ATOM      8  C   UNL     1       2.944   7.571  18.083  0.00  0.00    +0.000 C 
ATOM      9  O   UNL     1       3.626   7.459  17.066  0.00  0.00    +0.000 OA
ATOM     10  C   UNL     1       2.935   6.553  19.194  0.00  0.00    +0.000 C 
ATOM     11  C   UNL     1       3.725   5.458  19.160  0.00  0.00    +0.000 C 
ATOM     12  S   UNL     1       1.911   6.744  20.582  0.00  0.00    +0.000 S 
ATOM     13  H   UNL     1       2.269   9.279  17.342  0.00  0.00    +0.000 HD
ENDROOT
BRANCH  11  14
ATOM     14  C   UNL     1       4.733   5.160  18.134  0.00  0.00    +0.000 A 
ATOM     15  C   UNL     1       4.550   4.116  17.230  0.00  0.00    +0.000 A 
ATOM     16  C   UNL     1       5.463   3.952  16.187  0.00  0.00    +0.000 A 
ATOM     17  C   UNL     1       6.560   4.817  16.033  0.00  0.00    +0.000 A 
ATOM     18  C   UNL     1       6.764   5.849  16.969  0.00  0.00    +0.000 A 
ATOM     19  C   UNL     1       5.844   5.997  18.018  0.00  0.00    +0.000 A 
BRANCH  17  20
ATOM     20  O   UNL     1       7.304   4.509  14.922  0.00  0.00    +0.000 OA
ATOM     21  C   UNL     1       6.631   4.269  13.695  0.00  0.00    +0.000 C 
ENDBRANCH  17  20
BRANCH  18  22
ATOM     22  O   UNL     1       7.842   6.678  16.809  0.00  0.00    +0.000 OA
ATOM     23  C   UNL     1       7.853   7.912  17.515  0.00  0.00    +0.000 C 
ENDBRANCH  18  22
ENDBRANCH  11  14
BRANCH   1  25
ATOM     24  N   UNL     1      -1.466  12.609  20.965  0.00  0.00    +0.000 N 
ATOM     25  C   UNL     1      -0.843  12.089  19.851  0.00  0.00    +0.000 C 
ATOM     26  O   UNL     1      -0.821  12.642  18.758  0.00  0.00    +0.000 OA
ATOM     27  H   UNL     1      -1.188  12.292  21.888  0.00  0.00    +0.000 HD
BRANCH  24  28
ATOM     28  C   UNL     1      -2.128  13.892  20.897  0.00  0.00    +0.000 C 
BRANCH  28  29
ATOM     29  C   UNL     1      -3.051  14.129  22.104  0.00  0.00    +0.000 C 
BRANCH  29  33
ATOM     30  N   UNL     1      -1.790  15.256  25.448  0.00  0.00    +0.000 NA
ATOM     31  C   UNL     1      -3.198  14.909  25.139  0.00  0.00    +0.000 C 
ATOM     32  C   UNL     1      -3.777  15.644  23.900  0.00  0.00    +0.000 C 
ATOM     33  N   UNL     1      -2.972  15.502  22.662  0.00  0.00    +0.000 NA
ATOM     34  C   UNL     1      -1.563  15.844  22.986  0.00  0.00    +0.000 C 
ATOM     35  C   UNL     1      -0.991  15.092  24.214  0.00  0.00    +0.000 C 
BRANCH  30  37
ATOM     36  C   UNL     1      -0.370  16.981  26.612  0.00  0.00    +0.000 C 
ATOM     37  C   UNL     1      -1.721  16.616  26.010  0.00  0.00    +0.000 C 
ENDBRANCH  30  37
ENDBRANCH  29  33
ENDBRANCH  28  29
ENDBRANCH  24  28
ENDBRANCH   1  25
TORSDOF 8
ENDMDL
