MODEL 1
REMARK VINA RESULT:      -8.4      0.000      0.000
REMARK  Name = 
REMARK  9 active torsions:
REMARK  status: ('A' for Active; 'I' for Inactive)
REMARK    1  A    between atoms: C_1  and  O_2
REMARK    2  A    between atoms: O_2  and  C_3
REMARK    3  A    between atoms: C_5  and  C_6
REMARK    4  A    between atoms: N_14  and  C_15
REMARK    5  A    between atoms: C_15  and  C_16
REMARK    6  A    between atoms: C_24  and  O_25
REMARK    7  A    between atoms: O_25  and  C_26
REMARK    8  A    between atoms: C_27  and  O_28
REMARK    9  A    between atoms: O_28  and  C_29
REMARK                            x       y       z     vdW  Elec       q    Type
REMARK                         _______ _______ _______ _____ _____    ______ ____
ROOT
ATOM      1  C   UNL     1       4.040   3.818  17.117  0.00  0.00    +0.000 A 
ATOM      2  C   UNL     1       3.596   2.494  17.131  0.00  0.00    +0.000 A 
ATOM      3  C   UNL     1       2.772   2.024  18.170  0.00  0.00    +0.000 A 
ATOM      4  C   UNL     1       2.345   2.846  19.210  0.00  0.00    +0.000 A 
ATOM      5  N   UNL     1       1.589   2.350  20.196  0.00  0.00    +0.000 NA
ATOM      6  C   UNL     1       1.193   3.215  21.140  0.00  0.00    +0.000 A 
ATOM      7  N   UNL     1       1.437   4.533  21.172  0.00  0.00    +0.000 NA
ATOM      8  C   UNL     1       2.203   5.014  20.183  0.00  0.00    +0.000 A 
ATOM      9  N   UNL     1       2.524   6.386  20.162  0.00  0.00    +0.000 N 
ATOM     10  C   UNL     1       2.729   4.186  19.180  0.00  0.00    +0.000 A 
ATOM     11  C   UNL     1       3.578   4.646  18.153  0.00  0.00    +0.000 A 
ATOM     12  H   UNL     1       3.467   6.502  20.522  0.00  0.00    +0.000 HD
ENDROOT
BRANCH   1  15
ATOM     13  C   UNL     1       6.994   5.748  15.754  0.00  0.00    +0.000 A 
ATOM     14  C   UNL     1       5.832   5.435  16.477  0.00  0.00    +0.000 A 
ATOM     15  C   UNL     1       5.017   4.349  16.143  0.00  0.00    +0.000 A 
ATOM     16  C   UNL     1       5.290   3.711  14.931  0.00  0.00    +0.000 A 
ATOM     17  C   UNL     1       6.372   4.090  14.112  0.00  0.00    +0.000 A 
ATOM     18  C   UNL     1       7.254   5.113  14.526  0.00  0.00    +0.000 A 
BRANCH  13  20
ATOM     19  C   UNL     1       7.449   7.265  17.508  0.00  0.00    +0.000 C 
ATOM     20  O   UNL     1       7.867   6.675  16.271  0.00  0.00    +0.000 OA
ENDBRANCH  13  20
BRANCH  17  21
ATOM     21  O   UNL     1       6.429   3.314  12.980  0.00  0.00    +0.000 OA
ATOM     22  C   UNL     1       5.326   3.293  12.088  0.00  0.00    +0.000 C 
ENDBRANCH  17  21
BRANCH  18  23
ATOM     23  O   UNL     1       8.292   5.392  13.682  0.00  0.00    +0.000 OA
ATOM     24  C   UNL     1       8.058   5.906  12.383  0.00  0.00    +0.000 C 
ENDBRANCH  18  23
ENDBRANCH   1  15
BRANCH   9  25
ATOM     25  C   UNL     1       1.580   7.264  20.840  0.00  0.00    +0.000 C 
BRANCH  25  26
ATOM     26  C   UNL     1       1.359   8.544  20.070  0.00  0.00    +0.000 A 
ATOM     27  C   UNL     1       1.689   8.831  18.761  0.00  0.00    +0.000 A 
ATOM     28  C   UNL     1       1.338  10.162  18.393  0.00  0.00    +0.000 A 
ATOM     29  C   UNL     1       0.758  10.848  19.438  0.00  0.00    +0.000 A 
ATOM     30  S   UNL     1       0.644   9.895  20.850  0.00  0.00    +0.000 S 
ENDBRANCH  25  26
ENDBRANCH   9  25
TORSDOF 6
ENDMDL
MODEL 2
REMARK VINA RESULT:      -8.3      0.378      2.444
REMARK  Name = 
REMARK  9 active torsions:
REMARK  status: ('A' for Active; 'I' for Inactive)
REMARK    1  A    between atoms: C_1  and  O_2
REMARK    2  A    between atoms: O_2  and  C_3
REMARK    3  A    between atoms: C_5  and  C_6
REMARK    4  A    between atoms: N_14  and  C_15
REMARK    5  A    between atoms: C_15  and  C_16
REMARK    6  A    between atoms: C_24  and  O_25
REMARK    7  A    between atoms: O_25  and  C_26
REMARK    8  A    between atoms: C_27  and  O_28
REMARK    9  A    between atoms: O_28  and  C_29
REMARK                            x       y       z     vdW  Elec       q    Type
REMARK                         _______ _______ _______ _____ _____    ______ ____
ROOT
ATOM      1  C   UNL     1       4.224   3.634  17.126  0.00  0.00    +0.000 A 
ATOM      2  C   UNL     1       3.596   2.390  17.028  0.00  0.00    +0.000 A 
ATOM      3  C   UNL     1       2.585   2.023  17.935  0.00  0.00    +0.000 A 
ATOM      4  C   UNL     1       2.148   2.874  18.946  0.00  0.00    +0.000 A 
ATOM      5  N   UNL     1       1.207   2.473  19.808  0.00  0.00    +0.000 NA
ATOM      6  C   UNL     1       0.820   3.364  20.730  0.00  0.00    +0.000 A 
ATOM      7  N   UNL     1       1.244   4.630  20.849  0.00  0.00    +0.000 NA
ATOM      8  C   UNL     1       2.194   5.016  19.985  0.00  0.00    +0.000 A 
ATOM      9  N   UNL     1       2.709   6.326  20.063  0.00  0.00    +0.000 N 
ATOM     10  C   UNL     1       2.721   4.143  19.022  0.00  0.00    +0.000 A 
ATOM     11  C   UNL     1       3.755   4.496  18.130  0.00  0.00    +0.000 A 
ATOM     12  H   UNL     1       3.604   6.292  20.543  0.00  0.00    +0.000 HD
ENDROOT
BRANCH   1  15
ATOM     13  C   UNL     1       6.468   4.009  14.104  0.00  0.00    +0.000 A 
ATOM     14  C   UNL     1       5.619   3.436  15.064  0.00  0.00    +0.000 A 
ATOM     15  C   UNL     1       5.385   4.037  16.305  0.00  0.00    +0.000 A 
ATOM     16  C   UNL     1       6.196   5.125  16.636  0.00  0.00    +0.000 A 
ATOM     17  C   UNL     1       7.157   5.642  15.744  0.00  0.00    +0.000 A 
ATOM     18  C   UNL     1       7.294   5.093  14.450  0.00  0.00    +0.000 A 
BRANCH  13  20
ATOM     19  C   UNL     1       5.173   3.372  12.232  0.00  0.00    +0.000 C 
ATOM     20  O   UNL     1       6.470   3.495  12.830  0.00  0.00    +0.000 OA
ENDBRANCH  13  20
BRANCH  17  21
ATOM     21  O   UNL     1       7.822   6.707  16.301  0.00  0.00    +0.000 OA
ATOM     22  C   UNL     1       7.428   7.191  17.575  0.00  0.00    +0.000 C 
ENDBRANCH  17  21
BRANCH  18  23
ATOM     23  O   UNL     1       8.229   5.679  13.643  0.00  0.00    +0.000 OA
ATOM     24  C   UNL     1       7.987   5.859  12.259  0.00  0.00    +0.000 C 
ENDBRANCH  18  23
ENDBRANCH   1  15
BRANCH   9  25
ATOM     25  C   UNL     1       1.821   7.318  20.654  0.00  0.00    +0.000 C 
BRANCH  25  26
ATOM     26  C   UNL     1       1.568   8.469  19.711  0.00  0.00    +0.000 A 
ATOM     27  C   UNL     1       1.990   8.624  18.406  0.00  0.00    +0.000 A 
ATOM     28  C   UNL     1       1.567   9.864  17.844  0.00  0.00    +0.000 A 
ATOM     29  C   UNL     1       0.843  10.616  18.743  0.00  0.00    +0.000 A 
ATOM     30  S   UNL     1       0.680   9.834  20.253  0.00  0.00    +0.000 S 
ENDBRANCH  25  26
ENDBRANCH   9  25
TORSDOF 6
ENDMDL
MODEL 3
REMARK VINA RESULT:      -7.9      3.280      5.595
REMARK  Name = 
REMARK  9 active torsions:
REMARK  status: ('A' for Active; 'I' for Inactive)
REMARK    1  A    between atoms: C_1  and  O_2
REMARK    2  A    between atoms: O_2  and  C_3
REMARK    3  A    between atoms: C_5  and  C_6
REMARK    4  A    between atoms: N_14  and  C_15
REMARK    5  A    between atoms: C_15  and  C_16
REMARK    6  A    between atoms: C_24  and  O_25
REMARK    7  A    between atoms: O_25  and  C_26
REMARK    8  A    between atoms: C_27  and  O_28
REMARK    9  A    between atoms: O_28  and  C_29
REMARK                            x       y       z     vdW  Elec       q    Type
REMARK                         _______ _______ _______ _____ _____    ______ ____
ROOT
ATOM      1  C   UNL     1       1.973   7.762  19.418  0.00  0.00    +0.000 A 
ATOM      2  C   UNL     1       1.867   7.432  20.770  0.00  0.00    +0.000 A 
ATOM      3  C   UNL     1       1.295   8.333  21.687  0.00  0.00    +0.000 A 
ATOM      4  C   UNL     1       0.793   9.571  21.297  0.00  0.00    +0.000 A 
ATOM      5  N   UNL     1       0.287  10.412  22.206  0.00  0.00    +0.000 NA
ATOM      6  C   UNL     1      -0.206  11.569  21.744  0.00  0.00    +0.000 A 
ATOM      7  N   UNL     1      -0.287  11.950  20.461  0.00  0.00    +0.000 NA
ATOM      8  C   UNL     1       0.231  11.101  19.561  0.00  0.00    +0.000 A 
ATOM      9  N   UNL     1       0.205  11.443  18.194  0.00  0.00    +0.000 N 
ATOM     10  C   UNL     1       0.834   9.893  19.941  0.00  0.00    +0.000 A 
ATOM     11  C   UNL     1       1.435   9.000  19.030  0.00  0.00    +0.000 A 
ATOM     12  H   UNL     1       1.125  11.787  17.930  0.00  0.00    +0.000 HD
ENDROOT
BRANCH   1  15
ATOM     13  C   UNL     1       4.692   6.628  17.046  0.00  0.00    +0.000 A 
ATOM     14  C   UNL     1       3.778   7.452  17.720  0.00  0.00    +0.000 A 
ATOM     15  C   UNL     1       2.684   6.934  18.420  0.00  0.00    +0.000 A 
ATOM     16  C   UNL     1       2.416   5.575  18.246  0.00  0.00    +0.000 A 
ATOM     17  C   UNL     1       3.240   4.743  17.462  0.00  0.00    +0.000 A 
ATOM     18  C   UNL     1       4.407   5.262  16.860  0.00  0.00    +0.000 A 
BRANCH  13  20
ATOM     19  C   UNL     1       6.984   7.027  17.460  0.00  0.00    +0.000 C 
ATOM     20  O   UNL     1       5.863   7.177  16.581  0.00  0.00    +0.000 OA
ENDBRANCH  13  20
BRANCH  17  21
ATOM     21  O   UNL     1       2.768   3.454  17.448  0.00  0.00    +0.000 OA
ATOM     22  C   UNL     1       1.651   3.107  18.252  0.00  0.00    +0.000 C 
ENDBRANCH  17  21
BRANCH  18  23
ATOM     23  O   UNL     1       5.162   4.376  16.143  0.00  0.00    +0.000 OA
ATOM     24  C   UNL     1       5.303   4.506  14.740  0.00  0.00    +0.000 C 
ENDBRANCH  18  23
ENDBRANCH   1  15
BRANCH   9  25
ATOM     25  C   UNL     1      -0.848  12.367  17.795  0.00  0.00    +0.000 C 
BRANCH  25  26
ATOM     26  C   UNL     1      -2.127  11.640  17.457  0.00  0.00    +0.000 A 
ATOM     27  C   UNL     1      -2.421  10.885  16.340  0.00  0.00    +0.000 A 
ATOM     28  C   UNL     1      -3.749  10.370  16.368  0.00  0.00    +0.000 A 
ATOM     29  C   UNL     1      -4.426  10.754  17.505  0.00  0.00    +0.000 A 
ATOM     30  S   UNL     1      -3.467  11.734  18.525  0.00  0.00    +0.000 S 
ENDBRANCH  25  26
ENDBRANCH   9  25
TORSDOF 6
ENDMDL
MODEL 4
REMARK VINA RESULT:      -7.5      3.747      6.708
REMARK  Name = 
REMARK  9 active torsions:
REMARK  status: ('A' for Active; 'I' for Inactive)
REMARK    1  A    between atoms: C_1  and  O_2
REMARK    2  A    between atoms: O_2  and  C_3
REMARK    3  A    between atoms: C_5  and  C_6
REMARK    4  A    between atoms: N_14  and  C_15
REMARK    5  A    between atoms: C_15  and  C_16
REMARK    6  A    between atoms: C_24  and  O_25
REMARK    7  A    between atoms: O_25  and  C_26
REMARK    8  A    between atoms: C_27  and  O_28
REMARK    9  A    between atoms: O_28  and  C_29
REMARK                            x       y       z     vdW  Elec       q    Type
REMARK                         _______ _______ _______ _____ _____    ______ ____
ROOT
ATOM      1  C   UNL     1       1.380   8.185  20.561  0.00  0.00    +0.000 A 
ATOM      2  C   UNL     1       1.228   8.205  21.949  0.00  0.00    +0.000 A 
ATOM      3  C   UNL     1       0.716   9.342  22.599  0.00  0.00    +0.000 A 
ATOM      4  C   UNL     1       0.320  10.481  21.903  0.00  0.00    +0.000 A 
ATOM      5  N   UNL     1      -0.131  11.554  22.563  0.00  0.00    +0.000 NA
ATOM      6  C   UNL     1      -0.523  12.596  21.817  0.00  0.00    +0.000 A 
ATOM      7  N   UNL     1      -0.554  12.656  20.478  0.00  0.00    +0.000 NA
ATOM      8  C   UNL     1      -0.091  11.577  19.830  0.00  0.00    +0.000 A 
ATOM      9  N   UNL     1      -0.069  11.574  18.420  0.00  0.00    +0.000 N 
ATOM     10  C   UNL     1       0.408  10.458  20.512  0.00  0.00    +0.000 A 
ATOM     11  C   UNL     1       0.949   9.327  19.866  0.00  0.00    +0.000 A 
ATOM     12  H   UNL     1       0.880  11.775  18.112  0.00  0.00    +0.000 HD
ENDROOT
BRANCH   1  15
ATOM     13  C   UNL     1       3.630   6.444  18.067  0.00  0.00    +0.000 A 
ATOM     14  C   UNL     1       2.705   7.346  18.617  0.00  0.00    +0.000 A 
ATOM     15  C   UNL     1       2.038   7.088  19.819  0.00  0.00    +0.000 A 
ATOM     16  C   UNL     1       2.169   5.801  20.345  0.00  0.00    +0.000 A 
ATOM     17  C   UNL     1       2.986   4.825  19.739  0.00  0.00    +0.000 A 
ATOM     18  C   UNL     1       3.744   5.143  18.591  0.00  0.00    +0.000 A 
BRANCH  13  20
ATOM     19  C   UNL     1       5.809   6.987  17.332  0.00  0.00    +0.000 C 
ATOM     20  O   UNL     1       4.416   6.857  17.019  0.00  0.00    +0.000 OA
ENDBRANCH  13  20
BRANCH  17  21
ATOM     21  O   UNL     1       2.948   3.646  20.444  0.00  0.00    +0.000 OA
ATOM     22  C   UNL     1       2.158   3.557  21.619  0.00  0.00    +0.000 C 
ENDBRANCH  17  21
BRANCH  18  23
ATOM     23  O   UNL     1       4.531   4.143  18.091  0.00  0.00    +0.000 OA
ATOM     24  C   UNL     1       4.049   3.273  17.082  0.00  0.00    +0.000 C 
ENDBRANCH  18  23
ENDBRANCH   1  15
BRANCH   9  25
ATOM     25  C   UNL     1      -1.038  12.448  17.774  0.00  0.00    +0.000 C 
BRANCH  25  26
ATOM     26  C   UNL     1      -2.290  11.699  17.388  0.00  0.00    +0.000 A 
ATOM     27  C   UNL     1      -2.559  11.009  16.223  0.00  0.00    +0.000 A 
ATOM     28  C   UNL     1      -3.868  10.445  16.216  0.00  0.00    +0.000 A 
ATOM     29  C   UNL     1      -4.556  10.730  17.376  0.00  0.00    +0.000 A 
ATOM     30  S   UNL     1      -3.632  11.675  18.458  0.00  0.00    +0.000 S 
ENDBRANCH  25  26
ENDBRANCH   9  25
TORSDOF 6
ENDMDL
MODEL 5
REMARK VINA RESULT:      -7.5      2.820      4.818
REMARK  Name = 
REMARK  9 active torsions:
REMARK  status: ('A' for Active; 'I' for Inactive)
REMARK    1  A    between atoms: C_1  and  O_2
REMARK    2  A    between atoms: O_2  and  C_3
REMARK    3  A    between atoms: C_5  and  C_6
REMARK    4  A    between atoms: N_14  and  C_15
REMARK    5  A    between atoms: C_15  and  C_16
REMARK    6  A    between atoms: C_24  and  O_25
REMARK    7  A    between atoms: O_25  and  C_26
REMARK    8  A    between atoms: C_27  and  O_28
REMARK    9  A    between atoms: O_28  and  C_29
REMARK                            x       y       z     vdW  Elec       q    Type
REMARK                         _______ _______ _______ _____ _____    ______ ____
ROOT
ATOM      1  C   UNL     1       2.353   6.941  19.136  0.00  0.00    +0.000 A 
ATOM      2  C   UNL     1       1.895   6.307  20.293  0.00  0.00    +0.000 A 
ATOM      3  C   UNL     1       1.191   7.027  21.275  0.00  0.00    +0.000 A 
ATOM      4  C   UNL     1       0.900   8.381  21.139  0.00  0.00    +0.000 A 
ATOM      5  N   UNL     1       0.257   9.035  22.113  0.00  0.00    +0.000 NA
ATOM      6  C   UNL     1      -0.013  10.328  21.889  0.00  0.00    +0.000 A 
ATOM      7  N   UNL     1       0.252  11.021  20.772  0.00  0.00    +0.000 NA
ATOM      8  C   UNL     1       0.904  10.355  19.808  0.00  0.00    +0.000 A 
ATOM      9  N   UNL     1       1.241  11.022  18.613  0.00  0.00    +0.000 N 
ATOM     10  C   UNL     1       1.297   9.017  19.964  0.00  0.00    +0.000 A 
ATOM     11  C   UNL     1       2.028   8.300  18.994  0.00  0.00    +0.000 A 
ATOM     12  H   UNL     1       2.222  11.287  18.656  0.00  0.00    +0.000 HD
ENDROOT
BRANCH   1  15
ATOM     13  C   UNL     1       5.291   6.380  16.821  0.00  0.00    +0.000 A 
ATOM     14  C   UNL     1       4.238   7.012  17.499  0.00  0.00    +0.000 A 
ATOM     15  C   UNL     1       3.217   6.292  18.128  0.00  0.00    +0.000 A 
ATOM     16  C   UNL     1       3.172   4.919  17.873  0.00  0.00    +0.000 A 
ATOM     17  C   UNL     1       4.142   4.272  17.082  0.00  0.00    +0.000 A 
ATOM     18  C   UNL     1       5.231   5.000  16.554  0.00  0.00    +0.000 A 
BRANCH  13  20
ATOM     19  C   UNL     1       7.389   7.278  17.433  0.00  0.00    +0.000 C 
ATOM     20  O   UNL     1       6.375   7.129  16.432  0.00  0.00    +0.000 OA
ENDBRANCH  13  20
BRANCH  17  21
ATOM     21  O   UNL     1       3.878   2.927  16.983  0.00  0.00    +0.000 OA
ATOM     22  C   UNL     1       3.347   2.233  18.100  0.00  0.00    +0.000 C 
ENDBRANCH  17  21
BRANCH  18  23
ATOM     23  O   UNL     1       6.138   4.283  15.824  0.00  0.00    +0.000 OA
ATOM     24  C   UNL     1       6.027   4.188  14.415  0.00  0.00    +0.000 C 
ENDBRANCH  18  23
ENDBRANCH   1  15
BRANCH   9  25
ATOM     25  C   UNL     1       0.395  12.156  18.265  0.00  0.00    +0.000 C 
BRANCH  25  26
ATOM     26  C   UNL     1       1.136  13.464  18.401  0.00  0.00    +0.000 A 
ATOM     27  C   UNL     1       2.465  13.734  18.143  0.00  0.00    +0.000 A 
ATOM     28  C   UNL     1       2.804  15.092  18.410  0.00  0.00    +0.000 A 
ATOM     29  C   UNL     1       1.722  15.812  18.868  0.00  0.00    +0.000 A 
ATOM     30  S   UNL     1       0.312  14.854  18.981  0.00  0.00    +0.000 S 
ENDBRANCH  25  26
ENDBRANCH   9  25
TORSDOF 6
ENDMDL
MODEL 6
REMARK VINA RESULT:      -7.5      3.999      8.050
REMARK  Name = 
REMARK  9 active torsions:
REMARK  status: ('A' for Active; 'I' for Inactive)
REMARK    1  A    between atoms: C_1  and  O_2
REMARK    2  A    between atoms: O_2  and  C_3
REMARK    3  A    between atoms: C_5  and  C_6
REMARK    4  A    between atoms: N_14  and  C_15
REMARK    5  A    between atoms: C_15  and  C_16
REMARK    6  A    between atoms: C_24  and  O_25
REMARK    7  A    between atoms: O_25  and  C_26
REMARK    8  A    between atoms: C_27  and  O_28
REMARK    9  A    between atoms: O_28  and  C_29
REMARK                            x       y       z     vdW  Elec       q    Type
REMARK                         _______ _______ _______ _____ _____    ______ ____
ROOT
ATOM      1  C   UNL     1       2.038   6.127  19.996  0.00  0.00    +0.000 A 
ATOM      2  C   UNL     1       1.363   5.130  20.703  0.00  0.00    +0.000 A 
ATOM      3  C   UNL     1       1.567   3.772  20.399  0.00  0.00    +0.000 A 
ATOM      4  C   UNL     1       2.454   3.356  19.410  0.00  0.00    +0.000 A 
ATOM      5  N   UNL     1       2.594   2.055  19.131  0.00  0.00    +0.000 NA
ATOM      6  C   UNL     1       3.492   1.738  18.189  0.00  0.00    +0.000 A 
ATOM      7  N   UNL     1       4.298   2.585  17.532  0.00  0.00    +0.000 NA
ATOM      8  C   UNL     1       4.141   3.885  17.815  0.00  0.00    +0.000 A 
ATOM      9  N   UNL     1       4.935   4.840  17.147  0.00  0.00    +0.000 N 
ATOM     10  C   UNL     1       3.182   4.335  18.735  0.00  0.00    +0.000 A 
ATOM     11  C   UNL     1       2.953   5.697  19.022  0.00  0.00    +0.000 A 
ATOM     12  H   UNL     1       4.380   5.259  16.406  0.00  0.00    +0.000 HD
ENDROOT
BRANCH   1  15
ATOM     13  C   UNL     1       0.978   9.654  19.133  0.00  0.00    +0.000 A 
ATOM     14  C   UNL     1       1.572   8.386  19.038  0.00  0.00    +0.000 A 
ATOM     15  C   UNL     1       1.775   7.573  20.158  0.00  0.00    +0.000 A 
ATOM     16  C   UNL     1       1.557   8.161  21.406  0.00  0.00    +0.000 A 
ATOM     17  C   UNL     1       1.088   9.484  21.539  0.00  0.00    +0.000 A 
ATOM     18  C   UNL     1       0.777  10.247  20.393  0.00  0.00    +0.000 A 
BRANCH  13  20
ATOM     19  C   UNL     1      -0.793  10.165  17.654  0.00  0.00    +0.000 C 
ATOM     20  O   UNL     1       0.597  10.296  17.980  0.00  0.00    +0.000 OA
ENDBRANCH  13  20
BRANCH  17  21
ATOM     21  O   UNL     1       0.954   9.826  22.863  0.00  0.00    +0.000 OA
ATOM     22  C   UNL     1      -0.302   9.674  23.503  0.00  0.00    +0.000 C 
ENDBRANCH  17  21
BRANCH  18  23
ATOM     23  O   UNL     1       0.300  11.508  20.619  0.00  0.00    +0.000 OA
ATOM     24  C   UNL     1       1.169  12.627  20.621  0.00  0.00    +0.000 C 
ENDBRANCH  18  23
ENDBRANCH   1  15
BRANCH   9  25
ATOM     25  C   UNL     1       6.216   4.356  16.650  0.00  0.00    +0.000 C 
BRANCH  25  26
ATOM     26  C   UNL     1       6.225   4.257  15.144  0.00  0.00    +0.000 A 
ATOM     27  C   UNL     1       5.354   3.575  14.318  0.00  0.00    +0.000 A 
ATOM     28  C   UNL     1       5.701   3.701  12.941  0.00  0.00    +0.000 A 
ATOM     29  C   UNL     1       6.830   4.471  12.764  0.00  0.00    +0.000 A 
ATOM     30  S   UNL     1       7.467   5.031  14.247  0.00  0.00    +0.000 S 
ENDBRANCH  25  26
ENDBRANCH   9  25
TORSDOF 6
ENDMDL
MODEL 7
REMARK VINA RESULT:      -7.3      4.232      7.277
REMARK  Name = 
REMARK  9 active torsions:
REMARK  status: ('A' for Active; 'I' for Inactive)
REMARK    1  A    between atoms: C_1  and  O_2
REMARK    2  A    between atoms: O_2  and  C_3
REMARK    3  A    between atoms: C_5  and  C_6
REMARK    4  A    between atoms: N_14  and  C_15
REMARK    5  A    between atoms: C_15  and  C_16
REMARK    6  A    between atoms: C_24  and  O_25
REMARK    7  A    between atoms: O_25  and  C_26
REMARK    8  A    between atoms: C_27  and  O_28
REMARK    9  A    between atoms: O_28  and  C_29
REMARK                            x       y       z     vdW  Elec       q    Type
REMARK                         _______ _______ _______ _____ _____    ______ ____
ROOT
ATOM      1  C   UNL     1       0.930   8.419  20.983  0.00  0.00    +0.000 A 
ATOM      2  C   UNL     1       0.121   8.304  22.115  0.00  0.00    +0.000 A 
ATOM      3  C   UNL     1      -0.420   9.448  22.729  0.00  0.00    +0.000 A 
ATOM      4  C   UNL     1      -0.199  10.731  22.237  0.00  0.00    +0.000 A 
ATOM      5  N   UNL     1      -0.705  11.795  22.871  0.00  0.00    +0.000 NA
ATOM      6  C   UNL     1      -0.474  12.991  22.313  0.00  0.00    +0.000 A 
ATOM      7  N   UNL     1       0.172  13.227  21.162  0.00  0.00    +0.000 NA
ATOM      8  C   UNL     1       0.681  12.153  20.542  0.00  0.00    +0.000 A 
ATOM      9  N   UNL     1       1.394  12.323  19.338  0.00  0.00    +0.000 N 
ATOM     10  C   UNL     1       0.557  10.861  21.073  0.00  0.00    +0.000 A 
ATOM     11  C   UNL     1       1.122   9.714  20.476  0.00  0.00    +0.000 A 
ATOM     12  H   UNL     1       2.389  12.283  19.544  0.00  0.00    +0.000 HD
ENDROOT
BRANCH   1  15
ATOM     13  C   UNL     1       1.828   4.851  20.103  0.00  0.00    +0.000 A 
ATOM     14  C   UNL     1       1.470   5.984  20.850  0.00  0.00    +0.000 A 
ATOM     15  C   UNL     1       1.648   7.283  20.365  0.00  0.00    +0.000 A 
ATOM     16  C   UNL     1       2.393   7.416  19.191  0.00  0.00    +0.000 A 
ATOM     17  C   UNL     1       2.886   6.300  18.487  0.00  0.00    +0.000 A 
ATOM     18  C   UNL     1       2.593   4.991  18.931  0.00  0.00    +0.000 A 
BRANCH  13  20
ATOM     19  C   UNL     1       2.159   3.087  21.640  0.00  0.00    +0.000 C 
ATOM     20  O   UNL     1       1.414   3.614  20.535  0.00  0.00    +0.000 OA
ENDBRANCH  13  20
BRANCH  17  21
ATOM     21  O   UNL     1       3.583   6.692  17.370  0.00  0.00    +0.000 OA
ATOM     22  C   UNL     1       4.997   6.787  17.424  0.00  0.00    +0.000 C 
ENDBRANCH  17  21
BRANCH  18  23
ATOM     23  O   UNL     1       3.087   3.971  18.168  0.00  0.00    +0.000 OA
ATOM     24  C   UNL     1       4.286   3.306  18.526  0.00  0.00    +0.000 C 
ENDBRANCH  18  23
ENDBRANCH   1  15
BRANCH   9  25
ATOM     25  C   UNL     1       1.055  13.512  18.567  0.00  0.00    +0.000 C 
BRANCH  25  26
ATOM     26  C   UNL     1       2.238  14.437  18.423  0.00  0.00    +0.000 A 
ATOM     27  C   UNL     1       3.560  14.117  18.186  0.00  0.00    +0.000 A 
ATOM     28  C   UNL     1       4.395  15.271  18.133  0.00  0.00    +0.000 A 
ATOM     29  C   UNL     1       3.682  16.432  18.337  0.00  0.00    +0.000 A 
ATOM     30  S   UNL     1       2.021  16.131  18.596  0.00  0.00    +0.000 S 
ENDBRANCH  25  26
ENDBRANCH   9  25
TORSDOF 6
ENDMDL
MODEL 8
REMARK VINA RESULT:      -7.3      3.950      6.951
REMARK  Name = 
REMARK  9 active torsions:
REMARK  status: ('A' for Active; 'I' for Inactive)
REMARK    1  A    between atoms: C_1  and  O_2
REMARK    2  A    between atoms: O_2  and  C_3
REMARK    3  A    between atoms: C_5  and  C_6
REMARK    4  A    between atoms: N_14  and  C_15
REMARK    5  A    between atoms: C_15  and  C_16
REMARK    6  A    between atoms: C_24  and  O_25
REMARK    7  A    between atoms: O_25  and  C_26
REMARK    8  A    between atoms: C_27  and  O_28
REMARK    9  A    between atoms: O_28  and  C_29
REMARK                            x       y       z     vdW  Elec       q    Type
REMARK                         _______ _______ _______ _____ _____    ______ ____
ROOT
ATOM      1  C   UNL     1       1.220   8.296  20.848  0.00  0.00    +0.000 A 
ATOM      2  C   UNL     1       0.969   8.313  22.222  0.00  0.00    +0.000 A 
ATOM      3  C   UNL     1       0.386   9.438  22.832  0.00  0.00    +0.000 A 
ATOM      4  C   UNL     1       0.014  10.568  22.107  0.00  0.00    +0.000 A 
ATOM      5  N   UNL     1      -0.507  11.630  22.732  0.00  0.00    +0.000 NA
ATOM      6  C   UNL     1      -0.869  12.662  21.958  0.00  0.00    +0.000 A 
ATOM      7  N   UNL     1      -0.805  12.721  20.620  0.00  0.00    +0.000 NA
ATOM      8  C   UNL     1      -0.273  11.654  20.008  0.00  0.00    +0.000 A 
ATOM      9  N   UNL     1      -0.151  11.651  18.604  0.00  0.00    +0.000 N 
ATOM     10  C   UNL     1       0.201  10.546  20.726  0.00  0.00    +0.000 A 
ATOM     11  C   UNL     1       0.813   9.427  20.122  0.00  0.00    +0.000 A 
ATOM     12  H   UNL     1       0.812  11.873  18.364  0.00  0.00    +0.000 HD
ENDROOT
BRANCH   1  15
ATOM     13  C   UNL     1       2.202   4.804  19.777  0.00  0.00    +0.000 A 
ATOM     14  C   UNL     1       1.831   5.889  20.587  0.00  0.00    +0.000 A 
ATOM     15  C   UNL     1       1.953   7.215  20.158  0.00  0.00    +0.000 A 
ATOM     16  C   UNL     1       2.659   7.426  18.971  0.00  0.00    +0.000 A 
ATOM     17  C   UNL     1       3.165   6.359  18.201  0.00  0.00    +0.000 A 
ATOM     18  C   UNL     1       2.927   5.023  18.592  0.00  0.00    +0.000 A 
BRANCH  13  20
ATOM     19  C   UNL     1       0.742   2.979  19.430  0.00  0.00    +0.000 C 
ATOM     20  O   UNL     1       1.841   3.536  20.162  0.00  0.00    +0.000 OA
ENDBRANCH  13  20
BRANCH  17  21
ATOM     21  O   UNL     1       3.816   6.825  17.084  0.00  0.00    +0.000 OA
ATOM     22  C   UNL     1       5.234   6.815  17.044  0.00  0.00    +0.000 C 
ENDBRANCH  17  21
BRANCH  18  23
ATOM     23  O   UNL     1       3.429   4.055  17.767  0.00  0.00    +0.000 OA
ATOM     24  C   UNL     1       4.550   3.279  18.154  0.00  0.00    +0.000 C 
ENDBRANCH  18  23
ENDBRANCH   1  15
BRANCH   9  25
ATOM     25  C   UNL     1      -1.091  12.502  17.888  0.00  0.00    +0.000 C 
BRANCH  25  26
ATOM     26  C   UNL     1      -2.316  11.734  17.453  0.00  0.00    +0.000 A 
ATOM     27  C   UNL     1      -2.515  11.013  16.293  0.00  0.00    +0.000 A 
ATOM     28  C   UNL     1      -3.818  10.439  16.229  0.00  0.00    +0.000 A 
ATOM     29  C   UNL     1      -4.571  10.747  17.341  0.00  0.00    +0.000 A 
ATOM     30  S   UNL     1      -3.714  11.725  18.449  0.00  0.00    +0.000 S 
ENDBRANCH  25  26
ENDBRANCH   9  25
TORSDOF 6
ENDMDL
MODEL 9
REMARK VINA RESULT:      -7.3      4.312      8.199
REMARK  Name = 
REMARK  9 active torsions:
REMARK  status: ('A' for Active; 'I' for Inactive)
REMARK    1  A    between atoms: C_1  and  O_2
REMARK    2  A    between atoms: O_2  and  C_3
REMARK    3  A    between atoms: C_5  and  C_6
REMARK    4  A    between atoms: N_14  and  C_15
REMARK    5  A    between atoms: C_15  and  C_16
REMARK    6  A    between atoms: C_24  and  O_25
REMARK    7  A    between atoms: O_25  and  C_26
REMARK    8  A    between atoms: C_27  and  O_28
REMARK    9  A    between atoms: O_28  and  C_29
REMARK                            x       y       z     vdW  Elec       q    Type
REMARK                         _______ _______ _______ _____ _____    ______ ____
ROOT
ATOM      1  C   UNL     1       1.455   7.716  20.190  0.00  0.00    +0.000 A 
ATOM      2  C   UNL     1       1.102   6.661  21.033  0.00  0.00    +0.000 A 
ATOM      3  C   UNL     1       1.549   5.353  20.772  0.00  0.00    +0.000 A 
ATOM      4  C   UNL     1       2.371   5.050  19.690  0.00  0.00    +0.000 A 
ATOM      5  N   UNL     1       2.746   3.786  19.459  0.00  0.00    +0.000 NA
ATOM      6  C   UNL     1       3.564   3.585  18.418  0.00  0.00    +0.000 A 
ATOM      7  N   UNL     1       4.082   4.524  17.613  0.00  0.00    +0.000 NA
ATOM      8  C   UNL     1       3.691   5.784  17.850  0.00  0.00    +0.000 A 
ATOM      9  N   UNL     1       4.174   6.824  17.031  0.00  0.00    +0.000 N 
ATOM     10  C   UNL     1       2.783   6.100  18.872  0.00  0.00    +0.000 A 
ATOM     11  C   UNL     1       2.310   7.405  19.120  0.00  0.00    +0.000 A 
ATOM     12  H   UNL     1       3.454   7.063  16.354  0.00  0.00    +0.000 HD
ENDROOT
BRANCH   1  15
ATOM     13  C   UNL     1       0.074  10.847  21.801  0.00  0.00    +0.000 A 
ATOM     14  C   UNL     1       0.280   9.494  21.492  0.00  0.00    +0.000 A 
ATOM     15  C   UNL     1       0.915   9.087  20.314  0.00  0.00    +0.000 A 
ATOM     16  C   UNL     1       1.148  10.075  19.355  0.00  0.00    +0.000 A 
ATOM     17  C   UNL     1       0.827  11.428  19.581  0.00  0.00    +0.000 A 
ATOM     18  C   UNL     1       0.295  11.836  20.824  0.00  0.00    +0.000 A 
BRANCH  13  20
ATOM     19  C   UNL     1      -1.752  11.384  23.202  0.00  0.00    +0.000 C 
ATOM     20  O   UNL     1      -0.339  11.183  23.067  0.00  0.00    +0.000 OA
ENDBRANCH  13  20
BRANCH  17  21
ATOM     21  O   UNL     1       1.152  12.199  18.491  0.00  0.00    +0.000 OA
ATOM     22  C   UNL     1       2.512  12.501  18.227  0.00  0.00    +0.000 C 
ENDBRANCH  17  21
BRANCH  18  23
ATOM     23  O   UNL     1       0.043  13.172  20.964  0.00  0.00    +0.000 OA
ATOM     24  C   UNL     1       1.024  14.047  21.492  0.00  0.00    +0.000 C 
ENDBRANCH  18  23
ENDBRANCH   1  15
BRANCH   9  25
ATOM     25  C   UNL     1       5.455   6.573  16.384  0.00  0.00    +0.000 C 
BRANCH  25  26
ATOM     26  C   UNL     1       6.612   6.943  17.279  0.00  0.00    +0.000 A 
ATOM     27  C   UNL     1       7.287   8.145  17.365  0.00  0.00    +0.000 A 
ATOM     28  C   UNL     1       8.344   8.105  18.320  0.00  0.00    +0.000 A 
ATOM     29  C   UNL     1       8.443   6.872  18.926  0.00  0.00    +0.000 A 
ATOM     30  S   UNL     1       7.275   5.771  18.342  0.00  0.00    +0.000 S 
ENDBRANCH  25  26
ENDBRANCH   9  25
TORSDOF 6
ENDMDL
