MODEL 1
REMARK VINA RESULT:      -7.9      0.000      0.000
REMARK  Name = 
REMARK  5 active torsions:
REMARK  status: ('A' for Active; 'I' for Inactive)
REMARK    1  A    between atoms: N_1  and  C_2
REMARK    2  A    between atoms: C_7  and  C_8
REMARK    3  A    between atoms: N_13  and  C_14
REMARK    4  A    between atoms: C_17  and  O_18
REMARK    5  A    between atoms: O_18  and  C_19
REMARK                            x       y       z     vdW  Elec       q    Type
REMARK                         _______ _______ _______ _____ _____    ______ ____
ROOT
ATOM      1  C   UNL     1       3.699   6.471  18.017  0.00  0.00    +0.000 C 
ATOM      2  O   UNL     1       3.580   6.133  19.194  0.00  0.00    +0.000 OA
ATOM      3  N   UNL     1       3.144   7.629  17.508  0.00  0.00    +0.000 N 
ATOM      4  C   UNL     1       2.305   8.527  18.144  0.00  0.00    +0.000 C 
ATOM      5  O   UNL     1       1.909   9.503  17.510  0.00  0.00    +0.000 OA
ATOM      6  N   UNL     1       1.995   8.218  19.447  0.00  0.00    +0.000 N 
ATOM      7  H   UNL     1       3.309   7.841  16.529  0.00  0.00    +0.000 HD
ATOM      8  H   UNL     1       2.446   7.376  19.801  0.00  0.00    +0.000 HD
ENDROOT
BRANCH   1  14
ATOM      9  C   UNL     1       4.512   4.183  17.162  0.00  0.00    +0.000 A 
ATOM     10  C   UNL     1       5.296   3.491  16.225  0.00  0.00    +0.000 A 
ATOM     11  C   UNL     1       5.969   4.166  15.200  0.00  0.00    +0.000 A 
ATOM     12  C   UNL     1       5.882   5.549  15.107  0.00  0.00    +0.000 A 
ATOM     13  C   UNL     1       5.123   6.254  16.037  0.00  0.00    +0.000 A 
ATOM     14  C   UNL     1       4.442   5.589  17.071  0.00  0.00    +0.000 A 
BRANCH   9  15
ATOM     15  N   UNL     1       3.857   3.445  18.173  0.00  0.00    +0.000 N 
ATOM     16  H   UNL     1       3.612   2.499  17.873  0.00  0.00    +0.000 HD
ATOM     17  H   UNL     1       3.016   3.918  18.504  0.00  0.00    +0.000 HD
ENDBRANCH   9  15
ENDBRANCH   1  14
BRANCH   6  18
ATOM     18  C   UNL     1       1.153   8.908  20.344  0.00  0.00    +0.000 A 
ATOM     19  C   UNL     1       0.226   9.876  19.956  0.00  0.00    +0.000 A 
ATOM     20  C   UNL     1      -0.589  10.507  20.909  0.00  0.00    +0.000 A 
ATOM     21  C   UNL     1      -0.490  10.169  22.259  0.00  0.00    +0.000 A 
ATOM     22  C   UNL     1       0.467   9.235  22.659  0.00  0.00    +0.000 A 
ATOM     23  C   UNL     1       1.266   8.593  21.705  0.00  0.00    +0.000 A 
BRANCH  21  24
ATOM     24  O   UNL     1      -1.309  10.861  23.123  0.00  0.00    +0.000 OA
BRANCH  24  25
ATOM     25  C   UNL     1      -1.544  12.205  22.873  0.00  0.00    +0.000 A 
ATOM     26  N   UNL     1      -0.524  13.032  23.166  0.00  0.00    +0.000 NA
ATOM     27  C   UNL     1      -0.757  14.350  22.984  0.00  0.00    +0.000 A 
ATOM     28  C   UNL     1      -1.951  14.855  22.521  0.00  0.00    +0.000 A 
ATOM     29 BR   UNL     1      -2.262  16.698  22.347  0.00  0.00    +0.000 Br
ATOM     30  C   UNL     1      -2.910  13.921  22.210  0.00  0.00    +0.000 A 
ATOM     31  N   UNL     1      -2.730  12.593  22.361  0.00  0.00    +0.000 NA
ENDBRANCH  24  25
ENDBRANCH  21  24
ENDBRANCH   6  18
TORSDOF 5
ENDMDL
MODEL 2
REMARK VINA RESULT:      -7.8      1.913      2.262
REMARK  Name = 
REMARK  5 active torsions:
REMARK  status: ('A' for Active; 'I' for Inactive)
REMARK    1  A    between atoms: N_1  and  C_2
REMARK    2  A    between atoms: C_7  and  C_8
REMARK    3  A    between atoms: N_13  and  C_14
REMARK    4  A    between atoms: C_17  and  O_18
REMARK    5  A    between atoms: O_18  and  C_19
REMARK                            x       y       z     vdW  Elec       q    Type
REMARK                         _______ _______ _______ _____ _____    ______ ____
ROOT
ATOM      1  C   UNL     1       2.818   6.905  18.712  0.00  0.00    +0.000 C 
ATOM      2  O   UNL     1       2.837   6.764  19.934  0.00  0.00    +0.000 OA
ATOM      3  N   UNL     1       2.231   7.989  18.090  0.00  0.00    +0.000 N 
ATOM      4  C   UNL     1       1.496   9.012  18.665  0.00  0.00    +0.000 C 
ATOM      5  O   UNL     1       1.048   9.890  17.932  0.00  0.00    +0.000 OA
ATOM      6  N   UNL     1       1.341   8.927  20.029  0.00  0.00    +0.000 N 
ATOM      7  H   UNL     1       2.279   8.036  17.077  0.00  0.00    +0.000 HD
ATOM      8  H   UNL     1       1.814   8.134  20.460  0.00  0.00    +0.000 HD
ENDROOT
BRANCH   1  14
ATOM      9  C   UNL     1       2.993   4.511  17.783  0.00  0.00    +0.000 A 
ATOM     10  C   UNL     1       3.694   3.623  16.952  0.00  0.00    +0.000 A 
ATOM     11  C   UNL     1       4.770   4.055  16.169  0.00  0.00    +0.000 A 
ATOM     12  C   UNL     1       5.174   5.383  16.219  0.00  0.00    +0.000 A 
ATOM     13  C   UNL     1       4.503   6.274  17.050  0.00  0.00    +0.000 A 
ATOM     14  C   UNL     1       3.421   5.854  17.842  0.00  0.00    +0.000 A 
BRANCH   9  15
ATOM     15  N   UNL     1       1.915   4.012  18.549  0.00  0.00    +0.000 N 
ATOM     16  H   UNL     1       1.192   3.577  17.974  0.00  0.00    +0.000 HD
ATOM     17  H   UNL     1       1.491   4.740  19.123  0.00  0.00    +0.000 HD
ENDBRANCH   9  15
ENDBRANCH   1  14
BRANCH   6  18
ATOM     18  C   UNL     1       0.632   9.785  20.894  0.00  0.00    +0.000 A 
ATOM     19  C   UNL     1       0.618  11.176  20.774  0.00  0.00    +0.000 A 
ATOM     20  C   UNL     1      -0.128  11.961  21.666  0.00  0.00    +0.000 A 
ATOM     21  C   UNL     1      -0.873  11.363  22.683  0.00  0.00    +0.000 A 
ATOM     22  C   UNL     1      -0.827   9.977  22.835  0.00  0.00    +0.000 A 
ATOM     23  C   UNL     1      -0.097   9.192  21.933  0.00  0.00    +0.000 A 
BRANCH  21  24
ATOM     24  O   UNL     1      -1.549  12.215  23.526  0.00  0.00    +0.000 OA
BRANCH  24  25
ATOM     25  C   UNL     1      -2.893  12.458  23.279  0.00  0.00    +0.000 A 
ATOM     26  N   UNL     1      -3.675  12.536  24.370  0.00  0.00    +0.000 NA
ATOM     27  C   UNL     1      -4.995  12.714  24.144  0.00  0.00    +0.000 A 
ATOM     28  C   UNL     1      -5.544  12.821  22.886  0.00  0.00    +0.000 A 
ATOM     29 BR   UNL     1      -7.391  12.997  22.608  0.00  0.00    +0.000 Br
ATOM     30  C   UNL     1      -4.651  12.773  21.843  0.00  0.00    +0.000 A 
ATOM     31  N   UNL     1      -3.322  12.608  22.009  0.00  0.00    +0.000 NA
ENDBRANCH  24  25
ENDBRANCH  21  24
ENDBRANCH   6  18
TORSDOF 5
ENDMDL
MODEL 3
REMARK VINA RESULT:      -7.8      2.407      2.877
REMARK  Name = 
REMARK  5 active torsions:
REMARK  status: ('A' for Active; 'I' for Inactive)
REMARK    1  A    between atoms: N_1  and  C_2
REMARK    2  A    between atoms: C_7  and  C_8
REMARK    3  A    between atoms: N_13  and  C_14
REMARK    4  A    between atoms: C_17  and  O_18
REMARK    5  A    between atoms: O_18  and  C_19
REMARK                            x       y       z     vdW  Elec       q    Type
REMARK                         _______ _______ _______ _____ _____    ______ ____
ROOT
ATOM      1  C   UNL     1       2.185   5.801  19.905  0.00  0.00    +0.000 C 
ATOM      2  O   UNL     1       1.724   5.759  21.045  0.00  0.00    +0.000 OA
ATOM      3  N   UNL     1       2.268   6.967  19.171  0.00  0.00    +0.000 N 
ATOM      4  C   UNL     1       1.779   8.221  19.497  0.00  0.00    +0.000 C 
ATOM      5  O   UNL     1       1.950   9.138  18.697  0.00  0.00    +0.000 OA
ATOM      6  N   UNL     1       1.135   8.302  20.709  0.00  0.00    +0.000 N 
ATOM      7  H   UNL     1       2.682   6.914  18.245  0.00  0.00    +0.000 HD
ATOM      8  H   UNL     1       1.121   7.432  21.239  0.00  0.00    +0.000 HD
ENDROOT
BRANCH   1  14
ATOM      9  C   UNL     1       2.837   3.311  19.919  0.00  0.00    +0.000 A 
ATOM     10  C   UNL     1       3.333   2.223  19.183  0.00  0.00    +0.000 A 
ATOM     11  C   UNL     1       3.608   2.336  17.815  0.00  0.00    +0.000 A 
ATOM     12  C   UNL     1       3.408   3.547  17.165  0.00  0.00    +0.000 A 
ATOM     13  C   UNL     1       2.933   4.641  17.882  0.00  0.00    +0.000 A 
ATOM     14  C   UNL     1       2.653   4.542  19.256  0.00  0.00    +0.000 A 
BRANCH   9  15
ATOM     15  N   UNL     1       2.578   3.133  21.297  0.00  0.00    +0.000 N 
ATOM     16  H   UNL     1       2.727   2.170  21.604  0.00  0.00    +0.000 HD
ATOM     17  H   UNL     1       1.631   3.419  21.544  0.00  0.00    +0.000 HD
ENDBRANCH   9  15
ENDBRANCH   1  14
BRANCH   6  18
ATOM     18  C   UNL     1       0.510   9.416  21.306  0.00  0.00    +0.000 A 
ATOM     19  C   UNL     1       0.591  10.717  20.806  0.00  0.00    +0.000 A 
ATOM     20  C   UNL     1      -0.075  11.771  21.449  0.00  0.00    +0.000 A 
ATOM     21  C   UNL     1      -0.835  11.534  22.595  0.00  0.00    +0.000 A 
ATOM     22  C   UNL     1      -0.883  10.244  23.125  0.00  0.00    +0.000 A 
ATOM     23  C   UNL     1      -0.233   9.189  22.472  0.00  0.00    +0.000 A 
BRANCH  21  24
ATOM     24  O   UNL     1      -1.429  12.633  23.172  0.00  0.00    +0.000 OA
BRANCH  24  25
ATOM     25  C   UNL     1      -2.811  12.741  23.117  0.00  0.00    +0.000 A 
ATOM     26  N   UNL     1      -3.437  12.734  24.307  0.00  0.00    +0.000 NA
ATOM     27  C   UNL     1      -4.787  12.779  24.268  0.00  0.00    +0.000 A 
ATOM     28  C   UNL     1      -5.513  12.837  23.101  0.00  0.00    +0.000 A 
ATOM     29 BR   UNL     1      -7.390  12.827  23.084  0.00  0.00    +0.000 Br
ATOM     30  C   UNL     1      -4.774  12.883  21.944  0.00  0.00    +0.000 A 
ATOM     31  N   UNL     1      -3.425  12.853  21.922  0.00  0.00    +0.000 NA
ENDBRANCH  24  25
ENDBRANCH  21  24
ENDBRANCH   6  18
TORSDOF 5
ENDMDL
MODEL 4
REMARK VINA RESULT:      -7.8      1.765      2.163
REMARK  Name = 
REMARK  5 active torsions:
REMARK  status: ('A' for Active; 'I' for Inactive)
REMARK    1  A    between atoms: N_1  and  C_2
REMARK    2  A    between atoms: C_7  and  C_8
REMARK    3  A    between atoms: N_13  and  C_14
REMARK    4  A    between atoms: C_17  and  O_18
REMARK    5  A    between atoms: O_18  and  C_19
REMARK                            x       y       z     vdW  Elec       q    Type
REMARK                         _______ _______ _______ _____ _____    ______ ____
ROOT
ATOM      1  C   UNL     1       3.059   6.849  18.533  0.00  0.00    +0.000 C 
ATOM      2  O   UNL     1       3.055   6.610  19.740  0.00  0.00    +0.000 OA
ATOM      3  N   UNL     1       2.443   7.956  17.985  0.00  0.00    +0.000 N 
ATOM      4  C   UNL     1       1.654   8.900  18.620  0.00  0.00    +0.000 C 
ATOM      5  O   UNL     1       1.187   9.816  17.948  0.00  0.00    +0.000 OA
ATOM      6  N   UNL     1       1.470   8.699  19.968  0.00  0.00    +0.000 N 
ATOM      7  H   UNL     1       2.513   8.087  16.980  0.00  0.00    +0.000 HD
ATOM      8  H   UNL     1       1.965   7.892  20.346  0.00  0.00    +0.000 HD
ENDROOT
BRANCH   1  14
ATOM      9  C   UNL     1       3.488   4.506  17.558  0.00  0.00    +0.000 A 
ATOM     10  C   UNL     1       4.231   3.728  16.655  0.00  0.00    +0.000 A 
ATOM     11  C   UNL     1       5.160   4.311  15.786  0.00  0.00    +0.000 A 
ATOM     12  C   UNL     1       5.373   5.683  15.819  0.00  0.00    +0.000 A 
ATOM     13  C   UNL     1       4.660   6.468  16.719  0.00  0.00    +0.000 A 
ATOM     14  C   UNL     1       3.724   5.896  17.598  0.00  0.00    +0.000 A 
BRANCH   9  15
ATOM     15  N   UNL     1       2.566   3.857  18.410  0.00  0.00    +0.000 N 
ATOM     16  H   UNL     1       2.924   2.975  18.779  0.00  0.00    +0.000 HD
ATOM     17  H   UNL     1       1.675   3.685  17.942  0.00  0.00    +0.000 HD
ENDBRANCH   9  15
ENDBRANCH   1  14
BRANCH   6  18
ATOM     18  C   UNL     1       0.706   9.456  20.879  0.00  0.00    +0.000 A 
ATOM     19  C   UNL     1      -0.050   8.900  21.913  0.00  0.00    +0.000 A 
ATOM     20  C   UNL     1      -0.772   9.722  22.791  0.00  0.00    +0.000 A 
ATOM     21  C   UNL     1      -0.738  11.110  22.650  0.00  0.00    +0.000 A 
ATOM     22  C   UNL     1      -0.020  11.669  21.592  0.00  0.00    +0.000 A 
ATOM     23  C   UNL     1       0.714  10.848  20.727  0.00  0.00    +0.000 A 
BRANCH  21  24
ATOM     24  O   UNL     1      -1.499  11.833  23.540  0.00  0.00    +0.000 OA
BRANCH  24  25
ATOM     25  C   UNL     1      -2.768  12.233  23.147  0.00  0.00    +0.000 A 
ATOM     26  N   UNL     1      -3.683  12.295  24.132  0.00  0.00    +0.000 NA
ATOM     27  C   UNL     1      -4.938  12.626  23.757  0.00  0.00    +0.000 A 
ATOM     28  C   UNL     1      -5.297  12.899  22.456  0.00  0.00    +0.000 A 
ATOM     29 BR   UNL     1      -7.065  13.286  21.962  0.00  0.00    +0.000 Br
ATOM     30  C   UNL     1      -4.277  12.850  21.537  0.00  0.00    +0.000 A 
ATOM     31  N   UNL     1      -3.004  12.536  21.855  0.00  0.00    +0.000 NA
ENDBRANCH  24  25
ENDBRANCH  21  24
ENDBRANCH   6  18
TORSDOF 5
ENDMDL
MODEL 5
REMARK VINA RESULT:      -7.7      2.480      2.996
REMARK  Name = 
REMARK  5 active torsions:
REMARK  status: ('A' for Active; 'I' for Inactive)
REMARK    1  A    between atoms: N_1  and  C_2
REMARK    2  A    between atoms: C_7  and  C_8
REMARK    3  A    between atoms: N_13  and  C_14
REMARK    4  A    between atoms: C_17  and  O_18
REMARK    5  A    between atoms: O_18  and  C_19
REMARK                            x       y       z     vdW  Elec       q    Type
REMARK                         _______ _______ _______ _____ _____    ______ ____
ROOT
ATOM      1  C   UNL     1       2.189   5.772  19.872  0.00  0.00    +0.000 C 
ATOM      2  O   UNL     1       1.702   5.717  21.001  0.00  0.00    +0.000 OA
ATOM      3  N   UNL     1       2.300   6.948  19.159  0.00  0.00    +0.000 N 
ATOM      4  C   UNL     1       1.818   8.202  19.495  0.00  0.00    +0.000 C 
ATOM      5  O   UNL     1       2.017   9.130  18.714  0.00  0.00    +0.000 OA
ATOM      6  N   UNL     1       1.150   8.271  20.694  0.00  0.00    +0.000 N 
ATOM      7  H   UNL     1       2.733   6.906  18.242  0.00  0.00    +0.000 HD
ATOM      8  H   UNL     1       1.115   7.393  21.210  0.00  0.00    +0.000 HD
ENDROOT
BRANCH   1  14
ATOM      9  C   UNL     1       4.006   4.179  18.985  0.00  0.00    +0.000 A 
ATOM     10  C   UNL     1       4.289   2.985  18.303  0.00  0.00    +0.000 A 
ATOM     11  C   UNL     1       3.266   2.126  17.885  0.00  0.00    +0.000 A 
ATOM     12  C   UNL     1       1.939   2.458  18.128  0.00  0.00    +0.000 A 
ATOM     13  C   UNL     1       1.639   3.646  18.787  0.00  0.00    +0.000 A 
ATOM     14  C   UNL     1       2.655   4.518  19.212  0.00  0.00    +0.000 A 
BRANCH   9  15
ATOM     15  N   UNL     1       5.083   5.003  19.380  0.00  0.00    +0.000 N 
ATOM     16  H   UNL     1       5.256   4.969  20.386  0.00  0.00    +0.000 HD
ATOM     17  H   UNL     1       4.940   5.973  19.100  0.00  0.00    +0.000 HD
ENDBRANCH   9  15
ENDBRANCH   1  14
BRANCH   6  18
ATOM     18  C   UNL     1       0.524   9.382  21.296  0.00  0.00    +0.000 A 
ATOM     19  C   UNL     1       0.646  10.693  20.831  0.00  0.00    +0.000 A 
ATOM     20  C   UNL     1      -0.022  11.744  21.477  0.00  0.00    +0.000 A 
ATOM     21  C   UNL     1      -0.826  11.494  22.589  0.00  0.00    +0.000 A 
ATOM     22  C   UNL     1      -0.916  10.193  23.086  0.00  0.00    +0.000 A 
ATOM     23  C   UNL     1      -0.263   9.142  22.430  0.00  0.00    +0.000 A 
BRANCH  21  24
ATOM     24  O   UNL     1      -1.419  12.591  23.173  0.00  0.00    +0.000 OA
BRANCH  24  25
ATOM     25  C   UNL     1      -2.805  12.661  23.185  0.00  0.00    +0.000 A 
ATOM     26  N   UNL     1      -3.385  12.805  21.980  0.00  0.00    +0.000 NA
ATOM     27  C   UNL     1      -4.730  12.934  21.980  0.00  0.00    +0.000 A 
ATOM     28  C   UNL     1      -5.496  12.917  23.123  0.00  0.00    +0.000 A 
ATOM     29 BR   UNL     1      -7.355  13.171  23.090  0.00  0.00    +0.000 Br
ATOM     30  C   UNL     1      -4.808  12.722  24.296  0.00  0.00    +0.000 A 
ATOM     31  N   UNL     1      -3.468  12.576  24.356  0.00  0.00    +0.000 NA
ENDBRANCH  24  25
ENDBRANCH  21  24
ENDBRANCH   6  18
TORSDOF 5
ENDMDL
MODEL 6
REMARK VINA RESULT:      -7.7      2.182      2.826
REMARK  Name = 
REMARK  5 active torsions:
REMARK  status: ('A' for Active; 'I' for Inactive)
REMARK    1  A    between atoms: N_1  and  C_2
REMARK    2  A    between atoms: C_7  and  C_8
REMARK    3  A    between atoms: N_13  and  C_14
REMARK    4  A    between atoms: C_17  and  O_18
REMARK    5  A    between atoms: O_18  and  C_19
REMARK                            x       y       z     vdW  Elec       q    Type
REMARK                         _______ _______ _______ _____ _____    ______ ____
ROOT
ATOM      1  C   UNL     1       2.301   6.759  19.283  0.00  0.00    +0.000 C 
ATOM      2  O   UNL     1       2.003   6.532  20.455  0.00  0.00    +0.000 OA
ATOM      3  N   UNL     1       2.103   7.985  18.682  0.00  0.00    +0.000 N 
ATOM      4  C   UNL     1       1.470   9.102  19.201  0.00  0.00    +0.000 C 
ATOM      5  O   UNL     1       1.389  10.105  18.497  0.00  0.00    +0.000 OA
ATOM      6  N   UNL     1       0.984   8.959  20.479  0.00  0.00    +0.000 N 
ATOM      7  H   UNL     1       2.397   8.091  17.716  0.00  0.00    +0.000 HD
ATOM      8  H   UNL     1       1.176   8.053  20.905  0.00  0.00    +0.000 HD
ENDROOT
BRANCH   1  14
ATOM      9  C   UNL     1       2.429   4.325  18.455  0.00  0.00    +0.000 A 
ATOM     10  C   UNL     1       3.101   3.393  17.648  0.00  0.00    +0.000 A 
ATOM     11  C   UNL     1       4.163   3.780  16.822  0.00  0.00    +0.000 A 
ATOM     12  C   UNL     1       4.582   5.104  16.806  0.00  0.00    +0.000 A 
ATOM     13  C   UNL     1       3.940   6.037  17.613  0.00  0.00    +0.000 A 
ATOM     14  C   UNL     1       2.872   5.664  18.446  0.00  0.00    +0.000 A 
BRANCH   9  15
ATOM     15  N   UNL     1       1.364   3.872  19.266  0.00  0.00    +0.000 N 
ATOM     16  H   UNL     1       0.838   4.639  19.690  0.00  0.00    +0.000 HD
ATOM     17  H   UNL     1       1.689   3.244  20.002  0.00  0.00    +0.000 HD
ENDBRANCH   9  15
ENDBRANCH   1  14
BRANCH   6  18
ATOM     18  C   UNL     1       0.274   9.889  21.266  0.00  0.00    +0.000 A 
ATOM     19  C   UNL     1      -0.448   9.550  22.412  0.00  0.00    +0.000 A 
ATOM     20  C   UNL     1      -1.115  10.538  23.152  0.00  0.00    +0.000 A 
ATOM     21  C   UNL     1      -1.062  11.875  22.757  0.00  0.00    +0.000 A 
ATOM     22  C   UNL     1      -0.380  12.213  21.588  0.00  0.00    +0.000 A 
ATOM     23  C   UNL     1       0.302  11.229  20.860  0.00  0.00    +0.000 A 
BRANCH  21  24
ATOM     24  O   UNL     1      -1.771  12.768  23.529  0.00  0.00    +0.000 OA
BRANCH  24  25
ATOM     25  C   UNL     1      -3.156  12.739  23.464  0.00  0.00    +0.000 A 
ATOM     26  N   UNL     1      -3.680  12.956  22.244  0.00  0.00    +0.000 NA
ATOM     27  C   UNL     1      -5.029  12.988  22.174  0.00  0.00    +0.000 A 
ATOM     28  C   UNL     1      -5.852  12.808  23.262  0.00  0.00    +0.000 A 
ATOM     29 BR   UNL     1      -7.721  12.932  23.139  0.00  0.00    +0.000 Br
ATOM     30  C   UNL     1      -5.215  12.551  24.452  0.00  0.00    +0.000 A 
ATOM     31  N   UNL     1      -3.873  12.495  24.579  0.00  0.00    +0.000 NA
ENDBRANCH  24  25
ENDBRANCH  21  24
ENDBRANCH   6  18
TORSDOF 5
ENDMDL
MODEL 7
REMARK VINA RESULT:      -7.7      0.264      1.321
REMARK  Name = 
REMARK  5 active torsions:
REMARK  status: ('A' for Active; 'I' for Inactive)
REMARK    1  A    between atoms: N_1  and  C_2
REMARK    2  A    between atoms: C_7  and  C_8
REMARK    3  A    between atoms: N_13  and  C_14
REMARK    4  A    between atoms: C_17  and  O_18
REMARK    5  A    between atoms: O_18  and  C_19
REMARK                            x       y       z     vdW  Elec       q    Type
REMARK                         _______ _______ _______ _____ _____    ______ ____
ROOT
ATOM      1  C   UNL     1       3.525   6.520  18.094  0.00  0.00    +0.000 C 
ATOM      2  O   UNL     1       3.394   6.155  19.262  0.00  0.00    +0.000 OA
ATOM      3  N   UNL     1       3.007   7.706  17.615  0.00  0.00    +0.000 N 
ATOM      4  C   UNL     1       2.195   8.614  18.274  0.00  0.00    +0.000 C 
ATOM      5  O   UNL     1       1.830   9.617  17.665  0.00  0.00    +0.000 OA
ATOM      6  N   UNL     1       1.873   8.281  19.568  0.00  0.00    +0.000 N 
ATOM      7  H   UNL     1       3.180   7.938  16.642  0.00  0.00    +0.000 HD
ATOM      8  H   UNL     1       2.297   7.416  19.900  0.00  0.00    +0.000 HD
ENDROOT
BRANCH   1  14
ATOM      9  C   UNL     1       4.246   4.230  17.166  0.00  0.00    +0.000 A 
ATOM     10  C   UNL     1       5.013   3.537  16.216  0.00  0.00    +0.000 A 
ATOM     11  C   UNL     1       5.732   4.217  15.226  0.00  0.00    +0.000 A 
ATOM     12  C   UNL     1       5.710   5.605  15.184  0.00  0.00    +0.000 A 
ATOM     13  C   UNL     1       4.969   6.309  16.128  0.00  0.00    +0.000 A 
ATOM     14  C   UNL     1       4.242   5.640  17.127  0.00  0.00    +0.000 A 
BRANCH   9  15
ATOM     15  N   UNL     1       3.542   3.485  18.139  0.00  0.00    +0.000 N 
ATOM     16  H   UNL     1       2.544   3.701  18.154  0.00  0.00    +0.000 HD
ATOM     17  H   UNL     1       3.928   3.624  19.074  0.00  0.00    +0.000 HD
ENDBRANCH   9  15
ENDBRANCH   1  14
BRANCH   6  18
ATOM     18  C   UNL     1       1.052   8.973  20.482  0.00  0.00    +0.000 A 
ATOM     19  C   UNL     1       1.095   8.787  21.865  0.00  0.00    +0.000 A 
ATOM     20  C   UNL     1       0.255   9.528  22.711  0.00  0.00    +0.000 A 
ATOM     21  C   UNL     1      -0.631  10.467  22.183  0.00  0.00    +0.000 A 
ATOM     22  C   UNL     1      -0.711  10.624  20.799  0.00  0.00    +0.000 A 
ATOM     23  C   UNL     1       0.140   9.898  19.956  0.00  0.00    +0.000 A 
BRANCH  21  24
ATOM     24  O   UNL     1      -1.434  11.124  23.087  0.00  0.00    +0.000 OA
BRANCH  24  25
ATOM     25  C   UNL     1      -1.587  12.496  22.956  0.00  0.00    +0.000 A 
ATOM     26  N   UNL     1      -2.774  12.899  22.468  0.00  0.00    +0.000 NA
ATOM     27  C   UNL     1      -2.918  14.229  22.279  0.00  0.00    +0.000 A 
ATOM     28  C   UNL     1      -1.935  15.149  22.564  0.00  0.00    +0.000 A 
ATOM     29 BR   UNL     1      -2.145  16.983  22.221  0.00  0.00    +0.000 Br
ATOM     30  C   UNL     1      -0.778  14.636  23.099  0.00  0.00    +0.000 A 
ATOM     31  N   UNL     1      -0.583  13.319  23.320  0.00  0.00    +0.000 NA
ENDBRANCH  24  25
ENDBRANCH  21  24
ENDBRANCH   6  18
TORSDOF 5
ENDMDL
MODEL 8
REMARK VINA RESULT:      -7.7      1.255      2.281
REMARK  Name = 
REMARK  5 active torsions:
REMARK  status: ('A' for Active; 'I' for Inactive)
REMARK    1  A    between atoms: N_1  and  C_2
REMARK    2  A    between atoms: C_7  and  C_8
REMARK    3  A    between atoms: N_13  and  C_14
REMARK    4  A    between atoms: C_17  and  O_18
REMARK    5  A    between atoms: O_18  and  C_19
REMARK                            x       y       z     vdW  Elec       q    Type
REMARK                         _______ _______ _______ _____ _____    ______ ____
ROOT
ATOM      1  C   UNL     1       3.856   6.564  17.876  0.00  0.00    +0.000 C 
ATOM      2  O   UNL     1       3.644   7.748  17.615  0.00  0.00    +0.000 OA
ATOM      3  N   UNL     1       3.212   5.893  18.895  0.00  0.00    +0.000 N 
ATOM      4  C   UNL     1       2.340   6.405  19.841  0.00  0.00    +0.000 C 
ATOM      5  O   UNL     1       1.873   5.637  20.679  0.00  0.00    +0.000 OA
ATOM      6  N   UNL     1       2.090   7.753  19.739  0.00  0.00    +0.000 N 
ATOM      7  H   UNL     1       3.432   4.911  19.028  0.00  0.00    +0.000 HD
ATOM      8  H   UNL     1       2.555   8.211  18.957  0.00  0.00    +0.000 HD
ENDROOT
BRANCH   1  14
ATOM      9  C   UNL     1       6.159   6.291  16.759  0.00  0.00    +0.000 A 
ATOM     10  C   UNL     1       6.990   5.484  15.965  0.00  0.00    +0.000 A 
ATOM     11  C   UNL     1       6.578   4.217  15.535  0.00  0.00    +0.000 A 
ATOM     12  C   UNL     1       5.319   3.744  15.879  0.00  0.00    +0.000 A 
ATOM     13  C   UNL     1       4.474   4.537  16.650  0.00  0.00    +0.000 A 
ATOM     14  C   UNL     1       4.874   5.811  17.089  0.00  0.00    +0.000 A 
BRANCH   9  15
ATOM     15  N   UNL     1       6.632   7.560  17.161  0.00  0.00    +0.000 N 
ATOM     16  H   UNL     1       6.963   8.123  16.376  0.00  0.00    +0.000 HD
ATOM     17  H   UNL     1       7.377   7.484  17.854  0.00  0.00    +0.000 HD
ENDBRANCH   9  15
ENDBRANCH   1  14
BRANCH   6  18
ATOM     18  C   UNL     1       1.282   8.568  20.558  0.00  0.00    +0.000 A 
ATOM     19  C   UNL     1       1.282   8.515  21.953  0.00  0.00    +0.000 A 
ATOM     20  C   UNL     1       0.460   9.373  22.700  0.00  0.00    +0.000 A 
ATOM     21  C   UNL     1      -0.365  10.298  22.058  0.00  0.00    +0.000 A 
ATOM     22  C   UNL     1      -0.403  10.324  20.664  0.00  0.00    +0.000 A 
ATOM     23  C   UNL     1       0.432   9.480  19.920  0.00  0.00    +0.000 A 
BRANCH  21  24
ATOM     24  O   UNL     1      -1.157  11.077  22.872  0.00  0.00    +0.000 OA
BRANCH  24  25
ATOM     25  C   UNL     1      -1.217  12.440  22.622  0.00  0.00    +0.000 A 
ATOM     26  N   UNL     1      -2.423  12.906  22.253  0.00  0.00    +0.000 NA
ATOM     27  C   UNL     1      -2.485  14.221  21.950  0.00  0.00    +0.000 A 
ATOM     28  C   UNL     1      -1.402  15.068  22.010  0.00  0.00    +0.000 A 
ATOM     29 BR   UNL     1      -1.510  16.874  21.512  0.00  0.00    +0.000 Br
ATOM     30  C   UNL     1      -0.227  14.499  22.440  0.00  0.00    +0.000 A 
ATOM     31  N   UNL     1      -0.109  13.196  22.767  0.00  0.00    +0.000 NA
ENDBRANCH  24  25
ENDBRANCH  21  24
ENDBRANCH   6  18
TORSDOF 5
ENDMDL
MODEL 9
REMARK VINA RESULT:      -7.7      2.389      3.011
REMARK  Name = 
REMARK  5 active torsions:
REMARK  status: ('A' for Active; 'I' for Inactive)
REMARK    1  A    between atoms: N_1  and  C_2
REMARK    2  A    between atoms: C_7  and  C_8
REMARK    3  A    between atoms: N_13  and  C_14
REMARK    4  A    between atoms: C_17  and  O_18
REMARK    5  A    between atoms: O_18  and  C_19
REMARK                            x       y       z     vdW  Elec       q    Type
REMARK                         _______ _______ _______ _____ _____    ______ ____
ROOT
ATOM      1  C   UNL     1       2.027   5.675  19.875  0.00  0.00    +0.000 C 
ATOM      2  O   UNL     1       1.495   5.585  20.980  0.00  0.00    +0.000 OA
ATOM      3  N   UNL     1       2.197   6.877  19.219  0.00  0.00    +0.000 N 
ATOM      4  C   UNL     1       1.736   8.129  19.591  0.00  0.00    +0.000 C 
ATOM      5  O   UNL     1       1.989   9.083  18.860  0.00  0.00    +0.000 OA
ATOM      6  N   UNL     1       1.023   8.165  20.765  0.00  0.00    +0.000 N 
ATOM      7  H   UNL     1       2.665   6.862  18.318  0.00  0.00    +0.000 HD
ATOM      8  H   UNL     1       0.944   7.267  21.240  0.00  0.00    +0.000 HD
ENDROOT
BRANCH   1  14
ATOM      9  C   UNL     1       1.878   3.170  19.297  0.00  0.00    +0.000 A 
ATOM     10  C   UNL     1       2.457   2.086  18.619  0.00  0.00    +0.000 A 
ATOM     11  C   UNL     1       3.589   2.253  17.813  0.00  0.00    +0.000 A 
ATOM     12  C   UNL     1       4.171   3.508  17.686  0.00  0.00    +0.000 A 
ATOM     13  C   UNL     1       3.622   4.591  18.365  0.00  0.00    +0.000 A 
ATOM     14  C   UNL     1       2.486   4.438  19.179  0.00  0.00    +0.000 A 
BRANCH   9  15
ATOM     15  N   UNL     1       0.736   2.937  20.096  0.00  0.00    +0.000 N 
ATOM     16  H   UNL     1       0.973   2.705  21.062  0.00  0.00    +0.000 HD
ATOM     17  H   UNL     1       0.149   2.197  19.710  0.00  0.00    +0.000 HD
ENDBRANCH   9  15
ENDBRANCH   1  14
BRANCH   6  18
ATOM     18  C   UNL     1       0.404   9.266  21.391  0.00  0.00    +0.000 A 
ATOM     19  C   UNL     1      -0.318   9.181  22.583  0.00  0.00    +0.000 A 
ATOM     20  C   UNL     1      -0.892  10.328  23.153  0.00  0.00    +0.000 A 
ATOM     21  C   UNL     1      -0.743  11.573  22.542  0.00  0.00    +0.000 A 
ATOM     22  C   UNL     1      -0.061  11.656  21.327  0.00  0.00    +0.000 A 
ATOM     23  C   UNL     1       0.527  10.515  20.768  0.00  0.00    +0.000 A 
BRANCH  21  24
ATOM     24  O   UNL     1      -1.364  12.635  23.159  0.00  0.00    +0.000 OA
BRANCH  24  25
ATOM     25  C   UNL     1      -2.745  12.736  23.062  0.00  0.00    +0.000 A 
ATOM     26  N   UNL     1      -3.402  12.787  24.234  0.00  0.00    +0.000 NA
ATOM     27  C   UNL     1      -4.750  12.827  24.158  0.00  0.00    +0.000 A 
ATOM     28  C   UNL     1      -5.446  12.825  22.970  0.00  0.00    +0.000 A 
ATOM     29 BR   UNL     1      -7.321  12.810  22.905  0.00  0.00    +0.000 Br
ATOM     30  C   UNL     1      -4.677  12.816  21.832  0.00  0.00    +0.000 A 
ATOM     31  N   UNL     1      -3.328  12.787  21.847  0.00  0.00    +0.000 NA
ENDBRANCH  24  25
ENDBRANCH  21  24
ENDBRANCH   6  18
TORSDOF 5
ENDMDL
