MODEL 1
REMARK VINA RESULT:      -8.1      0.000      0.000
REMARK  Name = 
REMARK  8 active torsions:
REMARK  status: ('A' for Active; 'I' for Inactive)
REMARK    1  A    between atoms: C_8  and  S_9
REMARK    2  A    between atoms: S_9  and  N_12
REMARK    3  A    between atoms: N_12  and  C_13
REMARK    4  A    between atoms: C_13  and  C_14
REMARK    5  A    between atoms: C_14  and  C_15
REMARK    6  A    between atoms: C_15  and  N_16
REMARK    7  A    between atoms: N_19  and  C_20
REMARK    8  A    between atoms: C_20  and  C_21
REMARK                            x       y       z     vdW  Elec       q    Type
REMARK                         _______ _______ _______ _____ _____    ______ ____
ROOT
ATOM      1  N   UNL     1       9.420   9.917  19.066  0.00  0.00    +0.000 NA
ATOM      2  H   UNL     1       9.347   9.675  20.052  0.00  0.00    +0.000 HD
ENDROOT
BRANCH   1   3
ATOM      3  S   UNL     1       9.957  11.491  18.822  0.00  0.00    +0.000 S 
ATOM      4  O   UNL     1       9.144  12.106  17.793  0.00  0.00    +0.000 OA
ATOM      5  O   UNL     1      11.399  11.445  18.735  0.00  0.00    +0.000 OA
BRANCH   3  13
ATOM      6  O   UNL     1       7.191  11.433  25.727  0.00  0.00    +0.000 OA
ATOM      7  C   UNL     1       7.792  12.037  24.842  0.00  0.00    +0.000 C 
ATOM      8  C   UNL     1       8.404  13.422  25.042  0.00  0.00    +0.000 C 
ATOM      9  O   UNL     1       8.700  14.226  23.910  0.00  0.00    +0.000 OA
ATOM     10  C   UNL     1       8.987  13.521  22.776  0.00  0.00    +0.000 A 
ATOM     11  C   UNL     1       9.571  14.245  21.738  0.00  0.00    +0.000 A 
ATOM     12  C   UNL     1       9.861  13.615  20.531  0.00  0.00    +0.000 A 
ATOM     13  C   UNL     1       9.561  12.257  20.372  0.00  0.00    +0.000 A 
ATOM     14  C   UNL     1       8.956  11.523  21.397  0.00  0.00    +0.000 A 
ATOM     15  C   UNL     1       8.670  12.167  22.601  0.00  0.00    +0.000 A 
ATOM     16  N   UNL     1       8.034  11.465  23.624  0.00  0.00    +0.000 N 
ATOM     17  H   UNL     1       7.700  10.519  23.488  0.00  0.00    +0.000 HD
ENDBRANCH   3  13
ENDBRANCH   1   3
BRANCH   1  18
ATOM     18  C   UNL     1       8.377   9.408  18.166  0.00  0.00    +0.000 C 
BRANCH  18  19
ATOM     19  C   UNL     1       8.189   7.908  18.398  0.00  0.00    +0.000 C 
BRANCH  19  20
ATOM     20  C   UNL     1       7.553   7.224  17.176  0.00  0.00    +0.000 C 
BRANCH  20  21
ATOM     21  N   UNL     1       6.766   6.070  17.582  0.00  0.00    +0.000 NA
ATOM     22  C   UNL     1       5.353   6.361  17.852  0.00  0.00    +0.000 C 
ATOM     23  C   UNL     1       4.333   5.610  16.979  0.00  0.00    +0.000 C 
ATOM     24  N   UNL     1       4.608   4.165  16.868  0.00  0.00    +0.000 NA
ATOM     25  C   UNL     1       5.929   4.045  16.223  0.00  0.00    +0.000 C 
ATOM     26  C   UNL     1       7.086   4.796  16.927  0.00  0.00    +0.000 C 
BRANCH  24  27
ATOM     27  C   UNL     1       4.573   3.563  18.220  0.00  0.00    +0.000 C 
BRANCH  27  28
ATOM     28  C   UNL     1       3.205   3.464  18.839  0.00  0.00    +0.000 A 
ATOM     29  C   UNL     1       2.212   2.692  18.214  0.00  0.00    +0.000 A 
ATOM     30  C   UNL     1       0.962   2.537  18.806  0.00  0.00    +0.000 A 
ATOM     31  C   UNL     1       0.695   3.151  20.027  0.00  0.00    +0.000 A 
ATOM     32  C   UNL     1       1.675   3.922  20.655  0.00  0.00    +0.000 A 
ATOM     33  C   UNL     1       2.927   4.079  20.063  0.00  0.00    +0.000 A 
ENDBRANCH  27  28
ENDBRANCH  24  27
ENDBRANCH  20  21
ENDBRANCH  19  20
ENDBRANCH  18  19
ENDBRANCH   1  18
TORSDOF 8
ENDMDL
MODEL 2
REMARK VINA RESULT:      -8.1      2.684      3.701
REMARK  Name = 
REMARK  8 active torsions:
REMARK  status: ('A' for Active; 'I' for Inactive)
REMARK    1  A    between atoms: C_8  and  S_9
REMARK    2  A    between atoms: S_9  and  N_12
REMARK    3  A    between atoms: N_12  and  C_13
REMARK    4  A    between atoms: C_13  and  C_14
REMARK    5  A    between atoms: C_14  and  C_15
REMARK    6  A    between atoms: C_15  and  N_16
REMARK    7  A    between atoms: N_19  and  C_20
REMARK    8  A    between atoms: C_20  and  C_21
REMARK                            x       y       z     vdW  Elec       q    Type
REMARK                         _______ _______ _______ _____ _____    ______ ____
ROOT
ATOM      1  N   UNL     1       8.797  10.714  18.584  0.00  0.00    +0.000 NA
ATOM      2  H   UNL     1       8.553  11.199  17.724  0.00  0.00    +0.000 HD
ENDROOT
BRANCH   1   3
ATOM      3  S   UNL     1      10.046  11.466  19.421  0.00  0.00    +0.000 S 
ATOM      4  O   UNL     1      11.308  11.037  18.857  0.00  0.00    +0.000 OA
ATOM      5  O   UNL     1       9.754  11.340  20.831  0.00  0.00    +0.000 OA
BRANCH   3  13
ATOM      6  O   UNL     1       5.877  17.589  18.742  0.00  0.00    +0.000 OA
ATOM      7  C   UNL     1       6.985  17.060  18.678  0.00  0.00    +0.000 C 
ATOM      8  C   UNL     1       8.268  17.840  18.401  0.00  0.00    +0.000 C 
ATOM      9  O   UNL     1       9.416  17.151  17.928  0.00  0.00    +0.000 OA
ATOM     10  C   UNL     1       9.493  15.845  18.322  0.00  0.00    +0.000 A 
ATOM     11  C   UNL     1      10.728  15.225  18.143  0.00  0.00    +0.000 A 
ATOM     12  C   UNL     1      10.886  13.884  18.479  0.00  0.00    +0.000 A 
ATOM     13  C   UNL     1       9.798  13.169  18.995  0.00  0.00    +0.000 A 
ATOM     14  C   UNL     1       8.548  13.773  19.161  0.00  0.00    +0.000 A 
ATOM     15  C   UNL     1       8.404  15.117  18.818  0.00  0.00    +0.000 A 
ATOM     16  N   UNL     1       7.158  15.730  18.941  0.00  0.00    +0.000 N 
ATOM     17  H   UNL     1       6.332  15.203  19.197  0.00  0.00    +0.000 HD
ENDBRANCH   3  13
ENDBRANCH   1   3
BRANCH   1  18
ATOM     18  C   UNL     1       8.783   9.245  18.559  0.00  0.00    +0.000 C 
BRANCH  18  19
ATOM     19  C   UNL     1       7.677   8.760  17.620  0.00  0.00    +0.000 C 
BRANCH  19  20
ATOM     20  C   UNL     1       7.678   7.227  17.493  0.00  0.00    +0.000 C 
BRANCH  20  21
ATOM     21  N   UNL     1       6.332   6.696  17.641  0.00  0.00    +0.000 NA
ATOM     22  C   UNL     1       5.618   6.488  16.376  0.00  0.00    +0.000 C 
ATOM     23  C   UNL     1       5.178   5.044  16.081  0.00  0.00    +0.000 C 
ATOM     24  N   UNL     1       4.518   4.388  17.226  0.00  0.00    +0.000 NA
ATOM     25  C   UNL     1       5.518   4.343  18.310  0.00  0.00    +0.000 C 
ATOM     26  C   UNL     1       6.131   5.708  18.707  0.00  0.00    +0.000 C 
BRANCH  24  27
ATOM     27  C   UNL     1       3.310   5.160  17.593  0.00  0.00    +0.000 C 
BRANCH  27  28
ATOM     28  C   UNL     1       2.386   4.476  18.566  0.00  0.00    +0.000 A 
ATOM     29  C   UNL     1       1.705   3.312  18.177  0.00  0.00    +0.000 A 
ATOM     30  C   UNL     1       0.898   2.631  19.084  0.00  0.00    +0.000 A 
ATOM     31  C   UNL     1       0.767   3.108  20.386  0.00  0.00    +0.000 A 
ATOM     32  C   UNL     1       1.438   4.267  20.781  0.00  0.00    +0.000 A 
ATOM     33  C   UNL     1       2.246   4.950  19.873  0.00  0.00    +0.000 A 
ENDBRANCH  27  28
ENDBRANCH  24  27
ENDBRANCH  20  21
ENDBRANCH  19  20
ENDBRANCH  18  19
ENDBRANCH   1  18
TORSDOF 8
ENDMDL
MODEL 3
REMARK VINA RESULT:      -7.9      2.646      3.391
REMARK  Name = 
REMARK  8 active torsions:
REMARK  status: ('A' for Active; 'I' for Inactive)
REMARK    1  A    between atoms: C_8  and  S_9
REMARK    2  A    between atoms: S_9  and  N_12
REMARK    3  A    between atoms: N_12  and  C_13
REMARK    4  A    between atoms: C_13  and  C_14
REMARK    5  A    between atoms: C_14  and  C_15
REMARK    6  A    between atoms: C_15  and  N_16
REMARK    7  A    between atoms: N_19  and  C_20
REMARK    8  A    between atoms: C_20  and  C_21
REMARK                            x       y       z     vdW  Elec       q    Type
REMARK                         _______ _______ _______ _____ _____    ______ ____
ROOT
ATOM      1  N   UNL     1       9.233  10.500  18.038  0.00  0.00    +0.000 NA
ATOM      2  H   UNL     1       9.583  10.417  17.087  0.00  0.00    +0.000 HD
ENDROOT
BRANCH   1   3
ATOM      3  S   UNL     1      10.138  11.566  18.972  0.00  0.00    +0.000 S 
ATOM      4  O   UNL     1      11.401  11.809  18.308  0.00  0.00    +0.000 OA
ATOM      5  O   UNL     1      10.066  11.105  20.340  0.00  0.00    +0.000 OA
BRANCH   3  13
ATOM      6  O   UNL     1       8.077  18.301  21.367  0.00  0.00    +0.000 OA
ATOM      7  C   UNL     1       7.995  17.419  20.515  0.00  0.00    +0.000 C 
ATOM      8  C   UNL     1       7.201  17.578  19.220  0.00  0.00    +0.000 C 
ATOM      9  O   UNL     1       6.800  16.423  18.499  0.00  0.00    +0.000 OA
ATOM     10  C   UNL     1       7.627  15.345  18.654  0.00  0.00    +0.000 A 
ATOM     11  C   UNL     1       7.449  14.304  17.745  0.00  0.00    +0.000 A 
ATOM     12  C   UNL     1       8.220  13.151  17.853  0.00  0.00    +0.000 A 
ATOM     13  C   UNL     1       9.168  13.048  18.878  0.00  0.00    +0.000 A 
ATOM     14  C   UNL     1       9.343  14.076  19.809  0.00  0.00    +0.000 A 
ATOM     15  C   UNL     1       8.562  15.226  19.690  0.00  0.00    +0.000 A 
ATOM     16  N   UNL     1       8.693  16.248  20.629  0.00  0.00    +0.000 N 
ATOM     17  H   UNL     1       9.284  16.145  21.444  0.00  0.00    +0.000 HD
ENDBRANCH   3  13
ENDBRANCH   1   3
BRANCH   1  18
ATOM     18  C   UNL     1       8.740   9.278  18.687  0.00  0.00    +0.000 C 
BRANCH  18  19
ATOM     19  C   UNL     1       7.927   8.458  17.684  0.00  0.00    +0.000 C 
BRANCH  19  20
ATOM     20  C   UNL     1       7.808   6.989  18.122  0.00  0.00    +0.000 C 
BRANCH  20  21
ATOM     21  N   UNL     1       6.420   6.556  18.106  0.00  0.00    +0.000 NA
ATOM     22  C   UNL     1       5.751   6.703  16.808  0.00  0.00    +0.000 C 
ATOM     23  C   UNL     1       5.215   5.406  16.177  0.00  0.00    +0.000 C 
ATOM     24  N   UNL     1       4.454   4.567  17.121  0.00  0.00    +0.000 NA
ATOM     25  C   UNL     1       5.395   4.191  18.192  0.00  0.00    +0.000 C 
ATOM     26  C   UNL     1       6.093   5.372  18.910  0.00  0.00    +0.000 C 
BRANCH  24  27
ATOM     27  C   UNL     1       3.293   5.336  17.622  0.00  0.00    +0.000 C 
BRANCH  27  28
ATOM     28  C   UNL     1       2.363   4.573  18.528  0.00  0.00    +0.000 A 
ATOM     29  C   UNL     1       1.719   3.421  18.051  0.00  0.00    +0.000 A 
ATOM     30  C   UNL     1       0.907   2.667  18.894  0.00  0.00    +0.000 A 
ATOM     31  C   UNL     1       0.735   3.058  20.220  0.00  0.00    +0.000 A 
ATOM     32  C   UNL     1       1.371   4.204  20.702  0.00  0.00    +0.000 A 
ATOM     33  C   UNL     1       2.183   4.960  19.859  0.00  0.00    +0.000 A 
ENDBRANCH  27  28
ENDBRANCH  24  27
ENDBRANCH  20  21
ENDBRANCH  19  20
ENDBRANCH  18  19
ENDBRANCH   1  18
TORSDOF 8
ENDMDL
MODEL 4
REMARK VINA RESULT:      -7.8      4.454     10.997
REMARK  Name = 
REMARK  8 active torsions:
REMARK  status: ('A' for Active; 'I' for Inactive)
REMARK    1  A    between atoms: C_8  and  S_9
REMARK    2  A    between atoms: S_9  and  N_12
REMARK    3  A    between atoms: N_12  and  C_13
REMARK    4  A    between atoms: C_13  and  C_14
REMARK    5  A    between atoms: C_14  and  C_15
REMARK    6  A    between atoms: C_15  and  N_16
REMARK    7  A    between atoms: N_19  and  C_20
REMARK    8  A    between atoms: C_20  and  C_21
REMARK                            x       y       z     vdW  Elec       q    Type
REMARK                         _______ _______ _______ _____ _____    ______ ____
ROOT
ATOM      1  N   UNL     1       7.314   6.531  16.664  0.00  0.00    +0.000 NA
ATOM      2  H   UNL     1       6.680   7.075  16.084  0.00  0.00    +0.000 HD
ENDROOT
BRANCH   1   3
ATOM      3  S   UNL     1       7.012   4.879  16.585  0.00  0.00    +0.000 S 
ATOM      4  O   UNL     1       8.109   4.175  17.215  0.00  0.00    +0.000 OA
ATOM      5  O   UNL     1       6.585   4.585  15.236  0.00  0.00    +0.000 OA
BRANCH   3  13
ATOM      6  O   UNL     1       0.285   2.162  18.226  0.00  0.00    +0.000 OA
ATOM      7  C   UNL     1       1.262   2.823  18.569  0.00  0.00    +0.000 C 
ATOM      8  C   UNL     1       1.421   3.418  19.966  0.00  0.00    +0.000 C 
ATOM      9  O   UNL     1       2.328   4.491  20.171  0.00  0.00    +0.000 OA
ATOM     10  C   UNL     1       3.387   4.507  19.307  0.00  0.00    +0.000 A 
ATOM     11  C   UNL     1       4.445   5.345  19.655  0.00  0.00    +0.000 A 
ATOM     12  C   UNL     1       5.548   5.455  18.813  0.00  0.00    +0.000 A 
ATOM     13  C   UNL     1       5.583   4.719  17.623  0.00  0.00    +0.000 A 
ATOM     14  C   UNL     1       4.520   3.890  17.251  0.00  0.00    +0.000 A 
ATOM     15  C   UNL     1       3.420   3.792  18.104  0.00  0.00    +0.000 A 
ATOM     16  N   UNL     1       2.333   3.000  17.737  0.00  0.00    +0.000 N 
ATOM     17  H   UNL     1       2.285   2.556  16.828  0.00  0.00    +0.000 HD
ENDBRANCH   3  13
ENDBRANCH   1   3
BRANCH   1  18
ATOM     18  C   UNL     1       7.685   7.092  17.970  0.00  0.00    +0.000 C 
BRANCH  18  19
ATOM     19  C   UNL     1       8.163   8.534  17.790  0.00  0.00    +0.000 C 
BRANCH  19  20
ATOM     20  C   UNL     1       8.878   9.052  19.050  0.00  0.00    +0.000 C 
BRANCH  20  21
ATOM     21  N   UNL     1       9.052  10.494  18.989  0.00  0.00    +0.000 NA
ATOM     22  C   UNL     1       9.379  11.123  20.274  0.00  0.00    +0.000 C 
ATOM     23  C   UNL     1      10.719  11.876  20.333  0.00  0.00    +0.000 C 
ATOM     24  N   UNL     1      10.937  12.775  19.183  0.00  0.00    +0.000 NA
ATOM     25  C   UNL     1      10.953  11.917  17.984  0.00  0.00    +0.000 C 
ATOM     26  C   UNL     1       9.703  11.025  17.785  0.00  0.00    +0.000 C 
BRANCH  24  27
ATOM     27  C   UNL     1       9.855  13.785  19.151  0.00  0.00    +0.000 C 
BRANCH  27  28
ATOM     28  C   UNL     1      10.290  15.174  18.768  0.00  0.00    +0.000 A 
ATOM     29  C   UNL     1      10.883  15.397  17.515  0.00  0.00    +0.000 A 
ATOM     30  C   UNL     1      11.233  16.685  17.119  0.00  0.00    +0.000 A 
ATOM     31  C   UNL     1      10.991  17.760  17.972  0.00  0.00    +0.000 A 
ATOM     32  C   UNL     1      10.404  17.547  19.221  0.00  0.00    +0.000 A 
ATOM     33  C   UNL     1      10.054  16.258  19.619  0.00  0.00    +0.000 A 
ENDBRANCH  27  28
ENDBRANCH  24  27
ENDBRANCH  20  21
ENDBRANCH  19  20
ENDBRANCH  18  19
ENDBRANCH   1  18
TORSDOF 8
ENDMDL
MODEL 5
REMARK VINA RESULT:      -7.8      3.047      3.722
REMARK  Name = 
REMARK  8 active torsions:
REMARK  status: ('A' for Active; 'I' for Inactive)
REMARK    1  A    between atoms: C_8  and  S_9
REMARK    2  A    between atoms: S_9  and  N_12
REMARK    3  A    between atoms: N_12  and  C_13
REMARK    4  A    between atoms: C_13  and  C_14
REMARK    5  A    between atoms: C_14  and  C_15
REMARK    6  A    between atoms: C_15  and  N_16
REMARK    7  A    between atoms: N_19  and  C_20
REMARK    8  A    between atoms: C_20  and  C_21
REMARK                            x       y       z     vdW  Elec       q    Type
REMARK                         _______ _______ _______ _____ _____    ______ ____
ROOT
ATOM      1  N   UNL     1       9.685  11.163  19.328  0.00  0.00    +0.000 NA
ATOM      2  H   UNL     1       9.120  11.725  19.960  0.00  0.00    +0.000 HD
ENDROOT
BRANCH   1   3
ATOM      3  S   UNL     1      11.185  11.855  19.011  0.00  0.00    +0.000 S 
ATOM      4  O   UNL     1      11.588  11.496  17.668  0.00  0.00    +0.000 OA
ATOM      5  O   UNL     1      12.026  11.600  20.159  0.00  0.00    +0.000 OA
BRANCH   3  13
ATOM      6  O   UNL     1       6.463  17.598  18.768  0.00  0.00    +0.000 OA
ATOM      7  C   UNL     1       7.611  17.188  18.924  0.00  0.00    +0.000 C 
ATOM      8  C   UNL     1       8.776  18.094  19.319  0.00  0.00    +0.000 C 
ATOM      9  O   UNL     1      10.108  17.667  19.076  0.00  0.00    +0.000 OA
ATOM     10  C   UNL     1      10.276  16.311  19.084  0.00  0.00    +0.000 A 
ATOM     11  C   UNL     1      11.593  15.861  19.153  0.00  0.00    +0.000 A 
ATOM     12  C   UNL     1      11.861  14.495  19.126  0.00  0.00    +0.000 A 
ATOM     13  C   UNL     1      10.800  13.586  19.030  0.00  0.00    +0.000 A 
ATOM     14  C   UNL     1       9.476  14.024  18.940  0.00  0.00    +0.000 A 
ATOM     15  C   UNL     1       9.222  15.396  18.965  0.00  0.00    +0.000 A 
ATOM     16  N   UNL     1       7.913  15.858  18.840  0.00  0.00    +0.000 N 
ATOM     17  H   UNL     1       7.145  15.225  18.649  0.00  0.00    +0.000 HD
ENDBRANCH   3  13
ENDBRANCH   1   3
BRANCH   1  18
ATOM     18  C   UNL     1       8.996  10.496  18.215  0.00  0.00    +0.000 C 
BRANCH  18  19
ATOM     19  C   UNL     1       8.658   9.058  18.612  0.00  0.00    +0.000 C 
BRANCH  19  20
ATOM     20  C   UNL     1       7.893   8.331  17.493  0.00  0.00    +0.000 C 
BRANCH  20  21
ATOM     21  N   UNL     1       7.102   7.237  18.035  0.00  0.00    +0.000 NA
ATOM     22  C   UNL     1       5.840   6.990  17.329  0.00  0.00    +0.000 C 
ATOM     23  C   UNL     1       5.682   5.592  16.705  0.00  0.00    +0.000 C 
ATOM     24  N   UNL     1       6.049   4.497  17.623  0.00  0.00    +0.000 NA
ATOM     25  C   UNL     1       7.475   4.688  17.946  0.00  0.00    +0.000 C 
ATOM     26  C   UNL     1       7.846   6.073  18.530  0.00  0.00    +0.000 C 
BRANCH  24  27
ATOM     27  C   UNL     1       5.177   4.557  18.818  0.00  0.00    +0.000 C 
BRANCH  27  28
ATOM     28  C   UNL     1       3.857   3.847  18.682  0.00  0.00    +0.000 A 
ATOM     29  C   UNL     1       2.691   4.589  18.435  0.00  0.00    +0.000 A 
ATOM     30  C   UNL     1       1.472   3.945  18.242  0.00  0.00    +0.000 A 
ATOM     31  C   UNL     1       1.410   2.555  18.294  0.00  0.00    +0.000 A 
ATOM     32  C   UNL     1       2.564   1.809  18.541  0.00  0.00    +0.000 A 
ATOM     33  C   UNL     1       3.785   2.453  18.735  0.00  0.00    +0.000 A 
ENDBRANCH  27  28
ENDBRANCH  24  27
ENDBRANCH  20  21
ENDBRANCH  19  20
ENDBRANCH  18  19
ENDBRANCH   1  18
TORSDOF 8
ENDMDL
MODEL 6
REMARK VINA RESULT:      -7.7      2.267      3.421
REMARK  Name = 
REMARK  8 active torsions:
REMARK  status: ('A' for Active; 'I' for Inactive)
REMARK    1  A    between atoms: C_8  and  S_9
REMARK    2  A    between atoms: S_9  and  N_12
REMARK    3  A    between atoms: N_12  and  C_13
REMARK    4  A    between atoms: C_13  and  C_14
REMARK    5  A    between atoms: C_14  and  C_15
REMARK    6  A    between atoms: C_15  and  N_16
REMARK    7  A    between atoms: N_19  and  C_20
REMARK    8  A    between atoms: C_20  and  C_21
REMARK                            x       y       z     vdW  Elec       q    Type
REMARK                         _______ _______ _______ _____ _____    ______ ____
ROOT
ATOM      1  N   UNL     1       9.076  10.275  19.277  0.00  0.00    +0.000 NA
ATOM      2  H   UNL     1       8.419  10.545  20.005  0.00  0.00    +0.000 HD
ENDROOT
BRANCH   1   3
ATOM      3  S   UNL     1      10.300  11.406  19.055  0.00  0.00    +0.000 S 
ATOM      4  O   UNL     1      10.593  11.504  17.640  0.00  0.00    +0.000 OA
ATOM      5  O   UNL     1      11.326  11.125  20.033  0.00  0.00    +0.000 OA
BRANCH   3  13
ATOM      6  O   UNL     1       8.361  18.524  18.101  0.00  0.00    +0.000 OA
ATOM      7  C   UNL     1       8.277  17.493  18.764  0.00  0.00    +0.000 C 
ATOM      8  C   UNL     1       7.355  17.349  19.973  0.00  0.00    +0.000 C 
ATOM      9  O   UNL     1       7.604  16.324  20.924  0.00  0.00    +0.000 OA
ATOM     10  C   UNL     1       8.223  15.218  20.413  0.00  0.00    +0.000 A 
ATOM     11  C   UNL     1       8.213  14.085  21.224  0.00  0.00    +0.000 A 
ATOM     12  C   UNL     1       8.855  12.925  20.800  0.00  0.00    +0.000 A 
ATOM     13  C   UNL     1       9.505  12.909  19.561  0.00  0.00    +0.000 A 
ATOM     14  C   UNL     1       9.540  14.044  18.746  0.00  0.00    +0.000 A 
ATOM     15  C   UNL     1       8.895  15.201  19.184  0.00  0.00    +0.000 A 
ATOM     16  N   UNL     1       8.948  16.357  18.406  0.00  0.00    +0.000 N 
ATOM     17  H   UNL     1       9.512  16.403  17.566  0.00  0.00    +0.000 HD
ENDBRANCH   3  13
ENDBRANCH   1   3
BRANCH   1  18
ATOM     18  C   UNL     1       8.528   9.624  18.080  0.00  0.00    +0.000 C 
BRANCH  18  19
ATOM     19  C   UNL     1       8.243   8.152  18.384  0.00  0.00    +0.000 C 
BRANCH  19  20
ATOM     20  C   UNL     1       7.552   7.456  17.199  0.00  0.00    +0.000 C 
BRANCH  20  21
ATOM     21  N   UNL     1       6.807   6.291  17.648  0.00  0.00    +0.000 NA
ATOM     22  C   UNL     1       5.373   6.527  17.853  0.00  0.00    +0.000 C 
ATOM     23  C   UNL     1       4.421   5.676  16.995  0.00  0.00    +0.000 C 
ATOM     24  N   UNL     1       4.769   4.242  16.982  0.00  0.00    +0.000 NA
ATOM     25  C   UNL     1       6.117   4.149  16.389  0.00  0.00    +0.000 C 
ATOM     26  C   UNL     1       7.210   4.997  17.084  0.00  0.00    +0.000 C 
BRANCH  24  27
ATOM     27  C   UNL     1       4.714   3.721  18.366  0.00  0.00    +0.000 C 
BRANCH  27  28
ATOM     28  C   UNL     1       3.328   3.475  18.901  0.00  0.00    +0.000 A 
ATOM     29  C   UNL     1       2.929   4.081  20.102  0.00  0.00    +0.000 A 
ATOM     30  C   UNL     1       1.631   3.917  20.579  0.00  0.00    +0.000 A 
ATOM     31  C   UNL     1       0.723   3.147  19.856  0.00  0.00    +0.000 A 
ATOM     32  C   UNL     1       1.112   2.538  18.661  0.00  0.00    +0.000 A 
ATOM     33  C   UNL     1       2.411   2.701  18.184  0.00  0.00    +0.000 A 
ENDBRANCH  27  28
ENDBRANCH  24  27
ENDBRANCH  20  21
ENDBRANCH  19  20
ENDBRANCH  18  19
ENDBRANCH   1  18
TORSDOF 8
ENDMDL
MODEL 7
REMARK VINA RESULT:      -7.7      4.183     10.748
REMARK  Name = 
REMARK  8 active torsions:
REMARK  status: ('A' for Active; 'I' for Inactive)
REMARK    1  A    between atoms: C_8  and  S_9
REMARK    2  A    between atoms: S_9  and  N_12
REMARK    3  A    between atoms: N_12  and  C_13
REMARK    4  A    between atoms: C_13  and  C_14
REMARK    5  A    between atoms: C_14  and  C_15
REMARK    6  A    between atoms: C_15  and  N_16
REMARK    7  A    between atoms: N_19  and  C_20
REMARK    8  A    between atoms: C_20  and  C_21
REMARK                            x       y       z     vdW  Elec       q    Type
REMARK                         _______ _______ _______ _____ _____    ______ ____
ROOT
ATOM      1  N   UNL     1       7.633   6.545  17.988  0.00  0.00    +0.000 NA
ATOM      2  H   UNL     1       8.586   6.700  18.309  0.00  0.00    +0.000 HD
ENDROOT
BRANCH   1   3
ATOM      3  S   UNL     1       7.422   5.029  17.293  0.00  0.00    +0.000 S 
ATOM      4  O   UNL     1       8.278   4.081  17.973  0.00  0.00    +0.000 OA
ATOM      5  O   UNL     1       7.459   5.205  15.858  0.00  0.00    +0.000 OA
BRANCH   3  13
ATOM      6  O   UNL     1       2.071   3.117  22.094  0.00  0.00    +0.000 OA
ATOM      7  C   UNL     1       2.386   3.482  20.964  0.00  0.00    +0.000 C 
ATOM      8  C   UNL     1       1.365   3.824  19.881  0.00  0.00    +0.000 C 
ATOM      9  O   UNL     1       1.765   3.825  18.519  0.00  0.00    +0.000 OA
ATOM     10  C   UNL     1       3.084   4.119  18.317  0.00  0.00    +0.000 A 
ATOM     11  C   UNL     1       3.447   4.428  17.008  0.00  0.00    +0.000 A 
ATOM     12  C   UNL     1       4.778   4.701  16.704  0.00  0.00    +0.000 A 
ATOM     13  C   UNL     1       5.740   4.663  17.721  0.00  0.00    +0.000 A 
ATOM     14  C   UNL     1       5.393   4.335  19.035  0.00  0.00    +0.000 A 
ATOM     15  C   UNL     1       4.055   4.061  19.325  0.00  0.00    +0.000 A 
ATOM     16  N   UNL     1       3.692   3.696  20.620  0.00  0.00    +0.000 N 
ATOM     17  H   UNL     1       4.386   3.545  21.342  0.00  0.00    +0.000 HD
ENDBRANCH   3  13
ENDBRANCH   1   3
BRANCH   1  18
ATOM     18  C   UNL     1       6.935   7.680  17.368  0.00  0.00    +0.000 C 
BRANCH  18  19
ATOM     19  C   UNL     1       7.761   8.953  17.558  0.00  0.00    +0.000 C 
BRANCH  19  20
ATOM     20  C   UNL     1       8.640   8.872  18.818  0.00  0.00    +0.000 C 
BRANCH  20  21
ATOM     21  N   UNL     1       9.395  10.101  19.001  0.00  0.00    +0.000 NA
ATOM     22  C   UNL     1       9.192  11.103  17.948  0.00  0.00    +0.000 C 
ATOM     23  C   UNL     1       8.621  12.456  18.407  0.00  0.00    +0.000 C 
ATOM     24  N   UNL     1       9.300  13.004  19.596  0.00  0.00    +0.000 NA
ATOM     25  C   UNL     1       9.084  12.031  20.683  0.00  0.00    +0.000 C 
ATOM     26  C   UNL     1       9.540  10.582  20.380  0.00  0.00    +0.000 C 
BRANCH  24  27
ATOM     27  C   UNL     1      10.733  13.205  19.283  0.00  0.00    +0.000 C 
BRANCH  27  28
ATOM     28  C   UNL     1      11.078  14.549  18.701  0.00  0.00    +0.000 A 
ATOM     29  C   UNL     1      10.550  15.714  19.280  0.00  0.00    +0.000 A 
ATOM     30  C   UNL     1      10.908  16.969  18.795  0.00  0.00    +0.000 A 
ATOM     31  C   UNL     1      11.799  17.068  17.728  0.00  0.00    +0.000 A 
ATOM     32  C   UNL     1      12.327  15.915  17.144  0.00  0.00    +0.000 A 
ATOM     33  C   UNL     1      11.968  14.659  17.629  0.00  0.00    +0.000 A 
ENDBRANCH  27  28
ENDBRANCH  24  27
ENDBRANCH  20  21
ENDBRANCH  19  20
ENDBRANCH  18  19
ENDBRANCH   1  18
TORSDOF 8
ENDMDL
MODEL 8
REMARK VINA RESULT:      -7.6      2.676      3.408
REMARK  Name = 
REMARK  8 active torsions:
REMARK  status: ('A' for Active; 'I' for Inactive)
REMARK    1  A    between atoms: C_8  and  S_9
REMARK    2  A    between atoms: S_9  and  N_12
REMARK    3  A    between atoms: N_12  and  C_13
REMARK    4  A    between atoms: C_13  and  C_14
REMARK    5  A    between atoms: C_14  and  C_15
REMARK    6  A    between atoms: C_15  and  N_16
REMARK    7  A    between atoms: N_19  and  C_20
REMARK    8  A    between atoms: C_20  and  C_21
REMARK                            x       y       z     vdW  Elec       q    Type
REMARK                         _______ _______ _______ _____ _____    ______ ____
ROOT
ATOM      1  N   UNL     1       9.214  10.466  19.294  0.00  0.00    +0.000 NA
ATOM      2  H   UNL     1       8.530  10.844  19.946  0.00  0.00    +0.000 HD
ENDROOT
BRANCH   1   3
ATOM      3  S   UNL     1      10.553  11.465  19.105  0.00  0.00    +0.000 S 
ATOM      4  O   UNL     1      11.245  11.090  17.890  0.00  0.00    +0.000 OA
ATOM      5  O   UNL     1      11.225  11.529  20.383  0.00  0.00    +0.000 OA
BRANCH   3  13
ATOM      6  O   UNL     1       5.114  16.447  20.072  0.00  0.00    +0.000 OA
ATOM      7  C   UNL     1       6.226  16.181  19.622  0.00  0.00    +0.000 C 
ATOM      8  C   UNL     1       7.129  17.217  18.957  0.00  0.00    +0.000 C 
ATOM      9  O   UNL     1       8.178  16.785  18.103  0.00  0.00    +0.000 OA
ATOM     10  C   UNL     1       8.679  15.550  18.404  0.00  0.00    +0.000 A 
ATOM     11  C   UNL     1       9.890  15.219  17.800  0.00  0.00    +0.000 A 
ATOM     12  C   UNL     1      10.453  13.965  18.017  0.00  0.00    +0.000 A 
ATOM     13  C   UNL     1       9.794  13.047  18.844  0.00  0.00    +0.000 A 
ATOM     14  C   UNL     1       8.569  13.358  19.441  0.00  0.00    +0.000 A 
ATOM     15  C   UNL     1       8.015  14.618  19.212  0.00  0.00    +0.000 A 
ATOM     16  N   UNL     1       6.776  14.937  19.766  0.00  0.00    +0.000 N 
ATOM     17  H   UNL     1       6.227  14.249  20.266  0.00  0.00    +0.000 HD
ENDBRANCH   3  13
ENDBRANCH   1   3
BRANCH   1  18
ATOM     18  C   UNL     1       8.701   9.782  18.099  0.00  0.00    +0.000 C 
BRANCH  18  19
ATOM     19  C   UNL     1       8.278   8.359  18.466  0.00  0.00    +0.000 C 
BRANCH  19  20
ATOM     20  C   UNL     1       7.729   7.602  17.245  0.00  0.00    +0.000 C 
BRANCH  20  21
ATOM     21  N   UNL     1       6.438   7.003  17.546  0.00  0.00    +0.000 NA
ATOM     22  C   UNL     1       5.570   6.809  16.379  0.00  0.00    +0.000 C 
ATOM     23  C   UNL     1       5.155   5.357  16.083  0.00  0.00    +0.000 C 
ATOM     24  N   UNL     1       4.683   4.629  17.276  0.00  0.00    +0.000 NA
ATOM     25  C   UNL     1       5.820   4.591  18.214  0.00  0.00    +0.000 C 
ATOM     26  C   UNL     1       6.424   5.967  18.586  0.00  0.00    +0.000 C 
BRANCH  24  27
ATOM     27  C   UNL     1       3.503   5.328  17.832  0.00  0.00    +0.000 C 
BRANCH  27  28
ATOM     28  C   UNL     1       2.563   4.461  18.626  0.00  0.00    +0.000 A 
ATOM     29  C   UNL     1       2.332   4.745  19.981  0.00  0.00    +0.000 A 
ATOM     30  C   UNL     1       1.417   3.994  20.714  0.00  0.00    +0.000 A 
ATOM     31  C   UNL     1       0.725   2.955  20.096  0.00  0.00    +0.000 A 
ATOM     32  C   UNL     1       0.949   2.664  18.749  0.00  0.00    +0.000 A 
ATOM     33  C   UNL     1       1.866   3.415  18.015  0.00  0.00    +0.000 A 
ENDBRANCH  27  28
ENDBRANCH  24  27
ENDBRANCH  20  21
ENDBRANCH  19  20
ENDBRANCH  18  19
ENDBRANCH   1  18
TORSDOF 8
ENDMDL
MODEL 9
REMARK VINA RESULT:      -7.5      6.096      9.253
REMARK  Name = 
REMARK  8 active torsions:
REMARK  status: ('A' for Active; 'I' for Inactive)
REMARK    1  A    between atoms: C_8  and  S_9
REMARK    2  A    between atoms: S_9  and  N_12
REMARK    3  A    between atoms: N_12  and  C_13
REMARK    4  A    between atoms: C_13  and  C_14
REMARK    5  A    between atoms: C_14  and  C_15
REMARK    6  A    between atoms: C_15  and  N_16
REMARK    7  A    between atoms: N_19  and  C_20
REMARK    8  A    between atoms: C_20  and  C_21
REMARK                            x       y       z     vdW  Elec       q    Type
REMARK                         _______ _______ _______ _____ _____    ______ ____
ROOT
ATOM      1  N   UNL     1       6.212   6.477  17.615  0.00  0.00    +0.000 NA
ATOM      2  H   UNL     1       6.995   7.104  17.785  0.00  0.00    +0.000 HD
ENDROOT
BRANCH   1   3
ATOM      3  S   UNL     1       6.651   4.856  17.681  0.00  0.00    +0.000 S 
ATOM      4  O   UNL     1       7.514   4.654  18.826  0.00  0.00    +0.000 OA
ATOM      5  O   UNL     1       7.042   4.462  16.346  0.00  0.00    +0.000 OA
BRANCH   3  13
ATOM      6  O   UNL     1       1.289   2.436  22.234  0.00  0.00    +0.000 OA
ATOM      7  C   UNL     1       1.688   2.621  21.086  0.00  0.00    +0.000 C 
ATOM      8  C   UNL     1       0.828   2.362  19.851  0.00  0.00    +0.000 C 
ATOM      9  O   UNL     1       1.454   2.189  18.588  0.00  0.00    +0.000 OA
ATOM     10  C   UNL     1       2.647   2.842  18.454  0.00  0.00    +0.000 A 
ATOM     11  C   UNL     1       3.140   2.951  17.155  0.00  0.00    +0.000 A 
ATOM     12  C   UNL     1       4.368   3.566  16.930  0.00  0.00    +0.000 A 
ATOM     13  C   UNL     1       5.097   4.070  18.014  0.00  0.00    +0.000 A 
ATOM     14  C   UNL     1       4.624   3.949  19.324  0.00  0.00    +0.000 A 
ATOM     15  C   UNL     1       3.392   3.329  19.536  0.00  0.00    +0.000 A 
ATOM     16  N   UNL     1       2.917   3.165  20.836  0.00  0.00    +0.000 N 
ATOM     17  H   UNL     1       3.481   3.413  21.640  0.00  0.00    +0.000 HD
ENDBRANCH   3  13
ENDBRANCH   1   3
BRANCH   1  18
ATOM     18  C   UNL     1       5.238   6.876  16.589  0.00  0.00    +0.000 C 
BRANCH  18  19
ATOM     19  C   UNL     1       4.146   7.735  17.228  0.00  0.00    +0.000 C 
BRANCH  19  20
ATOM     20  C   UNL     1       3.335   6.938  18.264  0.00  0.00    +0.000 C 
BRANCH  20  21
ATOM     21  N   UNL     1       2.108   7.638  18.609  0.00  0.00    +0.000 NA
ATOM     22  C   UNL     1       1.859   7.757  20.050  0.00  0.00    +0.000 C 
ATOM     23  C   UNL     1       1.759   9.191  20.599  0.00  0.00    +0.000 C 
ATOM     24  N   UNL     1       0.888  10.067  19.794  0.00  0.00    +0.000 NA
ATOM     25  C   UNL     1       1.499  10.139  18.453  0.00  0.00    +0.000 C 
ATOM     26  C   UNL     1       1.742   8.777  17.758  0.00  0.00    +0.000 C 
BRANCH  24  27
ATOM     27  C   UNL     1      -0.479   9.498  19.771  0.00  0.00    +0.000 C 
BRANCH  27  28
ATOM     28  C   UNL     1      -1.477  10.268  18.949  0.00  0.00    +0.000 A 
ATOM     29  C   UNL     1      -1.973   9.713  17.758  0.00  0.00    +0.000 A 
ATOM     30  C   UNL     1      -2.944  10.382  17.018  0.00  0.00    +0.000 A 
ATOM     31  C   UNL     1      -3.429  11.610  17.465  0.00  0.00    +0.000 A 
ATOM     32  C   UNL     1      -2.940  12.170  18.647  0.00  0.00    +0.000 A 
ATOM     33  C   UNL     1      -1.967  11.501  19.387  0.00  0.00    +0.000 A 
ENDBRANCH  27  28
ENDBRANCH  24  27
ENDBRANCH  20  21
ENDBRANCH  19  20
ENDBRANCH  18  19
ENDBRANCH   1  18
TORSDOF 8
ENDMDL
