MODEL 1
REMARK VINA RESULT:      -7.4      0.000      0.000
REMARK  Name = 
REMARK  8 active torsions:
REMARK  status: ('A' for Active; 'I' for Inactive)
REMARK    1  A    between atoms: C_1  and  C_2
REMARK    2  A    between atoms: C_2  and  N_3
REMARK    3  A    between atoms: N_3  and  C_4
REMARK    4  A    between atoms: C_4  and  C_5
REMARK    5  A    between atoms: C_6  and  C_8
REMARK    6  A    between atoms: C_8  and  O_9
REMARK    7  A    between atoms: O_9  and  C_10
REMARK    8  A    between atoms: C_12  and  C_13
REMARK                            x       y       z     vdW  Elec       q    Type
REMARK                         _______ _______ _______ _____ _____    ______ ____
ROOT
ATOM      1  C   UNL     1       2.390   6.988  18.573  0.00  0.00    +0.000 A 
ATOM      2  C   UNL     1       2.005   8.225  19.150  0.00  0.00    +0.000 A 
ATOM      3  C   UNL     1       1.511   8.312  20.449  0.00  0.00    +0.000 A 
ATOM      4  C   UNL     1       1.134   9.630  21.059  0.00  0.00    +0.000 C 
ATOM      5  C   UNL     1       1.396   7.134  21.173  0.00  0.00    +0.000 A 
ATOM      6  C   UNL     1       1.738   5.904  20.582  0.00  0.00    +0.000 A 
ATOM      7  O   UNL     1       1.576   4.805  21.451  0.00  0.00    +0.000 OA
ATOM      8  C   UNL     1       1.931   3.524  21.093  0.00  0.00    +0.000 A 
ATOM      9  O   UNL     1       1.834   2.590  21.880  0.00  0.00    +0.000 OA
ATOM     10  C   UNL     1       2.388   3.327  19.703  0.00  0.00    +0.000 A 
ATOM     11  C   UNL     1       2.479   4.347  18.825  0.00  0.00    +0.000 A 
ATOM     12  C   UNL     1       2.216   5.759  19.268  0.00  0.00    +0.000 A 
ATOM     13  C   UNL     1       2.880   4.003  17.414  0.00  0.00    +0.000 C 
ATOM     14  C   UNL     1       2.932   2.544  16.986  0.00  0.00    +0.000 C 
ATOM     15  C   UNL     1       3.602   1.758  18.093  0.00  0.00    +0.000 C 
ATOM     16  C   UNL     1       2.768   1.897  19.367  0.00  0.00    +0.000 C 
ENDROOT
BRANCH   1  17
ATOM     17  O   UNL     1       2.922   7.203  17.321  0.00  0.00    +0.000 OA
BRANCH  17  18
ATOM     18  C   UNL     1       4.324   7.284  17.286  0.00  0.00    +0.000 C 
BRANCH  18  20
ATOM     19  N   UNL     1       6.175   5.679  16.878  0.00  0.00    +0.000 N 
ATOM     20  C   UNL     1       5.202   6.514  16.320  0.00  0.00    +0.000 C 
ATOM     21  O   UNL     1       5.143   6.767  15.117  0.00  0.00    +0.000 OA
BRANCH  19  23
ATOM     22  C   UNL     1       6.355   3.753  15.338  0.00  0.00    +0.000 C 
ATOM     23  C   UNL     1       7.020   4.998  15.904  0.00  0.00    +0.000 C 
ENDBRANCH  19  23
BRANCH  19  24
ATOM     24  C   UNL     1       6.099   5.230  18.278  0.00  0.00    +0.000 C 
ATOM     25  C   UNL     1       7.244   5.632  19.191  0.00  0.00    +0.000 C 
ENDBRANCH  19  24
ENDBRANCH  18  20
ENDBRANCH  17  18
ENDBRANCH   1  17
TORSDOF 5
ENDMDL
MODEL 2
REMARK VINA RESULT:      -7.3      2.507      5.322
REMARK  Name = 
REMARK  8 active torsions:
REMARK  status: ('A' for Active; 'I' for Inactive)
REMARK    1  A    between atoms: C_1  and  C_2
REMARK    2  A    between atoms: C_2  and  N_3
REMARK    3  A    between atoms: N_3  and  C_4
REMARK    4  A    between atoms: C_4  and  C_5
REMARK    5  A    between atoms: C_6  and  C_8
REMARK    6  A    between atoms: C_8  and  O_9
REMARK    7  A    between atoms: O_9  and  C_10
REMARK    8  A    between atoms: C_12  and  C_13
REMARK                            x       y       z     vdW  Elec       q    Type
REMARK                         _______ _______ _______ _____ _____    ______ ____
ROOT
ATOM      1  C   UNL     1       3.965   6.494  18.027  0.00  0.00    +0.000 A 
ATOM      2  C   UNL     1       5.102   7.186  17.537  0.00  0.00    +0.000 A 
ATOM      3  C   UNL     1       6.388   6.664  17.649  0.00  0.00    +0.000 A 
ATOM      4  C   UNL     1       7.580   7.392  17.102  0.00  0.00    +0.000 C 
ATOM      5  C   UNL     1       6.531   5.432  18.271  0.00  0.00    +0.000 A 
ATOM      6  C   UNL     1       5.405   4.769  18.793  0.00  0.00    +0.000 A 
ATOM      7  O   UNL     1       5.716   3.525  19.382  0.00  0.00    +0.000 OA
ATOM      8  C   UNL     1       4.746   2.683  19.880  0.00  0.00    +0.000 A 
ATOM      9  O   UNL     1       5.030   1.583  20.338  0.00  0.00    +0.000 OA
ATOM     10  C   UNL     1       3.361   3.192  19.876  0.00  0.00    +0.000 A 
ATOM     11  C   UNL     1       3.043   4.411  19.391  0.00  0.00    +0.000 A 
ATOM     12  C   UNL     1       4.090   5.263  18.730  0.00  0.00    +0.000 A 
ATOM     13  C   UNL     1       1.607   4.847  19.520  0.00  0.00    +0.000 C 
ATOM     14  C   UNL     1       0.651   4.030  20.376  0.00  0.00    +0.000 C 
ATOM     15  C   UNL     1       0.892   2.565  20.072  0.00  0.00    +0.000 C 
ATOM     16  C   UNL     1       2.337   2.221  20.433  0.00  0.00    +0.000 C 
ENDROOT
BRANCH   1  17
ATOM     17  O   UNL     1       2.821   7.191  17.707  0.00  0.00    +0.000 OA
BRANCH  17  18
ATOM     18  C   UNL     1       2.344   8.032  18.725  0.00  0.00    +0.000 C 
BRANCH  18  20
ATOM     19  N   UNL     1       0.802   9.814  19.511  0.00  0.00    +0.000 N 
ATOM     20  C   UNL     1       1.629   9.347  18.485  0.00  0.00    +0.000 C 
ATOM     21  O   UNL     1       1.667   9.860  17.367  0.00  0.00    +0.000 OA
BRANCH  19  23
ATOM     22  C   UNL     1      -1.329  10.821  18.766  0.00  0.00    +0.000 C 
ATOM     23  C   UNL     1       0.105  11.059  19.209  0.00  0.00    +0.000 C 
ENDBRANCH  19  23
BRANCH  19  24
ATOM     24  C   UNL     1       0.926   9.317  20.891  0.00  0.00    +0.000 C 
ATOM     25  C   UNL     1      -0.258   8.551  21.454  0.00  0.00    +0.000 C 
ENDBRANCH  19  24
ENDBRANCH  18  20
ENDBRANCH  17  18
ENDBRANCH   1  17
TORSDOF 5
ENDMDL
MODEL 3
REMARK VINA RESULT:      -7.3      2.523      5.490
REMARK  Name = 
REMARK  8 active torsions:
REMARK  status: ('A' for Active; 'I' for Inactive)
REMARK    1  A    between atoms: C_1  and  C_2
REMARK    2  A    between atoms: C_2  and  N_3
REMARK    3  A    between atoms: N_3  and  C_4
REMARK    4  A    between atoms: C_4  and  C_5
REMARK    5  A    between atoms: C_6  and  C_8
REMARK    6  A    between atoms: C_8  and  O_9
REMARK    7  A    between atoms: O_9  and  C_10
REMARK    8  A    between atoms: C_12  and  C_13
REMARK                            x       y       z     vdW  Elec       q    Type
REMARK                         _______ _______ _______ _____ _____    ______ ____
ROOT
ATOM      1  C   UNL     1       3.878   6.498  17.968  0.00  0.00    +0.000 A 
ATOM      2  C   UNL     1       5.010   7.223  17.511  0.00  0.00    +0.000 A 
ATOM      3  C   UNL     1       6.307   6.744  17.672  0.00  0.00    +0.000 A 
ATOM      4  C   UNL     1       7.493   7.506  17.160  0.00  0.00    +0.000 C 
ATOM      5  C   UNL     1       6.467   5.523  18.311  0.00  0.00    +0.000 A 
ATOM      6  C   UNL     1       5.347   4.828  18.800  0.00  0.00    +0.000 A 
ATOM      7  O   UNL     1       5.676   3.600  19.412  0.00  0.00    +0.000 OA
ATOM      8  C   UNL     1       4.717   2.732  19.884  0.00  0.00    +0.000 A 
ATOM      9  O   UNL     1       5.020   1.645  20.362  0.00  0.00    +0.000 OA
ATOM     10  C   UNL     1       3.317   3.196  19.827  0.00  0.00    +0.000 A 
ATOM     11  C   UNL     1       2.978   4.398  19.320  0.00  0.00    +0.000 A 
ATOM     12  C   UNL     1       4.019   5.279  18.686  0.00  0.00    +0.000 A 
ATOM     13  C   UNL     1       1.525   4.789  19.394  0.00  0.00    +0.000 C 
ATOM     14  C   UNL     1       0.566   3.949  20.224  0.00  0.00    +0.000 C 
ATOM     15  C   UNL     1       0.864   2.490  19.944  0.00  0.00    +0.000 C 
ATOM     16  C   UNL     1       2.306   2.197  20.358  0.00  0.00    +0.000 C 
ENDROOT
BRANCH   1  17
ATOM     17  O   UNL     1       2.725   7.155  17.601  0.00  0.00    +0.000 OA
BRANCH  17  18
ATOM     18  C   UNL     1       2.514   8.380  18.257  0.00  0.00    +0.000 C 
BRANCH  18  20
ATOM     19  N   UNL     1       0.624   9.522  19.392  0.00  0.00    +0.000 N 
ATOM     20  C   UNL     1       1.633   8.557  19.476  0.00  0.00    +0.000 C 
ATOM     21  O   UNL     1       1.928   7.984  20.524  0.00  0.00    +0.000 OA
BRANCH  19  23
ATOM     22  C   UNL     1       0.167  10.972  21.342  0.00  0.00    +0.000 C 
ATOM     23  C   UNL     1      -0.165   9.682  20.608  0.00  0.00    +0.000 C 
ENDBRANCH  19  23
BRANCH  19  24
ATOM     24  C   UNL     1       0.154  10.038  18.096  0.00  0.00    +0.000 C 
ATOM     25  C   UNL     1      -1.340  10.266  17.949  0.00  0.00    +0.000 C 
ENDBRANCH  19  24
ENDBRANCH  18  20
ENDBRANCH  17  18
ENDBRANCH   1  17
TORSDOF 5
ENDMDL
MODEL 4
REMARK VINA RESULT:      -7.0      2.148      5.923
REMARK  Name = 
REMARK  8 active torsions:
REMARK  status: ('A' for Active; 'I' for Inactive)
REMARK    1  A    between atoms: C_1  and  C_2
REMARK    2  A    between atoms: C_2  and  N_3
REMARK    3  A    between atoms: N_3  and  C_4
REMARK    4  A    between atoms: C_4  and  C_5
REMARK    5  A    between atoms: C_6  and  C_8
REMARK    6  A    between atoms: C_8  and  O_9
REMARK    7  A    between atoms: O_9  and  C_10
REMARK    8  A    between atoms: C_12  and  C_13
REMARK                            x       y       z     vdW  Elec       q    Type
REMARK                         _______ _______ _______ _____ _____    ______ ____
ROOT
ATOM      1  C   UNL     1       5.097   4.914  18.320  0.00  0.00    +0.000 A 
ATOM      2  C   UNL     1       6.016   4.556  17.300  0.00  0.00    +0.000 A 
ATOM      3  C   UNL     1       6.132   5.288  16.121  0.00  0.00    +0.000 A 
ATOM      4  C   UNL     1       7.128   4.916  15.063  0.00  0.00    +0.000 C 
ATOM      5  C   UNL     1       5.305   6.390  15.964  0.00  0.00    +0.000 A 
ATOM      6  C   UNL     1       4.365   6.716  16.958  0.00  0.00    +0.000 A 
ATOM      7  O   UNL     1       3.610   7.869  16.655  0.00  0.00    +0.000 OA
ATOM      8  C   UNL     1       2.693   8.402  17.532  0.00  0.00    +0.000 A 
ATOM      9  O   UNL     1       2.087   9.435  17.274  0.00  0.00    +0.000 OA
ATOM     10  C   UNL     1       2.446   7.644  18.774  0.00  0.00    +0.000 A 
ATOM     11  C   UNL     1       3.096   6.496  19.058  0.00  0.00    +0.000 A 
ATOM     12  C   UNL     1       4.189   5.997  18.154  0.00  0.00    +0.000 A 
ATOM     13  C   UNL     1       2.695   5.773  20.317  0.00  0.00    +0.000 C 
ATOM     14  C   UNL     1       1.453   6.221  21.072  0.00  0.00    +0.000 C 
ATOM     15  C   UNL     1       1.464   7.734  21.131  0.00  0.00    +0.000 C 
ATOM     16  C   UNL     1       1.430   8.280  19.704  0.00  0.00    +0.000 C 
ENDROOT
BRANCH   1  17
ATOM     17  O   UNL     1       5.253   4.079  19.403  0.00  0.00    +0.000 OA
BRANCH  17  18
ATOM     18  C   UNL     1       4.784   2.769  19.206  0.00  0.00    +0.000 C 
BRANCH  18  20
ATOM     19  N   UNL     1       2.424   2.190  19.715  0.00  0.00    +0.000 N 
ATOM     20  C   UNL     1       3.388   2.422  18.729  0.00  0.00    +0.000 C 
ATOM     21  O   UNL     1       3.195   2.200  17.535  0.00  0.00    +0.000 OA
BRANCH  19  23
ATOM     22  C   UNL     1       0.306   3.025  18.751  0.00  0.00    +0.000 C 
ATOM     23  C   UNL     1       1.111   1.817  19.202  0.00  0.00    +0.000 C 
ENDBRANCH  19  23
BRANCH  19  24
ATOM     24  C   UNL     1       2.605   2.654  21.100  0.00  0.00    +0.000 C 
ATOM     25  C   UNL     1       1.413   2.524  22.030  0.00  0.00    +0.000 C 
ENDBRANCH  19  24
ENDBRANCH  18  20
ENDBRANCH  17  18
ENDBRANCH   1  17
TORSDOF 5
ENDMDL
MODEL 5
REMARK VINA RESULT:      -6.9      1.841      5.982
REMARK  Name = 
REMARK  8 active torsions:
REMARK  status: ('A' for Active; 'I' for Inactive)
REMARK    1  A    between atoms: C_1  and  C_2
REMARK    2  A    between atoms: C_2  and  N_3
REMARK    3  A    between atoms: N_3  and  C_4
REMARK    4  A    between atoms: C_4  and  C_5
REMARK    5  A    between atoms: C_6  and  C_8
REMARK    6  A    between atoms: C_8  and  O_9
REMARK    7  A    between atoms: O_9  and  C_10
REMARK    8  A    between atoms: C_12  and  C_13
REMARK                            x       y       z     vdW  Elec       q    Type
REMARK                         _______ _______ _______ _____ _____    ______ ____
ROOT
ATOM      1  C   UNL     1       5.150   5.019  18.490  0.00  0.00    +0.000 A 
ATOM      2  C   UNL     1       6.077   4.633  17.487  0.00  0.00    +0.000 A 
ATOM      3  C   UNL     1       6.166   5.301  16.269  0.00  0.00    +0.000 A 
ATOM      4  C   UNL     1       7.169   4.901  15.227  0.00  0.00    +0.000 C 
ATOM      5  C   UNL     1       5.304   6.366  16.055  0.00  0.00    +0.000 A 
ATOM      6  C   UNL     1       4.358   6.719  17.034  0.00  0.00    +0.000 A 
ATOM      7  O   UNL     1       3.566   7.829  16.670  0.00  0.00    +0.000 OA
ATOM      8  C   UNL     1       2.637   8.382  17.522  0.00  0.00    +0.000 A 
ATOM      9  O   UNL     1       1.997   9.379  17.209  0.00  0.00    +0.000 OA
ATOM     10  C   UNL     1       2.418   7.687  18.805  0.00  0.00    +0.000 A 
ATOM     11  C   UNL     1       3.104   6.578  19.149  0.00  0.00    +0.000 A 
ATOM     12  C   UNL     1       4.209   6.062  18.269  0.00  0.00    +0.000 A 
ATOM     13  C   UNL     1       2.731   5.915  20.450  0.00  0.00    +0.000 C 
ATOM     14  C   UNL     1       1.478   6.365  21.185  0.00  0.00    +0.000 C 
ATOM     15  C   UNL     1       1.442   7.880  21.159  0.00  0.00    +0.000 C 
ATOM     16  C   UNL     1       1.386   8.343  19.703  0.00  0.00    +0.000 C 
ENDROOT
BRANCH   1  17
ATOM     17  O   UNL     1       5.337   4.252  19.618  0.00  0.00    +0.000 OA
BRANCH  17  18
ATOM     18  C   UNL     1       4.853   2.936  19.518  0.00  0.00    +0.000 C 
BRANCH  18  20
ATOM     19  N   UNL     1       2.480   2.376  19.045  0.00  0.00    +0.000 N 
ATOM     20  C   UNL     1       3.490   2.487  20.006  0.00  0.00    +0.000 C 
ATOM     21  O   UNL     1       3.280   2.397  21.215  0.00  0.00    +0.000 OA
BRANCH  19  23
ATOM     22  C   UNL     1       0.292   3.184  19.865  0.00  0.00    +0.000 C 
ATOM     23  C   UNL     1       1.180   1.984  19.575  0.00  0.00    +0.000 C 
ENDBRANCH  19  23
BRANCH  19  24
ATOM     24  C   UNL     1       2.786   2.281  17.608  0.00  0.00    +0.000 C 
ATOM     25  C   UNL     1       2.411   3.473  16.746  0.00  0.00    +0.000 C 
ENDBRANCH  19  24
ENDBRANCH  18  20
ENDBRANCH  17  18
ENDBRANCH   1  17
TORSDOF 5
ENDMDL
MODEL 6
REMARK VINA RESULT:      -6.9      1.779      4.671
REMARK  Name = 
REMARK  8 active torsions:
REMARK  status: ('A' for Active; 'I' for Inactive)
REMARK    1  A    between atoms: C_1  and  C_2
REMARK    2  A    between atoms: C_2  and  N_3
REMARK    3  A    between atoms: N_3  and  C_4
REMARK    4  A    between atoms: C_4  and  C_5
REMARK    5  A    between atoms: C_6  and  C_8
REMARK    6  A    between atoms: C_8  and  O_9
REMARK    7  A    between atoms: O_9  and  C_10
REMARK    8  A    between atoms: C_12  and  C_13
REMARK                            x       y       z     vdW  Elec       q    Type
REMARK                         _______ _______ _______ _____ _____    ______ ____
ROOT
ATOM      1  C   UNL     1       2.874   6.760  18.516  0.00  0.00    +0.000 A 
ATOM      2  C   UNL     1       3.247   5.424  18.813  0.00  0.00    +0.000 A 
ATOM      3  C   UNL     1       2.784   4.764  19.948  0.00  0.00    +0.000 A 
ATOM      4  C   UNL     1       3.162   3.341  20.237  0.00  0.00    +0.000 C 
ATOM      5  C   UNL     1       1.940   5.462  20.799  0.00  0.00    +0.000 A 
ATOM      6  C   UNL     1       1.607   6.801  20.523  0.00  0.00    +0.000 A 
ATOM      7  O   UNL     1       0.732   7.365  21.476  0.00  0.00    +0.000 OA
ATOM      8  C   UNL     1       0.223   8.637  21.346  0.00  0.00    +0.000 A 
ATOM      9  O   UNL     1      -0.578   9.090  22.155  0.00  0.00    +0.000 OA
ATOM     10  C   UNL     1       0.725   9.440  20.214  0.00  0.00    +0.000 A 
ATOM     11  C   UNL     1       1.622   8.955  19.330  0.00  0.00    +0.000 A 
ATOM     12  C   UNL     1       2.068   7.521  19.407  0.00  0.00    +0.000 A 
ATOM     13  C   UNL     1       2.118   9.900  18.267  0.00  0.00    +0.000 C 
ATOM     14  C   UNL     1       1.785  11.382  18.370  0.00  0.00    +0.000 C 
ATOM     15  C   UNL     1       0.327  11.504  18.762  0.00  0.00    +0.000 C 
ATOM     16  C   UNL     1       0.127  10.831  20.120  0.00  0.00    +0.000 C 
ENDROOT
BRANCH   1  17
ATOM     17  O   UNL     1       3.400   7.131  17.299  0.00  0.00    +0.000 OA
BRANCH  17  18
ATOM     18  C   UNL     1       4.750   6.789  17.115  0.00  0.00    +0.000 C 
BRANCH  18  20
ATOM     19  N   UNL     1       6.315   5.332  15.852  0.00  0.00    +0.000 N 
ATOM     20  C   UNL     1       5.348   6.340  15.797  0.00  0.00    +0.000 C 
ATOM     21  O   UNL     1       5.092   6.970  14.772  0.00  0.00    +0.000 OA
BRANCH  19  23
ATOM     22  C   UNL     1       6.104   3.864  13.874  0.00  0.00    +0.000 C 
ATOM     23  C   UNL     1       6.888   4.970  14.561  0.00  0.00    +0.000 C 
ENDBRANCH  19  23
BRANCH  19  24
ATOM     24  C   UNL     1       6.456   4.458  17.028  0.00  0.00    +0.000 C 
ATOM     25  C   UNL     1       7.699   4.647  17.879  0.00  0.00    +0.000 C 
ENDBRANCH  19  24
ENDBRANCH  18  20
ENDBRANCH  17  18
ENDBRANCH   1  17
TORSDOF 5
ENDMDL
MODEL 7
REMARK VINA RESULT:      -6.8      3.110      6.600
REMARK  Name = 
REMARK  8 active torsions:
REMARK  status: ('A' for Active; 'I' for Inactive)
REMARK    1  A    between atoms: C_1  and  C_2
REMARK    2  A    between atoms: C_2  and  N_3
REMARK    3  A    between atoms: N_3  and  C_4
REMARK    4  A    between atoms: C_4  and  C_5
REMARK    5  A    between atoms: C_6  and  C_8
REMARK    6  A    between atoms: C_8  and  O_9
REMARK    7  A    between atoms: O_9  and  C_10
REMARK    8  A    between atoms: C_12  and  C_13
REMARK                            x       y       z     vdW  Elec       q    Type
REMARK                         _______ _______ _______ _____ _____    ______ ____
ROOT
ATOM      1  C   UNL     1       1.599   7.821  20.212  0.00  0.00    +0.000 A 
ATOM      2  C   UNL     1       1.630   9.137  19.681  0.00  0.00    +0.000 A 
ATOM      3  C   UNL     1       2.160   9.414  18.424  0.00  0.00    +0.000 A 
ATOM      4  C   UNL     1       2.161  10.804  17.862  0.00  0.00    +0.000 C 
ATOM      5  C   UNL     1       2.675   8.351  17.695  0.00  0.00    +0.000 A 
ATOM      6  C   UNL     1       2.681   7.056  18.242  0.00  0.00    +0.000 A 
ATOM      7  O   UNL     1       3.226   6.087  17.373  0.00  0.00    +0.000 OA
ATOM      8  C   UNL     1       3.252   4.747  17.687  0.00  0.00    +0.000 A 
ATOM      9  O   UNL     1       3.679   3.914  16.896  0.00  0.00    +0.000 OA
ATOM     10  C   UNL     1       2.784   4.373  19.035  0.00  0.00    +0.000 A 
ATOM     11  C   UNL     1       2.330   5.286  19.918  0.00  0.00    +0.000 A 
ATOM     12  C   UNL     1       2.183   6.727  19.515  0.00  0.00    +0.000 A 
ATOM     13  C   UNL     1       1.959   4.788  21.291  0.00  0.00    +0.000 C 
ATOM     14  C   UNL     1       2.322   3.367  21.694  0.00  0.00    +0.000 C 
ATOM     15  C   UNL     1       1.996   2.455  20.529  0.00  0.00    +0.000 C 
ATOM     16  C   UNL     1       2.832   2.884  19.323  0.00  0.00    +0.000 C 
ENDROOT
BRANCH   1  17
ATOM     17  O   UNL     1       0.945   7.822  21.423  0.00  0.00    +0.000 OA
BRANCH  17  18
ATOM     18  C   UNL     1      -0.215   8.614  21.462  0.00  0.00    +0.000 C 
BRANCH  18  20
ATOM     19  N   UNL     1      -0.723  11.020  21.813  0.00  0.00    +0.000 N 
ATOM     20  C   UNL     1      -0.419   9.787  22.400  0.00  0.00    +0.000 C 
ATOM     21  O   UNL     1      -0.156   9.659  23.595  0.00  0.00    +0.000 OA
BRANCH  19  23
ATOM     22  C   UNL     1      -2.316  12.379  23.127  0.00  0.00    +0.000 C 
ATOM     23  C   UNL     1      -0.864  12.122  22.757  0.00  0.00    +0.000 C 
ENDBRANCH  19  23
BRANCH  19  24
ATOM     24  C   UNL     1      -1.233  11.116  20.435  0.00  0.00    +0.000 C 
ATOM     25  C   UNL     1      -0.806  12.330  19.629  0.00  0.00    +0.000 C 
ENDBRANCH  19  24
ENDBRANCH  18  20
ENDBRANCH  17  18
ENDBRANCH   1  17
TORSDOF 5
ENDMDL
MODEL 8
REMARK VINA RESULT:      -6.8      1.745      4.486
REMARK  Name = 
REMARK  8 active torsions:
REMARK  status: ('A' for Active; 'I' for Inactive)
REMARK    1  A    between atoms: C_1  and  C_2
REMARK    2  A    between atoms: C_2  and  N_3
REMARK    3  A    between atoms: N_3  and  C_4
REMARK    4  A    between atoms: C_4  and  C_5
REMARK    5  A    between atoms: C_6  and  C_8
REMARK    6  A    between atoms: C_8  and  O_9
REMARK    7  A    between atoms: O_9  and  C_10
REMARK    8  A    between atoms: C_12  and  C_13
REMARK                            x       y       z     vdW  Elec       q    Type
REMARK                         _______ _______ _______ _____ _____    ______ ____
ROOT
ATOM      1  C   UNL     1       2.888   5.527  18.592  0.00  0.00    +0.000 A 
ATOM      2  C   UNL     1       3.160   4.226  19.089  0.00  0.00    +0.000 A 
ATOM      3  C   UNL     1       2.794   3.835  20.374  0.00  0.00    +0.000 A 
ATOM      4  C   UNL     1       3.061   2.448  20.878  0.00  0.00    +0.000 C 
ATOM      5  C   UNL     1       2.154   4.772  21.173  0.00  0.00    +0.000 A 
ATOM      6  C   UNL     1       1.924   6.073  20.692  0.00  0.00    +0.000 A 
ATOM      7  O   UNL     1       1.253   6.900  21.619  0.00  0.00    +0.000 OA
ATOM      8  C   UNL     1       0.864   8.184  21.314  0.00  0.00    +0.000 A 
ATOM      9  O   UNL     1       0.234   8.868  22.112  0.00  0.00    +0.000 OA
ATOM     10  C   UNL     1       1.283   8.709  20.000  0.00  0.00    +0.000 A 
ATOM     11  C   UNL     1       1.993   7.970  19.123  0.00  0.00    +0.000 A 
ATOM     12  C   UNL     1       2.296   6.526  19.414  0.00  0.00    +0.000 A 
ATOM     13  C   UNL     1       2.431   8.647  17.850  0.00  0.00    +0.000 C 
ATOM     14  C   UNL     1       2.269  10.154  17.712  0.00  0.00    +0.000 C 
ATOM     15  C   UNL     1       0.901  10.525  18.244  0.00  0.00    +0.000 C 
ATOM     16  C   UNL     1       0.824  10.127  19.718  0.00  0.00    +0.000 C 
ENDROOT
BRANCH   1  17
ATOM     17  O   UNL     1       3.275   5.613  17.274  0.00  0.00    +0.000 OA
BRANCH  17  18
ATOM     18  C   UNL     1       4.557   5.106  17.005  0.00  0.00    +0.000 C 
BRANCH  18  20
ATOM     19  N   UNL     1       6.624   6.318  17.658  0.00  0.00    +0.000 N 
ATOM     20  C   UNL     1       5.752   5.958  16.626  0.00  0.00    +0.000 C 
ATOM     21  O   UNL     1       5.824   6.429  15.491  0.00  0.00    +0.000 OA
BRANCH  19  23
ATOM     22  C   UNL     1       7.586   8.593  17.774  0.00  0.00    +0.000 C 
ATOM     23  C   UNL     1       7.730   7.175  17.246  0.00  0.00    +0.000 C 
ENDBRANCH  19  23
BRANCH  19  24
ATOM     24  C   UNL     1       6.648   5.594  18.940  0.00  0.00    +0.000 C 
ATOM     25  C   UNL     1       7.967   5.569  19.689  0.00  0.00    +0.000 C 
ENDBRANCH  19  24
ENDBRANCH  18  20
ENDBRANCH  17  18
ENDBRANCH   1  17
TORSDOF 5
ENDMDL
MODEL 9
REMARK VINA RESULT:      -6.7      2.284      5.437
REMARK  Name = 
REMARK  8 active torsions:
REMARK  status: ('A' for Active; 'I' for Inactive)
REMARK    1  A    between atoms: C_1  and  C_2
REMARK    2  A    between atoms: C_2  and  N_3
REMARK    3  A    between atoms: N_3  and  C_4
REMARK    4  A    between atoms: C_4  and  C_5
REMARK    5  A    between atoms: C_6  and  C_8
REMARK    6  A    between atoms: C_8  and  O_9
REMARK    7  A    between atoms: O_9  and  C_10
REMARK    8  A    between atoms: C_12  and  C_13
REMARK                            x       y       z     vdW  Elec       q    Type
REMARK                         _______ _______ _______ _____ _____    ______ ____
ROOT
ATOM      1  C   UNL     1       4.436   6.093  17.525  0.00  0.00    +0.000 A 
ATOM      2  C   UNL     1       5.280   6.331  16.410  0.00  0.00    +0.000 A 
ATOM      3  C   UNL     1       5.768   5.295  15.618  0.00  0.00    +0.000 A 
ATOM      4  C   UNL     1       6.637   5.563  14.425  0.00  0.00    +0.000 C 
ATOM      5  C   UNL     1       5.408   4.000  15.960  0.00  0.00    +0.000 A 
ATOM      6  C   UNL     1       4.606   3.764  17.092  0.00  0.00    +0.000 A 
ATOM      7  O   UNL     1       4.319   2.398  17.296  0.00  0.00    +0.000 OA
ATOM      8  C   UNL     1       3.486   1.962  18.302  0.00  0.00    +0.000 A 
ATOM      9  O   UNL     1       3.205   0.777  18.430  0.00  0.00    +0.000 OA
ATOM     10  C   UNL     1       2.987   2.987  19.240  0.00  0.00    +0.000 A 
ATOM     11  C   UNL     1       3.307   4.292  19.117  0.00  0.00    +0.000 A 
ATOM     12  C   UNL     1       4.109   4.771  17.938  0.00  0.00    +0.000 A 
ATOM     13  C   UNL     1       2.802   5.226  20.185  0.00  0.00    +0.000 C 
ATOM     14  C   UNL     1       2.177   4.650  21.447  0.00  0.00    +0.000 C 
ATOM     15  C   UNL     1       1.250   3.525  21.034  0.00  0.00    +0.000 C 
ATOM     16  C   UNL     1       2.071   2.450  20.323  0.00  0.00    +0.000 C 
ENDROOT
BRANCH   1  17
ATOM     17  O   UNL     1       4.032   7.291  18.070  0.00  0.00    +0.000 OA
BRANCH  17  18
ATOM     18  C   UNL     1       2.657   7.555  17.951  0.00  0.00    +0.000 C 
BRANCH  18  20
ATOM     19  N   UNL     1       1.271   9.107  19.307  0.00  0.00    +0.000 N 
ATOM     20  C   UNL     1       2.028   8.920  18.146  0.00  0.00    +0.000 C 
ATOM     21  O   UNL     1       2.064   9.739  17.228  0.00  0.00    +0.000 OA
BRANCH  19  23
ATOM     22  C   UNL     1      -0.836  10.386  19.115  0.00  0.00    +0.000 C 
ATOM     23  C   UNL     1       0.653  10.422  19.421  0.00  0.00    +0.000 C 
ENDBRANCH  19  23
BRANCH  19  24
ATOM     24  C   UNL     1       1.407   8.216  20.471  0.00  0.00    +0.000 C 
ATOM     25  C   UNL     1       1.225   8.844  21.840  0.00  0.00    +0.000 C 
ENDBRANCH  19  24
ENDBRANCH  18  20
ENDBRANCH  17  18
ENDBRANCH   1  17
TORSDOF 5
ENDMDL
