MODEL 1
REMARK VINA RESULT:      -6.8      0.000      0.000
REMARK  Name = 
REMARK  8 active torsions:
REMARK  status: ('A' for Active; 'I' for Inactive)
REMARK    1  A    between atoms: C_1  and  O_2
REMARK    2  A    between atoms: O_2  and  C_3
REMARK    3  A    between atoms: C_5  and  C_6
REMARK    4  A    between atoms: C_14  and  O_15
REMARK    5  A    between atoms: C_19  and  O_20
REMARK    6  A    between atoms: O_20  and  C_21
REMARK    7  A    between atoms: C_22  and  O_23
REMARK    8  A    between atoms: O_23  and  C_24
REMARK                            x       y       z     vdW  Elec       q    Type
REMARK                         _______ _______ _______ _____ _____    ______ ____
ROOT
ATOM      1  C   UNL     1       3.749   4.404  16.676  0.00  0.00    +0.000 C 
ATOM      2  C   UNL     1       4.941   4.538  16.026  0.00  0.00    +0.000 C 
ATOM      3  C   UNL     1       5.942   5.388  16.747  0.00  0.00    +0.000 C 
ATOM      4  O   UNL     1       6.143   5.406  17.958  0.00  0.00    +0.000 OA
ATOM      5  N   UNL     1       6.736   5.947  15.802  0.00  0.00    +0.000 N 
ATOM      6  C   UNL     1       6.641   5.204  14.634  0.00  0.00    +0.000 A 
ATOM      7  C   UNL     1       7.574   5.346  13.618  0.00  0.00    +0.000 A 
ATOM      8  C   UNL     1       7.553   4.419  12.601  0.00  0.00    +0.000 A 
ATOM      9  C   UNL     1       6.568   3.440  12.610  0.00  0.00    +0.000 A 
ATOM     10  C   UNL     1       5.579   3.329  13.651  0.00  0.00    +0.000 A 
ATOM     11  C   UNL     1       5.625   4.222  14.715  0.00  0.00    +0.000 A 
ATOM     12  H   UNL     1       6.721   6.955  15.740  0.00  0.00    +0.000 HD
ENDROOT
BRANCH   1  15
ATOM     13  C   UNL     1       2.533   7.501  18.741  0.00  0.00    +0.000 A 
ATOM     14  C   UNL     1       3.058   6.657  17.712  0.00  0.00    +0.000 A 
ATOM     15  C   UNL     1       3.258   5.266  17.867  0.00  0.00    +0.000 A 
ATOM     16  C   UNL     1       2.907   4.758  19.129  0.00  0.00    +0.000 A 
ATOM     17  C   UNL     1       2.412   5.596  20.193  0.00  0.00    +0.000 A 
ATOM     18  C   UNL     1       2.230   6.987  20.014  0.00  0.00    +0.000 A 
BRANCH  13  20
ATOM     19  C   UNL     1       1.198   9.211  17.777  0.00  0.00    +0.000 C 
ATOM     20  O   UNL     1       2.344   8.849  18.541  0.00  0.00    +0.000 OA
ENDBRANCH  13  20
BRANCH  17  21
ATOM     21  O   UNL     1       2.136   4.882  21.349  0.00  0.00    +0.000 OA
ATOM     22  C   UNL     1       2.178   3.452  21.335  0.00  0.00    +0.000 C 
ENDBRANCH  17  21
BRANCH  18  23
ATOM     23  O   UNL     1       1.788   7.679  21.103  0.00  0.00    +0.000 OA
ATOM     24  C   UNL     1       0.482   8.219  21.257  0.00  0.00    +0.000 C 
ENDBRANCH  18  23
ENDBRANCH   1  15
BRANCH   9  25
ATOM     25  O   UNL     1       6.598   2.471  11.636  0.00  0.00    +0.000 OA
ATOM     26  H   UNL     1       6.114   1.688  11.953  0.00  0.00    +0.000 HD
ENDBRANCH   9  25
TORSDOF 5
ENDMDL
MODEL 2
REMARK VINA RESULT:      -6.6      0.183      2.631
REMARK  Name = 
REMARK  8 active torsions:
REMARK  status: ('A' for Active; 'I' for Inactive)
REMARK    1  A    between atoms: C_1  and  O_2
REMARK    2  A    between atoms: O_2  and  C_3
REMARK    3  A    between atoms: C_5  and  C_6
REMARK    4  A    between atoms: C_14  and  O_15
REMARK    5  A    between atoms: C_19  and  O_20
REMARK    6  A    between atoms: O_20  and  C_21
REMARK    7  A    between atoms: C_22  and  O_23
REMARK    8  A    between atoms: O_23  and  C_24
REMARK                            x       y       z     vdW  Elec       q    Type
REMARK                         _______ _______ _______ _____ _____    ______ ____
ROOT
ATOM      1  C   UNL     1       3.673   4.302  16.649  0.00  0.00    +0.000 C 
ATOM      2  C   UNL     1       4.867   4.475  16.012  0.00  0.00    +0.000 C 
ATOM      3  C   UNL     1       5.830   5.361  16.741  0.00  0.00    +0.000 C 
ATOM      4  O   UNL     1       6.016   5.391  17.955  0.00  0.00    +0.000 OA
ATOM      5  N   UNL     1       6.614   5.945  15.803  0.00  0.00    +0.000 N 
ATOM      6  C   UNL     1       6.558   5.195  14.637  0.00  0.00    +0.000 A 
ATOM      7  C   UNL     1       7.498   5.366  13.631  0.00  0.00    +0.000 A 
ATOM      8  C   UNL     1       7.521   4.436  12.617  0.00  0.00    +0.000 A 
ATOM      9  C   UNL     1       6.571   3.423  12.618  0.00  0.00    +0.000 A 
ATOM     10  C   UNL     1       5.574   3.282  13.649  0.00  0.00    +0.000 A 
ATOM     11  C   UNL     1       5.577   4.179  14.710  0.00  0.00    +0.000 A 
ATOM     12  H   UNL     1       6.565   6.951  15.737  0.00  0.00    +0.000 HD
ENDROOT
BRANCH   1  15
ATOM     13  C   UNL     1       2.449   5.282  20.238  0.00  0.00    +0.000 A 
ATOM     14  C   UNL     1       2.869   4.550  19.081  0.00  0.00    +0.000 A 
ATOM     15  C   UNL     1       3.139   5.150  17.831  0.00  0.00    +0.000 A 
ATOM     16  C   UNL     1       2.956   6.544  17.795  0.00  0.00    +0.000 A 
ATOM     17  C   UNL     1       2.497   7.296  18.936  0.00  0.00    +0.000 A 
ATOM     18  C   UNL     1       2.225   6.668  20.174  0.00  0.00    +0.000 A 
BRANCH  13  20
ATOM     19  C   UNL     1       2.201   3.232  21.409  0.00  0.00    +0.000 C 
ATOM     20  O   UNL     1       2.209   4.655  21.439  0.00  0.00    +0.000 OA
ENDBRANCH  13  20
BRANCH  17  21
ATOM     21  O   UNL     1       2.385   8.651  18.670  0.00  0.00    +0.000 OA
ATOM     22  C   UNL     1       1.356   9.128  17.798  0.00  0.00    +0.000 C 
ENDBRANCH  17  21
BRANCH  18  23
ATOM     23  O   UNL     1       1.766   7.478  21.170  0.00  0.00    +0.000 OA
ATOM     24  C   UNL     1       0.459   8.033  21.238  0.00  0.00    +0.000 C 
ENDBRANCH  18  23
ENDBRANCH   1  15
BRANCH   9  25
ATOM     25  O   UNL     1       6.645   2.452  11.648  0.00  0.00    +0.000 OA
ATOM     26  H   UNL     1       7.581   2.246  11.478  0.00  0.00    +0.000 HD
ENDBRANCH   9  25
TORSDOF 5
ENDMDL
MODEL 3
REMARK VINA RESULT:      -6.6      3.453      7.865
REMARK  Name = 
REMARK  8 active torsions:
REMARK  status: ('A' for Active; 'I' for Inactive)
REMARK    1  A    between atoms: C_1  and  O_2
REMARK    2  A    between atoms: O_2  and  C_3
REMARK    3  A    between atoms: C_5  and  C_6
REMARK    4  A    between atoms: C_14  and  O_15
REMARK    5  A    between atoms: C_19  and  O_20
REMARK    6  A    between atoms: O_20  and  C_21
REMARK    7  A    between atoms: C_22  and  O_23
REMARK    8  A    between atoms: O_23  and  C_24
REMARK                            x       y       z     vdW  Elec       q    Type
REMARK                         _______ _______ _______ _____ _____    ______ ____
ROOT
ATOM      1  C   UNL     1       2.315   8.246  17.954  0.00  0.00    +0.000 C 
ATOM      2  C   UNL     1       1.572   8.970  18.839  0.00  0.00    +0.000 C 
ATOM      3  C   UNL     1       1.462   8.352  20.199  0.00  0.00    +0.000 C 
ATOM      4  O   UNL     1       2.355   7.770  20.809  0.00  0.00    +0.000 OA
ATOM      5  N   UNL     1       0.279   8.758  20.721  0.00  0.00    +0.000 N 
ATOM      6  C   UNL     1      -0.143   9.897  20.052  0.00  0.00    +0.000 A 
ATOM      7  C   UNL     1      -1.138  10.708  20.577  0.00  0.00    +0.000 A 
ATOM      8  C   UNL     1      -1.339  11.934  19.984  0.00  0.00    +0.000 A 
ATOM      9  C   UNL     1      -0.589  12.264  18.863  0.00  0.00    +0.000 A 
ATOM     10  C   UNL     1       0.414  11.395  18.304  0.00  0.00    +0.000 A 
ATOM     11  C   UNL     1       0.669  10.179  18.928  0.00  0.00    +0.000 A 
ATOM     12  H   UNL     1      -0.396   8.035  20.923  0.00  0.00    +0.000 HD
ENDROOT
BRANCH   1  15
ATOM     13  C   UNL     1       2.179   4.333  18.045  0.00  0.00    +0.000 A 
ATOM     14  C   UNL     1       1.827   5.719  17.977  0.00  0.00    +0.000 A 
ATOM     15  C   UNL     1       2.759   6.771  18.128  0.00  0.00    +0.000 A 
ATOM     16  C   UNL     1       4.081   6.356  18.362  0.00  0.00    +0.000 A 
ATOM     17  C   UNL     1       4.452   4.968  18.472  0.00  0.00    +0.000 A 
ATOM     18  C   UNL     1       3.497   3.934  18.327  0.00  0.00    +0.000 A 
BRANCH  13  20
ATOM     19  C   UNL     1       0.656   2.831  19.074  0.00  0.00    +0.000 C 
ATOM     20  O   UNL     1       1.239   3.341  17.880  0.00  0.00    +0.000 OA
ENDBRANCH  13  20
BRANCH  17  21
ATOM     21  O   UNL     1       5.807   4.796  18.709  0.00  0.00    +0.000 OA
ATOM     22  C   UNL     1       6.725   4.742  17.614  0.00  0.00    +0.000 C 
ENDBRANCH  17  21
BRANCH  18  23
ATOM     23  O   UNL     1       3.962   2.662  18.485  0.00  0.00    +0.000 OA
ATOM     24  C   UNL     1       4.229   2.036  19.733  0.00  0.00    +0.000 C 
ENDBRANCH  18  23
ENDBRANCH   1  15
BRANCH   9  25
ATOM     25  O   UNL     1      -0.737  13.519  18.321  0.00  0.00    +0.000 OA
ATOM     26  H   UNL     1      -1.005  14.138  19.024  0.00  0.00    +0.000 HD
ENDBRANCH   9  25
TORSDOF 5
ENDMDL
MODEL 4
REMARK VINA RESULT:      -6.6      3.416      7.662
REMARK  Name = 
REMARK  8 active torsions:
REMARK  status: ('A' for Active; 'I' for Inactive)
REMARK    1  A    between atoms: C_1  and  O_2
REMARK    2  A    between atoms: O_2  and  C_3
REMARK    3  A    between atoms: C_5  and  C_6
REMARK    4  A    between atoms: C_14  and  O_15
REMARK    5  A    between atoms: C_19  and  O_20
REMARK    6  A    between atoms: O_20  and  C_21
REMARK    7  A    between atoms: C_22  and  O_23
REMARK    8  A    between atoms: O_23  and  C_24
REMARK                            x       y       z     vdW  Elec       q    Type
REMARK                         _______ _______ _______ _____ _____    ______ ____
ROOT
ATOM      1  C   UNL     1       2.654   8.047  17.942  0.00  0.00    +0.000 C 
ATOM      2  C   UNL     1       1.917   8.743  18.854  0.00  0.00    +0.000 C 
ATOM      3  C   UNL     1       1.684   8.014  20.141  0.00  0.00    +0.000 C 
ATOM      4  O   UNL     1       2.496   7.311  20.737  0.00  0.00    +0.000 OA
ATOM      5  N   UNL     1       0.507   8.462  20.640  0.00  0.00    +0.000 N 
ATOM      6  C   UNL     1       0.208   9.688  20.062  0.00  0.00    +0.000 A 
ATOM      7  C   UNL     1      -0.753  10.522  20.612  0.00  0.00    +0.000 A 
ATOM      8  C   UNL     1      -0.830  11.809  20.129  0.00  0.00    +0.000 A 
ATOM      9  C   UNL     1       0.006  12.181  19.084  0.00  0.00    +0.000 A 
ATOM     10  C   UNL     1       0.972  11.290  18.495  0.00  0.00    +0.000 A 
ATOM     11  C   UNL     1       1.101  10.006  19.012  0.00  0.00    +0.000 A 
ATOM     12  H   UNL     1      -0.230   7.779  20.738  0.00  0.00    +0.000 HD
ENDROOT
BRANCH   1  15
ATOM     13  C   UNL     1       4.655   4.709  18.386  0.00  0.00    +0.000 A 
ATOM     14  C   UNL     1       4.296   6.088  18.243  0.00  0.00    +0.000 A 
ATOM     15  C   UNL     1       2.978   6.532  17.996  0.00  0.00    +0.000 A 
ATOM     16  C   UNL     1       2.022   5.507  17.888  0.00  0.00    +0.000 A 
ATOM     17  C   UNL     1       2.366   4.111  17.988  0.00  0.00    +0.000 A 
ATOM     18  C   UNL     1       3.697   3.693  18.228  0.00  0.00    +0.000 A 
BRANCH  13  20
ATOM     19  C   UNL     1       6.905   4.650  17.634  0.00  0.00    +0.000 C 
ATOM     20  O   UNL     1       5.951   4.324  18.639  0.00  0.00    +0.000 OA
ENDBRANCH  13  20
BRANCH  17  21
ATOM     21  O   UNL     1       1.267   3.279  17.846  0.00  0.00    +0.000 OA
ATOM     22  C   UNL     1       0.629   2.729  19.002  0.00  0.00    +0.000 C 
ENDBRANCH  17  21
BRANCH  18  23
ATOM     23  O   UNL     1       3.904   2.346  18.270  0.00  0.00    +0.000 OA
ATOM     24  C   UNL     1       4.105   1.584  19.454  0.00  0.00    +0.000 C 
ENDBRANCH  18  23
ENDBRANCH   1  15
BRANCH   9  25
ATOM     25  O   UNL     1      -0.019  13.487  18.657  0.00  0.00    +0.000 OA
ATOM     26  H   UNL     1      -0.945  13.765  18.542  0.00  0.00    +0.000 HD
ENDBRANCH   9  25
TORSDOF 5
ENDMDL
MODEL 5
REMARK VINA RESULT:      -6.6      2.540      7.854
REMARK  Name = 
REMARK  8 active torsions:
REMARK  status: ('A' for Active; 'I' for Inactive)
REMARK    1  A    between atoms: C_1  and  O_2
REMARK    2  A    between atoms: O_2  and  C_3
REMARK    3  A    between atoms: C_5  and  C_6
REMARK    4  A    between atoms: C_14  and  O_15
REMARK    5  A    between atoms: C_19  and  O_20
REMARK    6  A    between atoms: O_20  and  C_21
REMARK    7  A    between atoms: C_22  and  O_23
REMARK    8  A    between atoms: O_23  and  C_24
REMARK                            x       y       z     vdW  Elec       q    Type
REMARK                         _______ _______ _______ _____ _____    ______ ____
ROOT
ATOM      1  C   UNL     1       2.552   6.556  19.900  0.00  0.00    +0.000 C 
ATOM      2  C   UNL     1       1.843   7.718  19.808  0.00  0.00    +0.000 C 
ATOM      3  C   UNL     1       1.720   8.253  18.415  0.00  0.00    +0.000 C 
ATOM      4  O   UNL     1       1.541   7.593  17.394  0.00  0.00    +0.000 OA
ATOM      5  N   UNL     1       1.606   9.600  18.519  0.00  0.00    +0.000 N 
ATOM      6  C   UNL     1       1.193   9.919  19.805  0.00  0.00    +0.000 A 
ATOM      7  C   UNL     1       0.686  11.176  20.101  0.00  0.00    +0.000 A 
ATOM      8  C   UNL     1       0.082  11.346  21.326  0.00  0.00    +0.000 A 
ATOM      9  C   UNL     1       0.070  10.282  22.218  0.00  0.00    +0.000 A 
ATOM     10  C   UNL     1       0.637   8.993  21.912  0.00  0.00    +0.000 A 
ATOM     11  C   UNL     1       1.197   8.790  20.656  0.00  0.00    +0.000 A 
ATOM     12  H   UNL     1       2.339  10.148  18.094  0.00  0.00    +0.000 HD
ENDROOT
BRANCH   1  15
ATOM     13  C   UNL     1       5.402   6.214  17.237  0.00  0.00    +0.000 A 
ATOM     14  C   UNL     1       4.477   6.727  18.201  0.00  0.00    +0.000 A 
ATOM     15  C   UNL     1       3.459   5.951  18.799  0.00  0.00    +0.000 A 
ATOM     16  C   UNL     1       3.409   4.614  18.368  0.00  0.00    +0.000 A 
ATOM     17  C   UNL     1       4.305   4.086  17.370  0.00  0.00    +0.000 A 
ATOM     18  C   UNL     1       5.310   4.888  16.781  0.00  0.00    +0.000 A 
BRANCH  13  20
ATOM     19  C   UNL     1       7.486   7.309  17.541  0.00  0.00    +0.000 C 
ATOM     20  O   UNL     1       6.386   7.006  16.690  0.00  0.00    +0.000 OA
ENDBRANCH  13  20
BRANCH  17  21
ATOM     21  O   UNL     1       4.069   2.748  17.097  0.00  0.00    +0.000 OA
ATOM     22  C   UNL     1       3.398   1.928  18.058  0.00  0.00    +0.000 C 
ENDBRANCH  17  21
BRANCH  18  23
ATOM     23  O   UNL     1       6.075   4.286  15.825  0.00  0.00    +0.000 OA
ATOM     24  C   UNL     1       5.827   4.334  14.426  0.00  0.00    +0.000 C 
ENDBRANCH  18  23
ENDBRANCH   1  15
BRANCH   9  25
ATOM     25  O   UNL     1      -0.601  10.431  23.408  0.00  0.00    +0.000 OA
ATOM     26  H   UNL     1      -0.806  11.374  23.540  0.00  0.00    +0.000 HD
ENDBRANCH   9  25
TORSDOF 5
ENDMDL
MODEL 6
REMARK VINA RESULT:      -6.5      2.535      8.148
REMARK  Name = 
REMARK  8 active torsions:
REMARK  status: ('A' for Active; 'I' for Inactive)
REMARK    1  A    between atoms: C_1  and  O_2
REMARK    2  A    between atoms: O_2  and  C_3
REMARK    3  A    between atoms: C_5  and  C_6
REMARK    4  A    between atoms: C_14  and  O_15
REMARK    5  A    between atoms: C_19  and  O_20
REMARK    6  A    between atoms: O_20  and  C_21
REMARK    7  A    between atoms: C_22  and  O_23
REMARK    8  A    between atoms: O_23  and  C_24
REMARK                            x       y       z     vdW  Elec       q    Type
REMARK                         _______ _______ _______ _____ _____    ______ ____
ROOT
ATOM      1  C   UNL     1       2.584   6.563  20.013  0.00  0.00    +0.000 C 
ATOM      2  C   UNL     1       1.865   7.716  19.884  0.00  0.00    +0.000 C 
ATOM      3  C   UNL     1       1.779   8.232  18.480  0.00  0.00    +0.000 C 
ATOM      4  O   UNL     1       1.639   7.557  17.463  0.00  0.00    +0.000 OA
ATOM      5  N   UNL     1       1.646   9.578  18.564  0.00  0.00    +0.000 N 
ATOM      6  C   UNL     1       1.189   9.909  19.831  0.00  0.00    +0.000 A 
ATOM      7  C   UNL     1       0.659  11.163  20.096  0.00  0.00    +0.000 A 
ATOM      8  C   UNL     1       0.016  11.341  21.299  0.00  0.00    +0.000 A 
ATOM      9  C   UNL     1      -0.012  10.288  22.204  0.00  0.00    +0.000 A 
ATOM     10  C   UNL     1       0.579   9.002  21.932  0.00  0.00    +0.000 A 
ATOM     11  C   UNL     1       1.180   8.790  20.697  0.00  0.00    +0.000 A 
ATOM     12  H   UNL     1       2.386  10.130  18.155  0.00  0.00    +0.000 HD
ENDROOT
BRANCH   1  15
ATOM     13  C   UNL     1       4.173   4.004  17.510  0.00  0.00    +0.000 A 
ATOM     14  C   UNL     1       3.388   4.610  18.542  0.00  0.00    +0.000 A 
ATOM     15  C   UNL     1       3.532   5.956  18.948  0.00  0.00    +0.000 A 
ATOM     16  C   UNL     1       4.527   6.673  18.261  0.00  0.00    +0.000 A 
ATOM     17  C   UNL     1       5.356   6.074  17.246  0.00  0.00    +0.000 A 
ATOM     18  C   UNL     1       5.196   4.721  16.865  0.00  0.00    +0.000 A 
BRANCH  13  20
ATOM     19  C   UNL     1       3.271   1.879  18.062  0.00  0.00    +0.000 C 
ATOM     20  O   UNL     1       3.989   2.692  17.140  0.00  0.00    +0.000 OA
ENDBRANCH  13  20
BRANCH  17  21
ATOM     21  O   UNL     1       6.270   6.967  16.709  0.00  0.00    +0.000 OA
ATOM     22  C   UNL     1       7.439   7.329  17.450  0.00  0.00    +0.000 C 
ENDBRANCH  17  21
BRANCH  18  23
ATOM     23  O   UNL     1       6.061   4.258  15.917  0.00  0.00    +0.000 OA
ATOM     24  C   UNL     1       5.816   4.252  14.517  0.00  0.00    +0.000 C 
ENDBRANCH  18  23
ENDBRANCH   1  15
BRANCH   9  25
ATOM     25  O   UNL     1      -0.721  10.443  23.371  0.00  0.00    +0.000 OA
ATOM     26  H   UNL     1      -1.113   9.587  23.620  0.00  0.00    +0.000 HD
ENDBRANCH   9  25
TORSDOF 5
ENDMDL
MODEL 7
REMARK VINA RESULT:      -6.4      2.867      5.069
REMARK  Name = 
REMARK  8 active torsions:
REMARK  status: ('A' for Active; 'I' for Inactive)
REMARK    1  A    between atoms: C_1  and  O_2
REMARK    2  A    between atoms: O_2  and  C_3
REMARK    3  A    between atoms: C_5  and  C_6
REMARK    4  A    between atoms: C_14  and  O_15
REMARK    5  A    between atoms: C_19  and  O_20
REMARK    6  A    between atoms: O_20  and  C_21
REMARK    7  A    between atoms: C_22  and  O_23
REMARK    8  A    between atoms: O_23  and  C_24
REMARK                            x       y       z     vdW  Elec       q    Type
REMARK                         _______ _______ _______ _____ _____    ______ ____
ROOT
ATOM      1  C   UNL     1       2.576   8.496  17.573  0.00  0.00    +0.000 C 
ATOM      2  C   UNL     1       3.288   7.374  17.882  0.00  0.00    +0.000 C 
ATOM      3  C   UNL     1       2.723   6.582  19.021  0.00  0.00    +0.000 C 
ATOM      4  O   UNL     1       1.532   6.375  19.244  0.00  0.00    +0.000 OA
ATOM      5  N   UNL     1       3.763   5.948  19.614  0.00  0.00    +0.000 N 
ATOM      6  C   UNL     1       4.823   5.888  18.721  0.00  0.00    +0.000 A 
ATOM      7  C   UNL     1       5.888   5.024  18.933  0.00  0.00    +0.000 A 
ATOM      8  C   UNL     1       6.779   4.848  17.898  0.00  0.00    +0.000 A 
ATOM      9  C   UNL     1       6.605   5.585  16.734  0.00  0.00    +0.000 A 
ATOM     10  C   UNL     1       5.517   6.509  16.544  0.00  0.00    +0.000 A 
ATOM     11  C   UNL     1       4.576   6.653  17.557  0.00  0.00    +0.000 A 
ATOM     12  H   UNL     1       3.951   6.192  20.575  0.00  0.00    +0.000 HD
ENDROOT
BRANCH   1  15
ATOM     13  C   UNL     1       0.795  10.092  20.673  0.00  0.00    +0.000 A 
ATOM     14  C   UNL     1       1.724   9.417  19.820  0.00  0.00    +0.000 A 
ATOM     15  C   UNL     1       1.483   9.154  18.453  0.00  0.00    +0.000 A 
ATOM     16  C   UNL     1       0.238   9.601  17.979  0.00  0.00    +0.000 A 
ATOM     17  C   UNL     1      -0.730  10.248  18.828  0.00  0.00    +0.000 A 
ATOM     18  C   UNL     1      -0.466  10.492  20.197  0.00  0.00    +0.000 A 
BRANCH  13  20
ATOM     19  C   UNL     1       0.632   9.354  22.923  0.00  0.00    +0.000 C 
ATOM     20  O   UNL     1       1.079  10.338  21.997  0.00  0.00    +0.000 OA
ENDBRANCH  13  20
BRANCH  17  21
ATOM     21  O   UNL     1      -1.886  10.598  18.149  0.00  0.00    +0.000 OA
ATOM     22  C   UNL     1      -2.209   9.962  16.909  0.00  0.00    +0.000 C 
ENDBRANCH  17  21
BRANCH  18  23
ATOM     23  O   UNL     1      -1.471  11.081  20.906  0.00  0.00    +0.000 OA
ATOM     24  C   UNL     1      -1.595  12.477  21.147  0.00  0.00    +0.000 C 
ENDBRANCH  18  23
ENDBRANCH   1  15
BRANCH   9  25
ATOM     25  O   UNL     1       7.450   5.349  15.676  0.00  0.00    +0.000 OA
ATOM     26  H   UNL     1       6.981   4.817  15.009  0.00  0.00    +0.000 HD
ENDBRANCH   9  25
TORSDOF 5
ENDMDL
MODEL 8
REMARK VINA RESULT:      -6.3      2.825      4.695
REMARK  Name = 
REMARK  8 active torsions:
REMARK  status: ('A' for Active; 'I' for Inactive)
REMARK    1  A    between atoms: C_1  and  O_2
REMARK    2  A    between atoms: O_2  and  C_3
REMARK    3  A    between atoms: C_5  and  C_6
REMARK    4  A    between atoms: C_14  and  O_15
REMARK    5  A    between atoms: C_19  and  O_20
REMARK    6  A    between atoms: O_20  and  C_21
REMARK    7  A    between atoms: C_22  and  O_23
REMARK    8  A    between atoms: O_23  and  C_24
REMARK                            x       y       z     vdW  Elec       q    Type
REMARK                         _______ _______ _______ _____ _____    ______ ____
ROOT
ATOM      1  C   UNL     1       2.618   8.422  17.592  0.00  0.00    +0.000 C 
ATOM      2  C   UNL     1       3.294   7.286  17.930  0.00  0.00    +0.000 C 
ATOM      3  C   UNL     1       2.722   6.559  19.108  0.00  0.00    +0.000 C 
ATOM      4  O   UNL     1       1.529   6.405  19.360  0.00  0.00    +0.000 OA
ATOM      5  N   UNL     1       3.749   5.907  19.704  0.00  0.00    +0.000 N 
ATOM      6  C   UNL     1       4.788   5.774  18.795  0.00  0.00    +0.000 A 
ATOM      7  C   UNL     1       5.824   4.879  19.019  0.00  0.00    +0.000 A 
ATOM      8  C   UNL     1       6.687   4.630  17.975  0.00  0.00    +0.000 A 
ATOM      9  C   UNL     1       6.518   5.331  16.788  0.00  0.00    +0.000 A 
ATOM     10  C   UNL     1       5.462   6.289  16.584  0.00  0.00    +0.000 A 
ATOM     11  C   UNL     1       4.547   6.505  17.608  0.00  0.00    +0.000 A 
ATOM     12  H   UNL     1       3.965   6.179  20.652  0.00  0.00    +0.000 HD
ENDROOT
BRANCH   1  15
ATOM     13  C   UNL     1      -0.744  10.091  18.709  0.00  0.00    +0.000 A 
ATOM     14  C   UNL     1       0.301   9.488  17.939  0.00  0.00    +0.000 A 
ATOM     15  C   UNL     1       1.569   9.154  18.467  0.00  0.00    +0.000 A 
ATOM     16  C   UNL     1       1.741   9.468  19.826  0.00  0.00    +0.000 A 
ATOM     17  C   UNL     1       0.717  10.111  20.611  0.00  0.00    +0.000 A 
ATOM     18  C   UNL     1      -0.541  10.443  20.054  0.00  0.00    +0.000 A 
BRANCH  13  20
ATOM     19  C   UNL     1      -2.044  11.612  17.432  0.00  0.00    +0.000 C 
ATOM     20  O   UNL     1      -1.968  10.388  18.155  0.00  0.00    +0.000 OA
ENDBRANCH  13  20
BRANCH  17  21
ATOM     21  O   UNL     1       1.109  10.328  21.922  0.00  0.00    +0.000 OA
ATOM     22  C   UNL     1       0.770   9.380  22.938  0.00  0.00    +0.000 C 
ENDBRANCH  17  21
BRANCH  18  23
ATOM     23  O   UNL     1      -1.416  11.077  20.886  0.00  0.00    +0.000 OA
ATOM     24  C   UNL     1      -1.532  12.486  21.033  0.00  0.00    +0.000 C 
ENDBRANCH  18  23
ENDBRANCH   1  15
BRANCH   9  25
ATOM     25  O   UNL     1       7.332   5.024  15.724  0.00  0.00    +0.000 OA
ATOM     26  H   UNL     1       7.086   5.584  14.966  0.00  0.00    +0.000 HD
ENDBRANCH   9  25
TORSDOF 5
ENDMDL
MODEL 9
REMARK VINA RESULT:      -6.2      2.969      5.171
REMARK  Name = 
REMARK  8 active torsions:
REMARK  status: ('A' for Active; 'I' for Inactive)
REMARK    1  A    between atoms: C_1  and  O_2
REMARK    2  A    between atoms: O_2  and  C_3
REMARK    3  A    between atoms: C_5  and  C_6
REMARK    4  A    between atoms: C_14  and  O_15
REMARK    5  A    between atoms: C_19  and  O_20
REMARK    6  A    between atoms: O_20  and  C_21
REMARK    7  A    between atoms: C_22  and  O_23
REMARK    8  A    between atoms: O_23  and  C_24
REMARK                            x       y       z     vdW  Elec       q    Type
REMARK                         _______ _______ _______ _____ _____    ______ ____
ROOT
ATOM      1  C   UNL     1       2.548   8.499  17.414  0.00  0.00    +0.000 C 
ATOM      2  C   UNL     1       3.215   7.389  17.845  0.00  0.00    +0.000 C 
ATOM      3  C   UNL     1       2.611   6.739  19.052  0.00  0.00    +0.000 C 
ATOM      4  O   UNL     1       1.412   6.599  19.280  0.00  0.00    +0.000 OA
ATOM      5  N   UNL     1       3.622   6.132  19.719  0.00  0.00    +0.000 N 
ATOM      6  C   UNL     1       4.687   5.942  18.850  0.00  0.00    +0.000 A 
ATOM      7  C   UNL     1       5.717   5.067  19.161  0.00  0.00    +0.000 A 
ATOM      8  C   UNL     1       6.609   4.754  18.161  0.00  0.00    +0.000 A 
ATOM      9  C   UNL     1       6.474   5.374  16.926  0.00  0.00    +0.000 A 
ATOM     10  C   UNL     1       5.422   6.313  16.630  0.00  0.00    +0.000 A 
ATOM     11  C   UNL     1       4.479   6.593  17.611  0.00  0.00    +0.000 A 
ATOM     12  H   UNL     1       3.810   6.466  20.653  0.00  0.00    +0.000 HD
ENDROOT
BRANCH   1  15
ATOM     13  C   UNL     1       0.916  10.909  20.034  0.00  0.00    +0.000 A 
ATOM     14  C   UNL     1       1.841  10.097  19.304  0.00  0.00    +0.000 A 
ATOM     15  C   UNL     1       1.473   9.283  18.209  0.00  0.00    +0.000 A 
ATOM     16  C   UNL     1       0.106   9.318  17.884  0.00  0.00    +0.000 A 
ATOM     17  C   UNL     1      -0.850  10.098  18.628  0.00  0.00    +0.000 A 
ATOM     18  C   UNL     1      -0.455  10.898  19.727  0.00  0.00    +0.000 A 
BRANCH  13  20
ATOM     19  C   UNL     1       1.809  12.990  20.747  0.00  0.00    +0.000 C 
ATOM     20  O   UNL     1       1.323  11.696  21.087  0.00  0.00    +0.000 OA
ENDBRANCH  13  20
BRANCH  17  21
ATOM     21  O   UNL     1      -2.138   9.977  18.132  0.00  0.00    +0.000 OA
ATOM     22  C   UNL     1      -2.367   9.993  16.720  0.00  0.00    +0.000 C 
ENDBRANCH  17  21
BRANCH  18  23
ATOM     23  O   UNL     1      -1.454  11.565  20.373  0.00  0.00    +0.000 OA
ATOM     24  C   UNL     1      -1.899  12.878  20.060  0.00  0.00    +0.000 C 
ENDBRANCH  18  23
ENDBRANCH   1  15
BRANCH   9  25
ATOM     25  O   UNL     1       7.318   5.001  15.908  0.00  0.00    +0.000 OA
ATOM     26  H   UNL     1       7.896   4.283  16.223  0.00  0.00    +0.000 HD
ENDBRANCH   9  25
TORSDOF 5
ENDMDL
