MODEL 1
REMARK VINA RESULT:      -7.7      0.000      0.000
REMARK  Name = 
REMARK  11 active torsions:
REMARK  status: ('A' for Active; 'I' for Inactive)
REMARK    1  A    between atoms: C_1  and  O_2
REMARK    2  A    between atoms: O_2  and  C_3
REMARK    3  A    between atoms: C_6  and  C_7
REMARK    4  A    between atoms: C_7  and  C_8
REMARK    5  A    between atoms: C_8  and  N_9
REMARK    6  A    between atoms: C_12  and  C_13
REMARK    7  A    between atoms: C_13  and  C_14
REMARK    8  A    between atoms: C_14  and  C_15
REMARK    9  A    between atoms: C_20  and  O_21
REMARK   10  A    between atoms: O_21  and  C_22
REMARK   11  A    between atoms: C_22  and  C_23
REMARK                            x       y       z     vdW  Elec       q    Type
REMARK                         _______ _______ _______ _____ _____    ______ ____
ROOT
ATOM      1  N   UNL     1       1.492   4.498  19.674  0.00  0.00    +0.000 NA
ATOM      2  C   UNL     1       1.888   4.799  18.288  0.00  0.00    +0.000 C 
ATOM      3  C   UNL     1       1.724   3.596  17.355  0.00  0.00    +0.000 C 
ATOM      4  C   UNL     1       2.455   2.347  17.868  0.00  0.00    +0.000 C 
ATOM      5  C   UNL     1       1.974   2.094  19.303  0.00  0.00    +0.000 C 
ATOM      6  C   UNL     1       2.198   3.315  20.196  0.00  0.00    +0.000 C 
ENDROOT
BRANCH   1   7
ATOM      7  C   UNL     1       1.732   5.646  20.574  0.00  0.00    +0.000 C 
BRANCH   7   8
ATOM      8  C   UNL     1       2.660   6.714  19.975  0.00  0.00    +0.000 C 
BRANCH   8  12
ATOM      9  C   UNL     1       0.522  10.340  19.009  0.00  0.00    +0.000 A 
ATOM     10  C   UNL     1       1.313   9.709  18.047  0.00  0.00    +0.000 A 
ATOM     11  C   UNL     1       2.002   8.533  18.357  0.00  0.00    +0.000 A 
ATOM     12  C   UNL     1       1.912   7.982  19.641  0.00  0.00    +0.000 A 
ATOM     13  C   UNL     1       1.146   8.633  20.610  0.00  0.00    +0.000 A 
ATOM     14  C   UNL     1       0.451   9.804  20.295  0.00  0.00    +0.000 A 
BRANCH   9  16
ATOM     15  C   UNL     1      -1.503  11.388  18.403  0.00  0.00    +0.000 C 
ATOM     16  O   UNL     1      -0.096  11.483  18.591  0.00  0.00    +0.000 OA
ENDBRANCH   9  16
ENDBRANCH   8  12
ENDBRANCH   7   8
ENDBRANCH   1   7
BRANCH   4  17
ATOM     17  C   UNL     1       3.993   2.487  17.740  0.00  0.00    +0.000 C 
BRANCH  17  18
ATOM     18  C   UNL     1       4.414   3.657  16.827  0.00  0.00    +0.000 C 
BRANCH  18  19
ATOM     19  C   UNL     1       5.533   4.555  17.324  0.00  0.00    +0.000 A 
ATOM     20  C   UNL     1       5.866   4.594  18.691  0.00  0.00    +0.000 A 
ATOM     21  C   UNL     1       6.806   5.500  19.182  0.00  0.00    +0.000 A 
ATOM     22  C   UNL     1       7.405   6.412  18.323  0.00  0.00    +0.000 A 
ATOM     23  C   UNL     1       7.095   6.389  16.966  0.00  0.00    +0.000 A 
ATOM     24  C   UNL     1       6.195   5.446  16.447  0.00  0.00    +0.000 A 
BRANCH  24  25
ATOM     25  O   UNL     1       5.918   5.349  15.100  0.00  0.00    +0.000 OA
BRANCH  25  26
ATOM     26  C   UNL     1       6.886   4.625  14.327  0.00  0.00    +0.000 C 
BRANCH  26  27
ATOM     27  C   UNL     1       6.210   3.728  13.306  0.00  0.00    +0.000 C 
ATOM     28  F   UNL     1       6.692   4.034  12.069  0.00  0.00    +0.000 F 
ENDBRANCH  26  27
ENDBRANCH  25  26
ENDBRANCH  24  25
ENDBRANCH  18  19
ENDBRANCH  17  18
ENDBRANCH   4  17
TORSDOF 10
ENDMDL
MODEL 2
REMARK VINA RESULT:      -7.5      4.754      7.521
REMARK  Name = 
REMARK  11 active torsions:
REMARK  status: ('A' for Active; 'I' for Inactive)
REMARK    1  A    between atoms: C_1  and  O_2
REMARK    2  A    between atoms: O_2  and  C_3
REMARK    3  A    between atoms: C_6  and  C_7
REMARK    4  A    between atoms: C_7  and  C_8
REMARK    5  A    between atoms: C_8  and  N_9
REMARK    6  A    between atoms: C_12  and  C_13
REMARK    7  A    between atoms: C_13  and  C_14
REMARK    8  A    between atoms: C_14  and  C_15
REMARK    9  A    between atoms: C_20  and  O_21
REMARK   10  A    between atoms: O_21  and  C_22
REMARK   11  A    between atoms: C_22  and  C_23
REMARK                            x       y       z     vdW  Elec       q    Type
REMARK                         _______ _______ _______ _____ _____    ______ ____
ROOT
ATOM      1  N   UNL     1       7.778   7.103  17.733  0.00  0.00    +0.000 NA
ATOM      2  C   UNL     1       7.827   5.872  18.539  0.00  0.00    +0.000 C 
ATOM      3  C   UNL     1       7.301   4.651  17.779  0.00  0.00    +0.000 C 
ATOM      4  C   UNL     1       5.891   4.871  17.212  0.00  0.00    +0.000 C 
ATOM      5  C   UNL     1       5.933   6.156  16.375  0.00  0.00    +0.000 C 
ATOM      6  C   UNL     1       6.429   7.347  17.195  0.00  0.00    +0.000 C 
ENDROOT
BRANCH   1   7
ATOM      7  C   UNL     1       8.216   8.282  18.509  0.00  0.00    +0.000 C 
BRANCH   7   8
ATOM      8  C   UNL     1       8.223   9.586  17.696  0.00  0.00    +0.000 C 
BRANCH   8  12
ATOM      9  C   UNL     1      10.428  12.706  19.711  0.00  0.00    +0.000 A 
ATOM     10  C   UNL     1      10.214  11.476  20.335  0.00  0.00    +0.000 A 
ATOM     11  C   UNL     1       9.504  10.465  19.683  0.00  0.00    +0.000 A 
ATOM     12  C   UNL     1       8.992  10.679  18.398  0.00  0.00    +0.000 A 
ATOM     13  C   UNL     1       9.181  11.922  17.789  0.00  0.00    +0.000 A 
ATOM     14  C   UNL     1       9.898  12.929  18.440  0.00  0.00    +0.000 A 
BRANCH   9  16
ATOM     15  C   UNL     1      11.088  14.956  19.972  0.00  0.00    +0.000 C 
ATOM     16  O   UNL     1      11.128  13.617  20.449  0.00  0.00    +0.000 OA
ENDBRANCH   9  16
ENDBRANCH   8  12
ENDBRANCH   7   8
ENDBRANCH   1   7
BRANCH   4  17
ATOM     17  C   UNL     1       4.817   4.886  18.329  0.00  0.00    +0.000 C 
BRANCH  17  18
ATOM     18  C   UNL     1       3.409   5.229  17.801  0.00  0.00    +0.000 C 
BRANCH  18  19
ATOM     19  C   UNL     1       2.686   6.389  18.461  0.00  0.00    +0.000 A 
ATOM     20  C   UNL     1       2.502   7.603  17.771  0.00  0.00    +0.000 A 
ATOM     21  C   UNL     1       1.950   8.718  18.402  0.00  0.00    +0.000 A 
ATOM     22  C   UNL     1       1.604   8.654  19.744  0.00  0.00    +0.000 A 
ATOM     23  C   UNL     1       1.771   7.463  20.446  0.00  0.00    +0.000 A 
ATOM     24  C   UNL     1       2.272   6.316  19.811  0.00  0.00    +0.000 A 
BRANCH  24  25
ATOM     25  O   UNL     1       2.385   5.102  20.455  0.00  0.00    +0.000 OA
BRANCH  25  26
ATOM     26  C   UNL     1       1.182   4.323  20.506  0.00  0.00    +0.000 C 
BRANCH  26  27
ATOM     27  C   UNL     1       1.495   2.845  20.659  0.00  0.00    +0.000 C 
ATOM     28  F   UNL     1       2.575   2.546  19.884  0.00  0.00    +0.000 F 
ENDBRANCH  26  27
ENDBRANCH  25  26
ENDBRANCH  24  25
ENDBRANCH  18  19
ENDBRANCH  17  18
ENDBRANCH   4  17
TORSDOF 10
ENDMDL
MODEL 3
REMARK VINA RESULT:      -7.4      1.647      1.978
REMARK  Name = 
REMARK  11 active torsions:
REMARK  status: ('A' for Active; 'I' for Inactive)
REMARK    1  A    between atoms: C_1  and  O_2
REMARK    2  A    between atoms: O_2  and  C_3
REMARK    3  A    between atoms: C_6  and  C_7
REMARK    4  A    between atoms: C_7  and  C_8
REMARK    5  A    between atoms: C_8  and  N_9
REMARK    6  A    between atoms: C_12  and  C_13
REMARK    7  A    between atoms: C_13  and  C_14
REMARK    8  A    between atoms: C_14  and  C_15
REMARK    9  A    between atoms: C_20  and  O_21
REMARK   10  A    between atoms: O_21  and  C_22
REMARK   11  A    between atoms: C_22  and  C_23
REMARK                            x       y       z     vdW  Elec       q    Type
REMARK                         _______ _______ _______ _____ _____    ______ ____
ROOT
ATOM      1  N   UNL     1       1.328   5.258  20.108  0.00  0.00    +0.000 NA
ATOM      2  C   UNL     1       1.903   5.319  18.753  0.00  0.00    +0.000 C 
ATOM      3  C   UNL     1       1.532   4.101  17.902  0.00  0.00    +0.000 C 
ATOM      4  C   UNL     1       1.892   2.773  18.584  0.00  0.00    +0.000 C 
ATOM      5  C   UNL     1       1.243   2.784  19.974  0.00  0.00    +0.000 C 
ATOM      6  C   UNL     1       1.679   4.001  20.790  0.00  0.00    +0.000 C 
ENDROOT
BRANCH   1   7
ATOM      7  C   UNL     1       1.762   6.402  20.938  0.00  0.00    +0.000 C 
BRANCH   7   8
ATOM      8  C   UNL     1       1.730   7.747  20.196  0.00  0.00    +0.000 C 
BRANCH   8  12
ATOM      9  C   UNL     1      -0.518  10.729  22.366  0.00  0.00    +0.000 A 
ATOM     10  C   UNL     1      -0.271  10.886  21.001  0.00  0.00    +0.000 A 
ATOM     11  C   UNL     1       0.453   9.920  20.297  0.00  0.00    +0.000 A 
ATOM     12  C   UNL     1       0.945   8.788  20.958  0.00  0.00    +0.000 A 
ATOM     13  C   UNL     1       0.723   8.650  22.330  0.00  0.00    +0.000 A 
ATOM     14  C   UNL     1      -0.008   9.613  23.030  0.00  0.00    +0.000 A 
BRANCH   9  16
ATOM     15  C   UNL     1      -0.849  13.057  22.565  0.00  0.00    +0.000 C 
ATOM     16  O   UNL     1      -1.230  11.740  22.946  0.00  0.00    +0.000 OA
ENDBRANCH   9  16
ENDBRANCH   8  12
ENDBRANCH   7   8
ENDBRANCH   1   7
BRANCH   4  17
ATOM     17  C   UNL     1       3.424   2.536  18.610  0.00  0.00    +0.000 C 
BRANCH  17  18
ATOM     18  C   UNL     1       4.137   3.088  17.360  0.00  0.00    +0.000 C 
BRANCH  18  19
ATOM     19  C   UNL     1       5.340   3.986  17.588  0.00  0.00    +0.000 A 
ATOM     20  C   UNL     1       5.521   4.639  18.822  0.00  0.00    +0.000 A 
ATOM     21  C   UNL     1       6.552   5.561  19.009  0.00  0.00    +0.000 A 
ATOM     22  C   UNL     1       7.399   5.876  17.955  0.00  0.00    +0.000 A 
ATOM     23  C   UNL     1       7.242   5.239  16.727  0.00  0.00    +0.000 A 
ATOM     24  C   UNL     1       6.246   4.268  16.540  0.00  0.00    +0.000 A 
BRANCH  24  25
ATOM     25  O   UNL     1       6.107   3.567  15.361  0.00  0.00    +0.000 OA
BRANCH  25  26
ATOM     26  C   UNL     1       5.800   4.365  14.209  0.00  0.00    +0.000 C 
BRANCH  26  27
ATOM     27  C   UNL     1       6.345   3.728  12.943  0.00  0.00    +0.000 C 
ATOM     28  F   UNL     1       5.322   3.106  12.292  0.00  0.00    +0.000 F 
ENDBRANCH  26  27
ENDBRANCH  25  26
ENDBRANCH  24  25
ENDBRANCH  18  19
ENDBRANCH  17  18
ENDBRANCH   4  17
TORSDOF 10
ENDMDL
MODEL 4
REMARK VINA RESULT:      -7.4      1.684      2.200
REMARK  Name = 
REMARK  11 active torsions:
REMARK  status: ('A' for Active; 'I' for Inactive)
REMARK    1  A    between atoms: C_1  and  O_2
REMARK    2  A    between atoms: O_2  and  C_3
REMARK    3  A    between atoms: C_6  and  C_7
REMARK    4  A    between atoms: C_7  and  C_8
REMARK    5  A    between atoms: C_8  and  N_9
REMARK    6  A    between atoms: C_12  and  C_13
REMARK    7  A    between atoms: C_13  and  C_14
REMARK    8  A    between atoms: C_14  and  C_15
REMARK    9  A    between atoms: C_20  and  O_21
REMARK   10  A    between atoms: O_21  and  C_22
REMARK   11  A    between atoms: C_22  and  C_23
REMARK                            x       y       z     vdW  Elec       q    Type
REMARK                         _______ _______ _______ _____ _____    ______ ____
ROOT
ATOM      1  N   UNL     1       1.632   5.752  19.757  0.00  0.00    +0.000 NA
ATOM      2  C   UNL     1       2.052   5.450  18.378  0.00  0.00    +0.000 C 
ATOM      3  C   UNL     1       1.521   4.101  17.884  0.00  0.00    +0.000 C 
ATOM      4  C   UNL     1       1.881   2.943  18.827  0.00  0.00    +0.000 C 
ATOM      5  C   UNL     1       1.393   3.330  20.229  0.00  0.00    +0.000 C 
ATOM      6  C   UNL     1       1.986   4.664  20.684  0.00  0.00    +0.000 C 
ENDROOT
BRANCH   1   7
ATOM      7  C   UNL     1       2.219   7.019  20.243  0.00  0.00    +0.000 C 
BRANCH   7   8
ATOM      8  C   UNL     1       1.649   8.267  19.550  0.00  0.00    +0.000 C 
BRANCH   8  12
ATOM      9  C   UNL     1      -0.408  10.839  22.343  0.00  0.00    +0.000 A 
ATOM     10  C   UNL     1      -0.042   9.544  22.714  0.00  0.00    +0.000 A 
ATOM     11  C   UNL     1       0.627   8.712  21.812  0.00  0.00    +0.000 A 
ATOM     12  C   UNL     1       0.929   9.168  20.523  0.00  0.00    +0.000 A 
ATOM     13  C   UNL     1       0.534  10.453  20.146  0.00  0.00    +0.000 A 
ATOM     14  C   UNL     1      -0.128  11.286  21.052  0.00  0.00    +0.000 A 
BRANCH   9  16
ATOM     15  C   UNL     1      -1.163  12.953  23.070  0.00  0.00    +0.000 C 
ATOM     16  O   UNL     1      -1.061  11.554  23.306  0.00  0.00    +0.000 OA
ENDBRANCH   9  16
ENDBRANCH   8  12
ENDBRANCH   7   8
ENDBRANCH   1   7
BRANCH   4  17
ATOM     17  C   UNL     1       3.389   2.596  18.762  0.00  0.00    +0.000 C 
BRANCH  17  18
ATOM     18  C   UNL     1       4.085   3.176  17.514  0.00  0.00    +0.000 C 
BRANCH  18  19
ATOM     19  C   UNL     1       5.330   4.014  17.742  0.00  0.00    +0.000 A 
ATOM     20  C   UNL     1       5.549   4.649  18.979  0.00  0.00    +0.000 A 
ATOM     21  C   UNL     1       6.623   5.519  19.167  0.00  0.00    +0.000 A 
ATOM     22  C   UNL     1       7.479   5.802  18.111  0.00  0.00    +0.000 A 
ATOM     23  C   UNL     1       7.285   5.182  16.879  0.00  0.00    +0.000 A 
ATOM     24  C   UNL     1       6.244   4.261  16.692  0.00  0.00    +0.000 A 
BRANCH  24  25
ATOM     25  O   UNL     1       6.065   3.576  15.508  0.00  0.00    +0.000 OA
BRANCH  25  26
ATOM     26  C   UNL     1       5.643   4.378  14.396  0.00  0.00    +0.000 C 
BRANCH  26  27
ATOM     27  C   UNL     1       6.568   4.192  13.206  0.00  0.00    +0.000 C 
ATOM     28  F   UNL     1       6.296   2.990  12.626  0.00  0.00    +0.000 F 
ENDBRANCH  26  27
ENDBRANCH  25  26
ENDBRANCH  24  25
ENDBRANCH  18  19
ENDBRANCH  17  18
ENDBRANCH   4  17
TORSDOF 10
ENDMDL
MODEL 5
REMARK VINA RESULT:      -7.3      4.752      7.350
REMARK  Name = 
REMARK  11 active torsions:
REMARK  status: ('A' for Active; 'I' for Inactive)
REMARK    1  A    between atoms: C_1  and  O_2
REMARK    2  A    between atoms: O_2  and  C_3
REMARK    3  A    between atoms: C_6  and  C_7
REMARK    4  A    between atoms: C_7  and  C_8
REMARK    5  A    between atoms: C_8  and  N_9
REMARK    6  A    between atoms: C_12  and  C_13
REMARK    7  A    between atoms: C_13  and  C_14
REMARK    8  A    between atoms: C_14  and  C_15
REMARK    9  A    between atoms: C_20  and  O_21
REMARK   10  A    between atoms: O_21  and  C_22
REMARK   11  A    between atoms: C_22  and  C_23
REMARK                            x       y       z     vdW  Elec       q    Type
REMARK                         _______ _______ _______ _____ _____    ______ ____
ROOT
ATOM      1  N   UNL     1       7.798   7.588  17.464  0.00  0.00    +0.000 NA
ATOM      2  C   UNL     1       7.969   6.685  18.614  0.00  0.00    +0.000 C 
ATOM      3  C   UNL     1       7.721   5.218  18.252  0.00  0.00    +0.000 C 
ATOM      4  C   UNL     1       6.354   4.997  17.588  0.00  0.00    +0.000 C 
ATOM      5  C   UNL     1       6.266   5.958  16.395  0.00  0.00    +0.000 C 
ATOM      6  C   UNL     1       6.484   7.409  16.824  0.00  0.00    +0.000 C 
ENDROOT
BRANCH   1   7
ATOM      7  C   UNL     1       7.964   9.005  17.851  0.00  0.00    +0.000 C 
BRANCH   7   8
ATOM      8  C   UNL     1       8.961   9.216  19.002  0.00  0.00    +0.000 C 
BRANCH   8  12
ATOM      9  C   UNL     1      10.455  13.267  19.094  0.00  0.00    +0.000 A 
ATOM     10  C   UNL     1      10.435  12.548  17.897  0.00  0.00    +0.000 A 
ATOM     11  C   UNL     1       9.948  11.239  17.866  0.00  0.00    +0.000 A 
ATOM     12  C   UNL     1       9.483  10.632  19.038  0.00  0.00    +0.000 A 
ATOM     13  C   UNL     1       9.534  11.342  20.239  0.00  0.00    +0.000 A 
ATOM     14  C   UNL     1      10.014  12.654  20.267  0.00  0.00    +0.000 A 
BRANCH   9  16
ATOM     15  C   UNL     1      10.278  15.401  18.105  0.00  0.00    +0.000 C 
ATOM     16  O   UNL     1      10.959  14.532  19.002  0.00  0.00    +0.000 OA
ENDBRANCH   9  16
ENDBRANCH   8  12
ENDBRANCH   7   8
ENDBRANCH   1   7
BRANCH   4  17
ATOM     17  C   UNL     1       5.191   5.149  18.601  0.00  0.00    +0.000 C 
BRANCH  17  18
ATOM     18  C   UNL     1       3.807   5.197  17.923  0.00  0.00    +0.000 C 
BRANCH  18  19
ATOM     19  C   UNL     1       2.622   4.702  18.731  0.00  0.00    +0.000 A 
ATOM     20  C   UNL     1       2.193   5.402  19.874  0.00  0.00    +0.000 A 
ATOM     21  C   UNL     1       1.185   4.897  20.697  0.00  0.00    +0.000 A 
ATOM     22  C   UNL     1       0.612   3.665  20.415  0.00  0.00    +0.000 A 
ATOM     23  C   UNL     1       1.017   2.957  19.286  0.00  0.00    +0.000 A 
ATOM     24  C   UNL     1       1.988   3.477  18.418  0.00  0.00    +0.000 A 
BRANCH  24  25
ATOM     25  O   UNL     1       2.362   2.837  17.255  0.00  0.00    +0.000 OA
BRANCH  25  26
ATOM     26  C   UNL     1       3.599   2.113  17.327  0.00  0.00    +0.000 C 
BRANCH  26  27
ATOM     27  C   UNL     1       3.678   1.294  18.602  0.00  0.00    +0.000 C 
ATOM     28  F   UNL     1       4.521   1.920  19.471  0.00  0.00    +0.000 F 
ENDBRANCH  26  27
ENDBRANCH  25  26
ENDBRANCH  24  25
ENDBRANCH  18  19
ENDBRANCH  17  18
ENDBRANCH   4  17
TORSDOF 10
ENDMDL
MODEL 6
REMARK VINA RESULT:      -7.3      3.533      7.407
REMARK  Name = 
REMARK  11 active torsions:
REMARK  status: ('A' for Active; 'I' for Inactive)
REMARK    1  A    between atoms: C_1  and  O_2
REMARK    2  A    between atoms: O_2  and  C_3
REMARK    3  A    between atoms: C_6  and  C_7
REMARK    4  A    between atoms: C_7  and  C_8
REMARK    5  A    between atoms: C_8  and  N_9
REMARK    6  A    between atoms: C_12  and  C_13
REMARK    7  A    between atoms: C_13  and  C_14
REMARK    8  A    between atoms: C_14  and  C_15
REMARK    9  A    between atoms: C_20  and  O_21
REMARK   10  A    between atoms: O_21  and  C_22
REMARK   11  A    between atoms: C_22  and  C_23
REMARK                            x       y       z     vdW  Elec       q    Type
REMARK                         _______ _______ _______ _____ _____    ______ ____
ROOT
ATOM      1  N   UNL     1       3.555   2.894  17.740  0.00  0.00    +0.000 NA
ATOM      2  C   UNL     1       4.006   2.880  19.142  0.00  0.00    +0.000 C 
ATOM      3  C   UNL     1       2.843   2.957  20.135  0.00  0.00    +0.000 C 
ATOM      4  C   UNL     1       1.923   4.158  19.874  0.00  0.00    +0.000 C 
ATOM      5  C   UNL     1       1.486   4.087  18.405  0.00  0.00    +0.000 C 
ATOM      6  C   UNL     1       2.687   4.051  17.461  0.00  0.00    +0.000 C 
ENDROOT
BRANCH   1   7
ATOM      7  C   UNL     1       4.695   2.899  16.799  0.00  0.00    +0.000 C 
BRANCH   7   8
ATOM      8  C   UNL     1       4.854   4.221  16.032  0.00  0.00    +0.000 C 
BRANCH   8  12
ATOM      9  C   UNL     1       7.595   6.910  18.009  0.00  0.00    +0.000 A 
ATOM     10  C   UNL     1       6.597   7.409  17.170  0.00  0.00    +0.000 A 
ATOM     11  C   UNL     1       5.707   6.540  16.533  0.00  0.00    +0.000 A 
ATOM     12  C   UNL     1       5.815   5.158  16.723  0.00  0.00    +0.000 A 
ATOM     13  C   UNL     1       6.833   4.660  17.539  0.00  0.00    +0.000 A 
ATOM     14  C   UNL     1       7.717   5.531  18.181  0.00  0.00    +0.000 A 
BRANCH   9  16
ATOM     15  C   UNL     1       8.282   9.167  18.037  0.00  0.00    +0.000 C 
ATOM     16  O   UNL     1       8.407   7.854  18.570  0.00  0.00    +0.000 OA
ENDBRANCH   9  16
ENDBRANCH   8  12
ENDBRANCH   7   8
ENDBRANCH   1   7
BRANCH   4  17
ATOM     17  C   UNL     1       2.600   5.497  20.261  0.00  0.00    +0.000 C 
BRANCH  17  18
ATOM     18  C   UNL     1       1.586   6.591  20.653  0.00  0.00    +0.000 C 
BRANCH  18  19
ATOM     19  C   UNL     1       1.544   7.838  19.789  0.00  0.00    +0.000 A 
ATOM     20  C   UNL     1       2.032   7.811  18.469  0.00  0.00    +0.000 A 
ATOM     21  C   UNL     1       2.114   8.974  17.702  0.00  0.00    +0.000 A 
ATOM     22  C   UNL     1       1.743  10.194  18.252  0.00  0.00    +0.000 A 
ATOM     23  C   UNL     1       1.252  10.244  19.554  0.00  0.00    +0.000 A 
ATOM     24  C   UNL     1       1.111   9.076  20.318  0.00  0.00    +0.000 A 
BRANCH  24  25
ATOM     25  O   UNL     1       0.563   9.080  21.584  0.00  0.00    +0.000 OA
BRANCH  25  26
ATOM     26  C   UNL     1       0.231  10.375  22.102  0.00  0.00    +0.000 C 
BRANCH  26  27
ATOM     27  C   UNL     1      -0.953  10.297  23.049  0.00  0.00    +0.000 C 
ATOM     28  F   UNL     1      -1.259  11.556  23.470  0.00  0.00    +0.000 F 
ENDBRANCH  26  27
ENDBRANCH  25  26
ENDBRANCH  24  25
ENDBRANCH  18  19
ENDBRANCH  17  18
ENDBRANCH   4  17
TORSDOF 10
ENDMDL
MODEL 7
REMARK VINA RESULT:      -7.3      3.346      6.819
REMARK  Name = 
REMARK  11 active torsions:
REMARK  status: ('A' for Active; 'I' for Inactive)
REMARK    1  A    between atoms: C_1  and  O_2
REMARK    2  A    between atoms: O_2  and  C_3
REMARK    3  A    between atoms: C_6  and  C_7
REMARK    4  A    between atoms: C_7  and  C_8
REMARK    5  A    between atoms: C_8  and  N_9
REMARK    6  A    between atoms: C_12  and  C_13
REMARK    7  A    between atoms: C_13  and  C_14
REMARK    8  A    between atoms: C_14  and  C_15
REMARK    9  A    between atoms: C_20  and  O_21
REMARK   10  A    between atoms: O_21  and  C_22
REMARK   11  A    between atoms: C_22  and  C_23
REMARK                            x       y       z     vdW  Elec       q    Type
REMARK                         _______ _______ _______ _____ _____    ______ ____
ROOT
ATOM      1  N   UNL     1       3.490   2.905  18.022  0.00  0.00    +0.000 NA
ATOM      2  C   UNL     1       3.858   3.586  19.275  0.00  0.00    +0.000 C 
ATOM      3  C   UNL     1       3.200   2.952  20.504  0.00  0.00    +0.000 C 
ATOM      4  C   UNL     1       1.673   2.853  20.370  0.00  0.00    +0.000 C 
ATOM      5  C   UNL     1       1.378   2.118  19.056  0.00  0.00    +0.000 C 
ATOM      6  C   UNL     1       2.028   2.816  17.862  0.00  0.00    +0.000 C 
ENDROOT
BRANCH   1   7
ATOM      7  C   UNL     1       4.071   3.578  16.842  0.00  0.00    +0.000 C 
BRANCH   7   8
ATOM      8  C   UNL     1       5.608   3.605  16.844  0.00  0.00    +0.000 C 
BRANCH   8  12
ATOM      9  C   UNL     1       7.129   7.587  17.543  0.00  0.00    +0.000 A 
ATOM     10  C   UNL     1       6.006   7.391  16.736  0.00  0.00    +0.000 A 
ATOM     11  C   UNL     1       5.511   6.103  16.512  0.00  0.00    +0.000 A 
ATOM     12  C   UNL     1       6.143   4.995  17.089  0.00  0.00    +0.000 A 
ATOM     13  C   UNL     1       7.284   5.192  17.870  0.00  0.00    +0.000 A 
ATOM     14  C   UNL     1       7.773   6.481  18.099  0.00  0.00    +0.000 A 
BRANCH   9  16
ATOM     15  C   UNL     1       8.685   9.095  18.475  0.00  0.00    +0.000 C 
ATOM     16  O   UNL     1       7.523   8.887  17.682  0.00  0.00    +0.000 OA
ENDBRANCH   9  16
ENDBRANCH   8  12
ENDBRANCH   7   8
ENDBRANCH   1   7
BRANCH   4  17
ATOM     17  C   UNL     1       0.994   4.242  20.477  0.00  0.00    +0.000 C 
BRANCH  17  18
ATOM     18  C   UNL     1       2.000   5.382  20.737  0.00  0.00    +0.000 C 
BRANCH  18  19
ATOM     19  C   UNL     1       1.953   6.574  19.798  0.00  0.00    +0.000 A 
ATOM     20  C   UNL     1       2.262   6.422  18.433  0.00  0.00    +0.000 A 
ATOM     21  C   UNL     1       2.343   7.524  17.582  0.00  0.00    +0.000 A 
ATOM     22  C   UNL     1       2.154   8.804  18.085  0.00  0.00    +0.000 A 
ATOM     23  C   UNL     1       1.843   8.978  19.431  0.00  0.00    +0.000 A 
ATOM     24  C   UNL     1       1.701   7.876  20.288  0.00  0.00    +0.000 A 
BRANCH  24  25
ATOM     25  O   UNL     1       1.326   8.007  21.608  0.00  0.00    +0.000 OA
BRANCH  25  26
ATOM     26  C   UNL     1       1.138   9.356  22.059  0.00  0.00    +0.000 C 
BRANCH  26  27
ATOM     27  C   UNL     1       0.034   9.435  23.099  0.00  0.00    +0.000 C 
ATOM     28  F   UNL     1      -1.033   8.711  22.658  0.00  0.00    +0.000 F 
ENDBRANCH  26  27
ENDBRANCH  25  26
ENDBRANCH  24  25
ENDBRANCH  18  19
ENDBRANCH  17  18
ENDBRANCH   4  17
TORSDOF 10
ENDMDL
MODEL 8
REMARK VINA RESULT:      -7.2      1.074      1.694
REMARK  Name = 
REMARK  11 active torsions:
REMARK  status: ('A' for Active; 'I' for Inactive)
REMARK    1  A    between atoms: C_1  and  O_2
REMARK    2  A    between atoms: O_2  and  C_3
REMARK    3  A    between atoms: C_6  and  C_7
REMARK    4  A    between atoms: C_7  and  C_8
REMARK    5  A    between atoms: C_8  and  N_9
REMARK    6  A    between atoms: C_12  and  C_13
REMARK    7  A    between atoms: C_13  and  C_14
REMARK    8  A    between atoms: C_14  and  C_15
REMARK    9  A    between atoms: C_20  and  O_21
REMARK   10  A    between atoms: O_21  and  C_22
REMARK   11  A    between atoms: C_22  and  C_23
REMARK                            x       y       z     vdW  Elec       q    Type
REMARK                         _______ _______ _______ _____ _____    ______ ____
ROOT
ATOM      1  N   UNL     1       1.725   2.970  19.864  0.00  0.00    +0.000 NA
ATOM      2  C   UNL     1       1.298   3.269  18.486  0.00  0.00    +0.000 C 
ATOM      3  C   UNL     1       1.919   2.319  17.459  0.00  0.00    +0.000 C 
ATOM      4  C   UNL     1       3.451   2.268  17.552  0.00  0.00    +0.000 C 
ATOM      5  C   UNL     1       3.808   1.935  19.007  0.00  0.00    +0.000 C 
ATOM      6  C   UNL     1       3.193   2.938  19.982  0.00  0.00    +0.000 C 
ENDROOT
BRANCH   1   7
ATOM      7  C   UNL     1       1.178   3.946  20.830  0.00  0.00    +0.000 C 
BRANCH   7   8
ATOM      8  C   UNL     1       2.190   5.017  21.264  0.00  0.00    +0.000 C 
BRANCH   8  12
ATOM      9  C   UNL     1       1.630   8.723  19.119  0.00  0.00    +0.000 A 
ATOM     10  C   UNL     1       1.088   8.556  20.395  0.00  0.00    +0.000 A 
ATOM     11  C   UNL     1       1.272   7.359  21.091  0.00  0.00    +0.000 A 
ATOM     12  C   UNL     1       1.996   6.310  20.511  0.00  0.00    +0.000 A 
ATOM     13  C   UNL     1       2.510   6.469  19.223  0.00  0.00    +0.000 A 
ATOM     14  C   UNL     1       2.332   7.670  18.531  0.00  0.00    +0.000 A 
BRANCH   9  16
ATOM     15  C   UNL     1       0.032  10.154  18.137  0.00  0.00    +0.000 C 
ATOM     16  O   UNL     1       1.379   9.932  18.536  0.00  0.00    +0.000 OA
ENDBRANCH   9  16
ENDBRANCH   8  12
ENDBRANCH   7   8
ENDBRANCH   1   7
BRANCH   4  17
ATOM     17  C   UNL     1       4.103   3.574  17.031  0.00  0.00    +0.000 C 
BRANCH  17  18
ATOM     18  C   UNL     1       5.629   3.452  16.851  0.00  0.00    +0.000 C 
BRANCH  18  19
ATOM     19  C   UNL     1       6.475   4.636  17.283  0.00  0.00    +0.000 A 
ATOM     20  C   UNL     1       7.006   4.699  18.585  0.00  0.00    +0.000 A 
ATOM     21  C   UNL     1       7.682   5.833  19.038  0.00  0.00    +0.000 A 
ATOM     22  C   UNL     1       7.807   6.941  18.212  0.00  0.00    +0.000 A 
ATOM     23  C   UNL     1       7.294   6.900  16.918  0.00  0.00    +0.000 A 
ATOM     24  C   UNL     1       6.662   5.747  16.428  0.00  0.00    +0.000 A 
BRANCH  24  25
ATOM     25  O   UNL     1       6.205   5.647  15.131  0.00  0.00    +0.000 OA
BRANCH  25  26
ATOM     26  C   UNL     1       7.075   4.950  14.228  0.00  0.00    +0.000 C 
BRANCH  26  27
ATOM     27  C   UNL     1       6.323   3.875  13.465  0.00  0.00    +0.000 C 
ATOM     28  F   UNL     1       6.477   4.100  12.129  0.00  0.00    +0.000 F 
ENDBRANCH  26  27
ENDBRANCH  25  26
ENDBRANCH  24  25
ENDBRANCH  18  19
ENDBRANCH  17  18
ENDBRANCH   4  17
TORSDOF 10
ENDMDL
MODEL 9
REMARK VINA RESULT:      -7.2      4.801      7.472
REMARK  Name = 
REMARK  11 active torsions:
REMARK  status: ('A' for Active; 'I' for Inactive)
REMARK    1  A    between atoms: C_1  and  O_2
REMARK    2  A    between atoms: O_2  and  C_3
REMARK    3  A    between atoms: C_6  and  C_7
REMARK    4  A    between atoms: C_7  and  C_8
REMARK    5  A    between atoms: C_8  and  N_9
REMARK    6  A    between atoms: C_12  and  C_13
REMARK    7  A    between atoms: C_13  and  C_14
REMARK    8  A    between atoms: C_14  and  C_15
REMARK    9  A    between atoms: C_20  and  O_21
REMARK   10  A    between atoms: O_21  and  C_22
REMARK   11  A    between atoms: C_22  and  C_23
REMARK                            x       y       z     vdW  Elec       q    Type
REMARK                         _______ _______ _______ _____ _____    ______ ____
ROOT
ATOM      1  N   UNL     1       7.499   7.223  17.140  0.00  0.00    +0.000 NA
ATOM      2  C   UNL     1       7.939   6.256  18.160  0.00  0.00    +0.000 C 
ATOM      3  C   UNL     1       7.763   4.804  17.706  0.00  0.00    +0.000 C 
ATOM      4  C   UNL     1       6.329   4.497  17.251  0.00  0.00    +0.000 C 
ATOM      5  C   UNL     1       5.959   5.533  16.182  0.00  0.00    +0.000 C 
ATOM      6  C   UNL     1       6.118   6.962  16.704  0.00  0.00    +0.000 C 
ENDROOT
BRANCH   1   7
ATOM      7  C   UNL     1       7.604   8.615  17.627  0.00  0.00    +0.000 C 
BRANCH   7   8
ATOM      8  C   UNL     1       8.689   8.814  18.696  0.00  0.00    +0.000 C 
BRANCH   8  12
ATOM      9  C   UNL     1       9.824  12.965  19.060  0.00  0.00    +0.000 A 
ATOM     10  C   UNL     1       9.075  12.531  17.965  0.00  0.00    +0.000 A 
ATOM     11  C   UNL     1       8.704  11.189  17.848  0.00  0.00    +0.000 A 
ATOM     12  C   UNL     1       9.088  10.264  18.826  0.00  0.00    +0.000 A 
ATOM     13  C   UNL     1       9.864  10.696  19.904  0.00  0.00    +0.000 A 
ATOM     14  C   UNL     1      10.227  12.040  20.023  0.00  0.00    +0.000 A 
BRANCH   9  16
ATOM     15  C   UNL     1      10.227  14.906  17.779  0.00  0.00    +0.000 C 
ATOM     16  O   UNL     1      10.131  14.296  19.061  0.00  0.00    +0.000 OA
ENDBRANCH   9  16
ENDBRANCH   8  12
ENDBRANCH   7   8
ENDBRANCH   1   7
BRANCH   4  17
ATOM     17  C   UNL     1       5.343   4.451  18.446  0.00  0.00    +0.000 C 
BRANCH  17  18
ATOM     18  C   UNL     1       3.889   4.176  18.013  0.00  0.00    +0.000 C 
BRANCH  18  19
ATOM     19  C   UNL     1       2.897   3.820  19.105  0.00  0.00    +0.000 A 
ATOM     20  C   UNL     1       2.878   2.526  19.660  0.00  0.00    +0.000 A 
ATOM     21  C   UNL     1       1.896   2.145  20.576  0.00  0.00    +0.000 A 
ATOM     22  C   UNL     1       0.892   3.037  20.927  0.00  0.00    +0.000 A 
ATOM     23  C   UNL     1       0.894   4.324  20.395  0.00  0.00    +0.000 A 
ATOM     24  C   UNL     1       1.906   4.740  19.518  0.00  0.00    +0.000 A 
BRANCH  24  25
ATOM     25  O   UNL     1       1.978   6.027  19.027  0.00  0.00    +0.000 OA
BRANCH  25  26
ATOM     26  C   UNL     1       2.507   7.000  19.938  0.00  0.00    +0.000 C 
BRANCH  26  27
ATOM     27  C   UNL     1       1.461   8.040  20.296  0.00  0.00    +0.000 C 
ATOM     28  F   UNL     1       1.447   8.198  21.649  0.00  0.00    +0.000 F 
ENDBRANCH  26  27
ENDBRANCH  25  26
ENDBRANCH  24  25
ENDBRANCH  18  19
ENDBRANCH  17  18
ENDBRANCH   4  17
TORSDOF 10
ENDMDL
