MODEL 1
REMARK VINA RESULT:      -8.5      0.000      0.000
REMARK  Name = 
REMARK  6 active torsions:
REMARK  status: ('A' for Active; 'I' for Inactive)
REMARK    1  A    between atoms: C_1  and  C_2
REMARK    2  A    between atoms: C_4  and  O_5
REMARK    3  A    between atoms: C_8  and  C_9
REMARK    4  A    between atoms: C_18  and  C_19
REMARK    5  A    between atoms: C_19  and  C_20
REMARK    6  A    between atoms: C_19  and  C_21
REMARK                            x       y       z     vdW  Elec       q    Type
REMARK                         _______ _______ _______ _____ _____    ______ ____
ROOT
ATOM      1  C   UNL     1       1.728   2.897  21.851  0.00  0.00    +0.000 C 
ATOM      2  C   UNL     1       2.416   2.998  20.526  0.00  0.00    +0.000 A 
ATOM      3  N   UNL     1       1.868   2.339  19.499  0.00  0.00    +0.000 NA
ATOM      4  C   UNL     1       2.477   2.534  18.327  0.00  0.00    +0.000 A 
ATOM      5  C   UNL     1       3.587   3.341  18.122  0.00  0.00    +0.000 A 
ATOM      6  C   UNL     1       4.203   3.539  16.866  0.00  0.00    +0.000 A 
ATOM      7  C   UNL     1       5.400   4.280  16.664  0.00  0.00    +0.000 A 
ATOM      8  C   UNL     1       5.881   4.955  17.819  0.00  0.00    +0.000 A 
ATOM      9  C   UNL     1       5.228   4.727  19.075  0.00  0.00    +0.000 A 
ATOM     10  C   UNL     1       4.094   3.939  19.247  0.00  0.00    +0.000 A 
ATOM     11  N   UNL     1       3.516   3.776  20.453  0.00  0.00    +0.000 NA
ENDROOT
BRANCH   7  12
ATOM     12  C   UNL     1       6.072   4.121  15.300  0.00  0.00    +0.000 A 
ATOM     13  C   UNL     1       5.533   3.428  14.188  0.00  0.00    +0.000 A 
ATOM     14  C   UNL     1       5.988   3.612  12.866  0.00  0.00    +0.000 A 
ATOM     15  C   UNL     1       7.016   4.491  12.666  0.00  0.00    +0.000 A 
ATOM     16  C   UNL     1       7.665   5.055  13.725  0.00  0.00    +0.000 A 
ATOM     17  C   UNL     1       7.257   4.854  15.022  0.00  0.00    +0.000 A 
ATOM     18  O   UNL     1       8.637   5.927  13.339  0.00  0.00    +0.000 OA
ATOM     19  C   UNL     1       8.249   6.089  11.962  0.00  0.00    +0.000 C 
ATOM     20  O   UNL     1       7.475   4.968  11.479  0.00  0.00    +0.000 OA
ENDBRANCH   7  12
BRANCH   8  21
ATOM     21  C   UNL     1       7.059   5.939  17.832  0.00  0.00    +0.000 C 
ATOM     22  C   UNL     1       6.723   7.404  17.487  0.00  0.00    +0.000 C 
ATOM     23  C   UNL     1       7.843   5.924  19.151  0.00  0.00    +0.000 C 
ENDBRANCH   8  21
BRANCH   4  24
ATOM     24  O   UNL     1       1.914   1.824  17.311  0.00  0.00    +0.000 OA
ATOM     25  H   UNL     1       0.997   2.148  17.353  0.00  0.00    +0.000 HD
ENDBRANCH   4  24
TORSDOF 3
ENDMDL
MODEL 2
REMARK VINA RESULT:      -8.4      0.944      1.708
REMARK  Name = 
REMARK  6 active torsions:
REMARK  status: ('A' for Active; 'I' for Inactive)
REMARK    1  A    between atoms: C_1  and  C_2
REMARK    2  A    between atoms: C_4  and  O_5
REMARK    3  A    between atoms: C_8  and  C_9
REMARK    4  A    between atoms: C_18  and  C_19
REMARK    5  A    between atoms: C_19  and  C_20
REMARK    6  A    between atoms: C_19  and  C_21
REMARK                            x       y       z     vdW  Elec       q    Type
REMARK                         _______ _______ _______ _____ _____    ______ ____
ROOT
ATOM      1  C   UNL     1       2.075   2.580  21.782  0.00  0.00    +0.000 C 
ATOM      2  C   UNL     1       2.637   2.842  20.421  0.00  0.00    +0.000 A 
ATOM      3  N   UNL     1       1.987   2.314  19.377  0.00  0.00    +0.000 NA
ATOM      4  C   UNL     1       2.487   2.650  18.185  0.00  0.00    +0.000 A 
ATOM      5  C   UNL     1       3.584   3.474  17.977  0.00  0.00    +0.000 A 
ATOM      6  C   UNL     1       4.083   3.824  16.702  0.00  0.00    +0.000 A 
ATOM      7  C   UNL     1       5.266   4.581  16.480  0.00  0.00    +0.000 A 
ATOM      8  C   UNL     1       5.862   5.109  17.659  0.00  0.00    +0.000 A 
ATOM      9  C   UNL     1       5.325   4.729  18.934  0.00  0.00    +0.000 A 
ATOM     10  C   UNL     1       4.201   3.929  19.114  0.00  0.00    +0.000 A 
ATOM     11  N   UNL     1       3.736   3.621  20.340  0.00  0.00    +0.000 NA
ENDROOT
BRANCH   7  12
ATOM     12  C   UNL     1       5.806   4.589  15.050  0.00  0.00    +0.000 A 
ATOM     13  C   UNL     1       7.065   5.097  14.643  0.00  0.00    +0.000 A 
ATOM     14  C   UNL     1       7.677   4.760  13.419  0.00  0.00    +0.000 A 
ATOM     15  C   UNL     1       7.000   3.916  12.583  0.00  0.00    +0.000 A 
ATOM     16  C   UNL     1       5.721   3.535  12.866  0.00  0.00    +0.000 A 
ATOM     17  C   UNL     1       5.097   3.888  14.038  0.00  0.00    +0.000 A 
ATOM     18  O   UNL     1       5.217   2.671  11.942  0.00  0.00    +0.000 OA
ATOM     19  C   UNL     1       6.448   2.304  11.292  0.00  0.00    +0.000 C 
ATOM     20  O   UNL     1       7.474   3.307  11.464  0.00  0.00    +0.000 OA
ENDBRANCH   7  12
BRANCH   8  21
ATOM     21  C   UNL     1       7.049   6.081  17.681  0.00  0.00    +0.000 C 
ATOM     22  C   UNL     1       6.722   7.558  17.381  0.00  0.00    +0.000 C 
ATOM     23  C   UNL     1       7.852   6.023  18.987  0.00  0.00    +0.000 C 
ENDBRANCH   8  21
BRANCH   4  24
ATOM     24  O   UNL     1       1.822   2.072  17.148  0.00  0.00    +0.000 OA
ATOM     25  H   UNL     1       2.299   1.226  17.079  0.00  0.00    +0.000 HD
ENDBRANCH   4  24
TORSDOF 3
ENDMDL
MODEL 3
REMARK VINA RESULT:      -7.8      8.684      9.917
REMARK  Name = 
REMARK  6 active torsions:
REMARK  status: ('A' for Active; 'I' for Inactive)
REMARK    1  A    between atoms: C_1  and  C_2
REMARK    2  A    between atoms: C_4  and  O_5
REMARK    3  A    between atoms: C_8  and  C_9
REMARK    4  A    between atoms: C_18  and  C_19
REMARK    5  A    between atoms: C_19  and  C_20
REMARK    6  A    between atoms: C_19  and  C_21
REMARK                            x       y       z     vdW  Elec       q    Type
REMARK                         _______ _______ _______ _____ _____    ______ ____
ROOT
ATOM      1  C   UNL     1      -6.208  12.722  17.055  0.00  0.00    +0.000 C 
ATOM      2  C   UNL     1      -4.932  12.005  17.365  0.00  0.00    +0.000 A 
ATOM      3  N   UNL     1      -4.477  11.138  16.452  0.00  0.00    +0.000 NA
ATOM      4  C   UNL     1      -3.294  10.593  16.746  0.00  0.00    +0.000 A 
ATOM      5  C   UNL     1      -2.547  10.861  17.884  0.00  0.00    +0.000 A 
ATOM      6  C   UNL     1      -1.290  10.278  18.162  0.00  0.00    +0.000 A 
ATOM      7  C   UNL     1      -0.565  10.466  19.372  0.00  0.00    +0.000 A 
ATOM      8  C   UNL     1      -1.130  11.423  20.258  0.00  0.00    +0.000 A 
ATOM      9  C   UNL     1      -2.408  11.992  19.940  0.00  0.00    +0.000 A 
ATOM     10  C   UNL     1      -3.121  11.732  18.773  0.00  0.00    +0.000 A 
ATOM     11  N   UNL     1      -4.312  12.311  18.524  0.00  0.00    +0.000 NA
ENDROOT
BRANCH   7  12
ATOM     12  C   UNL     1       0.610   9.517  19.611  0.00  0.00    +0.000 A 
ATOM     13  C   UNL     1       0.810   8.724  20.768  0.00  0.00    +0.000 A 
ATOM     14  C   UNL     1       1.672   7.610  20.804  0.00  0.00    +0.000 A 
ATOM     15  C   UNL     1       2.359   7.303  19.662  0.00  0.00    +0.000 A 
ATOM     16  C   UNL     1       2.315   8.133  18.579  0.00  0.00    +0.000 A 
ATOM     17  C   UNL     1       1.508   9.245  18.546  0.00  0.00    +0.000 A 
ATOM     18  O   UNL     1       3.030   7.654  17.524  0.00  0.00    +0.000 OA
ATOM     19  C   UNL     1       3.196   6.296  17.972  0.00  0.00    +0.000 C 
ATOM     20  O   UNL     1       3.077   6.178  19.408  0.00  0.00    +0.000 OA
ENDBRANCH   7  12
BRANCH   8  21
ATOM     21  C   UNL     1      -0.467  11.920  21.550  0.00  0.00    +0.000 C 
ATOM     22  C   UNL     1      -0.066  13.408  21.579  0.00  0.00    +0.000 C 
ATOM     23  C   UNL     1      -1.295  11.621  22.807  0.00  0.00    +0.000 C 
ENDBRANCH   8  21
BRANCH   4  24
ATOM     24  O   UNL     1      -2.877   9.694  15.813  0.00  0.00    +0.000 OA
ATOM     25  H   UNL     1      -2.800  10.270  15.032  0.00  0.00    +0.000 HD
ENDBRANCH   4  24
TORSDOF 3
ENDMDL
MODEL 4
REMARK VINA RESULT:      -7.6      2.981      3.796
REMARK  Name = 
REMARK  6 active torsions:
REMARK  status: ('A' for Active; 'I' for Inactive)
REMARK    1  A    between atoms: C_1  and  C_2
REMARK    2  A    between atoms: C_4  and  O_5
REMARK    3  A    between atoms: C_8  and  C_9
REMARK    4  A    between atoms: C_18  and  C_19
REMARK    5  A    between atoms: C_19  and  C_20
REMARK    6  A    between atoms: C_19  and  C_21
REMARK                            x       y       z     vdW  Elec       q    Type
REMARK                         _______ _______ _______ _____ _____    ______ ____
ROOT
ATOM      1  C   UNL     1       0.439   8.501  21.282  0.00  0.00    +0.000 C 
ATOM      2  C   UNL     1       1.330   7.914  20.234  0.00  0.00    +0.000 A 
ATOM      3  N   UNL     1       1.719   8.719  19.237  0.00  0.00    +0.000 NA
ATOM      4  C   UNL     1       2.579   8.164  18.380  0.00  0.00    +0.000 A 
ATOM      5  C   UNL     1       3.069   6.869  18.458  0.00  0.00    +0.000 A 
ATOM      6  C   UNL     1       3.990   6.312  17.542  0.00  0.00    +0.000 A 
ATOM      7  C   UNL     1       4.418   4.955  17.554  0.00  0.00    +0.000 A 
ATOM      8  C   UNL     1       3.961   4.200  18.668  0.00  0.00    +0.000 A 
ATOM      9  C   UNL     1       3.026   4.801  19.575  0.00  0.00    +0.000 A 
ATOM     10  C   UNL     1       2.577   6.115  19.493  0.00  0.00    +0.000 A 
ATOM     11  N   UNL     1       1.709   6.628  20.387  0.00  0.00    +0.000 NA
ENDROOT
BRANCH   7  12
ATOM     12  C   UNL     1       5.165   4.471  16.311  0.00  0.00    +0.000 A 
ATOM     13  C   UNL     1       4.615   3.679  15.272  0.00  0.00    +0.000 A 
ATOM     14  C   UNL     1       5.198   3.566  13.994  0.00  0.00    +0.000 A 
ATOM     15  C   UNL     1       6.363   4.244  13.766  0.00  0.00    +0.000 A 
ATOM     16  C   UNL     1       7.005   4.886  14.785  0.00  0.00    +0.000 A 
ATOM     17  C   UNL     1       6.467   4.971  16.047  0.00  0.00    +0.000 A 
ATOM     18  O   UNL     1       8.129   5.533  14.369  0.00  0.00    +0.000 OA
ATOM     19  C   UNL     1       7.883   5.508  12.951  0.00  0.00    +0.000 C 
ATOM     20  O   UNL     1       6.984   4.441  12.573  0.00  0.00    +0.000 OA
ENDBRANCH   7  12
BRANCH   8  21
ATOM     21  C   UNL     1       4.403   2.767  18.996  0.00  0.00    +0.000 C 
ATOM     22  C   UNL     1       4.407   2.382  20.489  0.00  0.00    +0.000 C 
ATOM     23  C   UNL     1       3.610   1.700  18.227  0.00  0.00    +0.000 C 
ENDBRANCH   8  21
BRANCH   4  24
ATOM     24  O   UNL     1       2.928   8.999  17.363  0.00  0.00    +0.000 OA
ATOM     25  H   UNL     1       3.036   8.360  16.636  0.00  0.00    +0.000 HD
ENDBRANCH   4  24
TORSDOF 3
ENDMDL
MODEL 5
REMARK VINA RESULT:      -7.6      4.986      7.897
REMARK  Name = 
REMARK  6 active torsions:
REMARK  status: ('A' for Active; 'I' for Inactive)
REMARK    1  A    between atoms: C_1  and  C_2
REMARK    2  A    between atoms: C_4  and  O_5
REMARK    3  A    between atoms: C_8  and  C_9
REMARK    4  A    between atoms: C_18  and  C_19
REMARK    5  A    between atoms: C_19  and  C_20
REMARK    6  A    between atoms: C_19  and  C_21
REMARK                            x       y       z     vdW  Elec       q    Type
REMARK                         _______ _______ _______ _____ _____    ______ ____
ROOT
ATOM      1  C   UNL     1       6.649   3.616  15.174  0.00  0.00    +0.000 C 
ATOM      2  C   UNL     1       5.764   4.548  15.940  0.00  0.00    +0.000 A 
ATOM      3  N   UNL     1       5.748   5.831  15.560  0.00  0.00    +0.000 NA
ATOM      4  C   UNL     1       4.879   6.596  16.226  0.00  0.00    +0.000 A 
ATOM      5  C   UNL     1       4.034   6.160  17.235  0.00  0.00    +0.000 A 
ATOM      6  C   UNL     1       3.114   6.990  17.913  0.00  0.00    +0.000 A 
ATOM      7  C   UNL     1       2.318   6.577  19.018  0.00  0.00    +0.000 A 
ATOM      8  C   UNL     1       2.399   5.191  19.321  0.00  0.00    +0.000 A 
ATOM      9  C   UNL     1       3.346   4.382  18.610  0.00  0.00    +0.000 A 
ATOM     10  C   UNL     1       4.158   4.837  17.576  0.00  0.00    +0.000 A 
ATOM     11  N   UNL     1       5.018   4.023  16.935  0.00  0.00    +0.000 NA
ENDROOT
BRANCH   7  12
ATOM     12  C   UNL     1       1.624   7.690  19.806  0.00  0.00    +0.000 A 
ATOM     13  C   UNL     1       1.458   7.727  21.212  0.00  0.00    +0.000 A 
ATOM     14  C   UNL     1       1.160   8.906  21.925  0.00  0.00    +0.000 A 
ATOM     15  C   UNL     1       1.006  10.060  21.208  0.00  0.00    +0.000 A 
ATOM     16  C   UNL     1       1.000  10.034  19.843  0.00  0.00    +0.000 A 
ATOM     17  C   UNL     1       1.251   8.884  19.134  0.00  0.00    +0.000 A 
ATOM     18  O   UNL     1       0.868  11.275  19.298  0.00  0.00    +0.000 OA
ATOM     19  C   UNL     1       1.161  12.060  20.469  0.00  0.00    +0.000 C 
ATOM     20  O   UNL     1       0.917  11.327  21.690  0.00  0.00    +0.000 OA
ENDBRANCH   7  12
BRANCH   8  21
ATOM     21  C   UNL     1       1.529   4.468  20.359  0.00  0.00    +0.000 C 
ATOM     22  C   UNL     1       0.716   3.264  19.844  0.00  0.00    +0.000 C 
ATOM     23  C   UNL     1       2.316   4.021  21.599  0.00  0.00    +0.000 C 
ENDBRANCH   8  21
BRANCH   4  24
ATOM     24  O   UNL     1       4.911   7.899  15.835  0.00  0.00    +0.000 OA
ATOM     25  H   UNL     1       5.460   8.284  16.541  0.00  0.00    +0.000 HD
ENDBRANCH   4  24
TORSDOF 3
ENDMDL
MODEL 6
REMARK VINA RESULT:      -7.5      4.610      5.745
REMARK  Name = 
REMARK  6 active torsions:
REMARK  status: ('A' for Active; 'I' for Inactive)
REMARK    1  A    between atoms: C_1  and  C_2
REMARK    2  A    between atoms: C_4  and  O_5
REMARK    3  A    between atoms: C_8  and  C_9
REMARK    4  A    between atoms: C_18  and  C_19
REMARK    5  A    between atoms: C_19  and  C_20
REMARK    6  A    between atoms: C_19  and  C_21
REMARK                            x       y       z     vdW  Elec       q    Type
REMARK                         _______ _______ _______ _____ _____    ______ ____
ROOT
ATOM      1  C   UNL     1      -0.867  11.557  20.545  0.00  0.00    +0.000 C 
ATOM      2  C   UNL     1       0.040  10.535  19.938  0.00  0.00    +0.000 A 
ATOM      3  N   UNL     1       0.756  10.907  18.870  0.00  0.00    +0.000 NA
ATOM      4  C   UNL     1       1.609   9.981  18.424  0.00  0.00    +0.000 A 
ATOM      5  C   UNL     1       1.787   8.720  18.975  0.00  0.00    +0.000 A 
ATOM      6  C   UNL     1       2.707   7.765  18.489  0.00  0.00    +0.000 A 
ATOM      7  C   UNL     1       2.823   6.435  18.982  0.00  0.00    +0.000 A 
ATOM      8  C   UNL     1       2.032   6.157  20.130  0.00  0.00    +0.000 A 
ATOM      9  C   UNL     1       1.109   7.153  20.591  0.00  0.00    +0.000 A 
ATOM     10  C   UNL     1       0.975   8.425  20.040  0.00  0.00    +0.000 A 
ATOM     11  N   UNL     1       0.101   9.324  20.531  0.00  0.00    +0.000 NA
ENDROOT
BRANCH   7  12
ATOM     12  C   UNL     1       3.647   5.467  18.131  0.00  0.00    +0.000 A 
ATOM     13  C   UNL     1       3.140   4.348  17.427  0.00  0.00    +0.000 A 
ATOM     14  C   UNL     1       3.835   3.713  16.377  0.00  0.00    +0.000 A 
ATOM     15  C   UNL     1       5.068   4.201  16.047  0.00  0.00    +0.000 A 
ATOM     16  C   UNL     1       5.657   5.173  16.803  0.00  0.00    +0.000 A 
ATOM     17  C   UNL     1       5.006   5.773  17.854  0.00  0.00    +0.000 A 
ATOM     18  O   UNL     1       6.865   5.559  16.310  0.00  0.00    +0.000 OA
ATOM     19  C   UNL     1       6.760   4.979  14.996  0.00  0.00    +0.000 C 
ATOM     20  O   UNL     1       5.818   3.883  14.960  0.00  0.00    +0.000 OA
ENDBRANCH   7  12
BRANCH   8  21
ATOM     21  C   UNL     1       2.091   4.856  20.941  0.00  0.00    +0.000 C 
ATOM     22  C   UNL     1       1.021   3.797  20.607  0.00  0.00    +0.000 C 
ATOM     23  C   UNL     1       3.468   4.178  20.894  0.00  0.00    +0.000 C 
ENDBRANCH   8  21
BRANCH   4  24
ATOM     24  O   UNL     1       2.297  10.380  17.320  0.00  0.00    +0.000 OA
ATOM     25  H   UNL     1       1.875  11.241  17.148  0.00  0.00    +0.000 HD
ENDBRANCH   4  24
TORSDOF 3
ENDMDL
MODEL 7
REMARK VINA RESULT:      -7.4     10.463     12.621
REMARK  Name = 
REMARK  6 active torsions:
REMARK  status: ('A' for Active; 'I' for Inactive)
REMARK    1  A    between atoms: C_1  and  C_2
REMARK    2  A    between atoms: C_4  and  O_5
REMARK    3  A    between atoms: C_8  and  C_9
REMARK    4  A    between atoms: C_18  and  C_19
REMARK    5  A    between atoms: C_19  and  C_20
REMARK    6  A    between atoms: C_19  and  C_21
REMARK                            x       y       z     vdW  Elec       q    Type
REMARK                         _______ _______ _______ _____ _____    ______ ____
ROOT
ATOM      1  C   UNL     1      -3.721   9.943  14.091  0.00  0.00    +0.000 C 
ATOM      2  C   UNL     1      -3.421  10.484  15.454  0.00  0.00    +0.000 A 
ATOM      3  N   UNL     1      -4.326  11.303  16.003  0.00  0.00    +0.000 NA
ATOM      4  C   UNL     1      -4.043  11.685  17.250  0.00  0.00    +0.000 A 
ATOM      5  C   UNL     1      -2.923  11.302  17.974  0.00  0.00    +0.000 A 
ATOM      6  C   UNL     1      -2.656  11.713  19.299  0.00  0.00    +0.000 A 
ATOM      7  C   UNL     1      -1.463  11.409  20.012  0.00  0.00    +0.000 A 
ATOM      8  C   UNL     1      -0.583  10.515  19.342  0.00  0.00    +0.000 A 
ATOM      9  C   UNL     1      -0.890  10.122  17.997  0.00  0.00    +0.000 A 
ATOM     10  C   UNL     1      -2.039  10.495  17.305  0.00  0.00    +0.000 A 
ATOM     11  N   UNL     1      -2.278  10.078  16.047  0.00  0.00    +0.000 NA
ENDROOT
BRANCH   7  12
ATOM     12  C   UNL     1      -1.227  12.195  21.303  0.00  0.00    +0.000 A 
ATOM     13  C   UNL     1      -0.226  13.177  21.502  0.00  0.00    +0.000 A 
ATOM     14  C   UNL     1      -0.269  14.126  22.543  0.00  0.00    +0.000 A 
ATOM     15  C   UNL     1      -1.326  14.071  23.409  0.00  0.00    +0.000 A 
ATOM     16  C   UNL     1      -2.223  13.044  23.346  0.00  0.00    +0.000 A 
ATOM     17  C   UNL     1      -2.170  12.089  22.359  0.00  0.00    +0.000 A 
ATOM     18  O   UNL     1      -3.224  13.168  24.260  0.00  0.00    +0.000 OA
ATOM     19  C   UNL     1      -3.023  14.549  24.617  0.00  0.00    +0.000 C 
ATOM     20  O   UNL     1      -1.674  14.990  24.347  0.00  0.00    +0.000 OA
ENDBRANCH   7  12
BRANCH   8  21
ATOM     21  C   UNL     1       0.688   9.913  19.955  0.00  0.00    +0.000 C 
ATOM     22  C   UNL     1       0.481   8.976  21.161  0.00  0.00    +0.000 C 
ATOM     23  C   UNL     1       1.567   9.186  18.928  0.00  0.00    +0.000 C 
ENDBRANCH   8  21
BRANCH   4  24
ATOM     24  O   UNL     1      -4.967  12.541  17.766  0.00  0.00    +0.000 OA
ATOM     25  H   UNL     1      -5.692  11.923  17.965  0.00  0.00    +0.000 HD
ENDBRANCH   4  24
TORSDOF 3
ENDMDL
MODEL 8
REMARK VINA RESULT:      -7.4      2.911      6.955
REMARK  Name = 
REMARK  6 active torsions:
REMARK  status: ('A' for Active; 'I' for Inactive)
REMARK    1  A    between atoms: C_1  and  C_2
REMARK    2  A    between atoms: C_4  and  O_5
REMARK    3  A    between atoms: C_8  and  C_9
REMARK    4  A    between atoms: C_18  and  C_19
REMARK    5  A    between atoms: C_19  and  C_20
REMARK    6  A    between atoms: C_19  and  C_21
REMARK                            x       y       z     vdW  Elec       q    Type
REMARK                         _______ _______ _______ _____ _____    ______ ____
ROOT
ATOM      1  C   UNL     1       8.899   6.067  11.983  0.00  0.00    +0.000 C 
ATOM      2  C   UNL     1       7.883   5.411  12.863  0.00  0.00    +0.000 A 
ATOM      3  N   UNL     1       7.037   4.548  12.286  0.00  0.00    +0.000 NA
ATOM      4  C   UNL     1       6.210   3.932  13.134  0.00  0.00    +0.000 A 
ATOM      5  C   UNL     1       6.178   4.124  14.508  0.00  0.00    +0.000 A 
ATOM      6  C   UNL     1       5.299   3.447  15.383  0.00  0.00    +0.000 A 
ATOM      7  C   UNL     1       5.188   3.712  16.777  0.00  0.00    +0.000 A 
ATOM      8  C   UNL     1       6.148   4.629  17.284  0.00  0.00    +0.000 A 
ATOM      9  C   UNL     1       7.022   5.296  16.362  0.00  0.00    +0.000 A 
ATOM     10  C   UNL     1       7.057   5.059  14.991  0.00  0.00    +0.000 A 
ATOM     11  N   UNL     1       7.914   5.706  14.179  0.00  0.00    +0.000 NA
ENDROOT
BRANCH   7  12
ATOM     12  C   UNL     1       3.976   3.105  17.486  0.00  0.00    +0.000 A 
ATOM     13  C   UNL     1       3.904   1.798  18.028  0.00  0.00    +0.000 A 
ATOM     14  C   UNL     1       2.941   1.407  18.980  0.00  0.00    +0.000 A 
ATOM     15  C   UNL     1       2.024   2.341  19.375  0.00  0.00    +0.000 A 
ATOM     16  C   UNL     1       1.961   3.558  18.761  0.00  0.00    +0.000 A 
ATOM     17  C   UNL     1       2.870   3.938  17.803  0.00  0.00    +0.000 A 
ATOM     18  O   UNL     1       1.013   4.369  19.304  0.00  0.00    +0.000 OA
ATOM     19  C   UNL     1       0.777   3.643  20.524  0.00  0.00    +0.000 C 
ATOM     20  O   UNL     1       1.146   2.250  20.408  0.00  0.00    +0.000 OA
ENDBRANCH   7  12
BRANCH   8  21
ATOM     21  C   UNL     1       6.340   4.965  18.769  0.00  0.00    +0.000 C 
ATOM     22  C   UNL     1       7.640   5.709  19.134  0.00  0.00    +0.000 C 
ATOM     23  C   UNL     1       5.158   5.737  19.371  0.00  0.00    +0.000 C 
ENDBRANCH   8  21
BRANCH   4  24
ATOM     24  O   UNL     1       5.344   3.086  12.512  0.00  0.00    +0.000 OA
ATOM     25  H   UNL     1       5.248   2.396  13.192  0.00  0.00    +0.000 HD
ENDBRANCH   4  24
TORSDOF 3
ENDMDL
MODEL 9
REMARK VINA RESULT:      -7.4      3.662      4.942
REMARK  Name = 
REMARK  6 active torsions:
REMARK  status: ('A' for Active; 'I' for Inactive)
REMARK    1  A    between atoms: C_1  and  C_2
REMARK    2  A    between atoms: C_4  and  O_5
REMARK    3  A    between atoms: C_8  and  C_9
REMARK    4  A    between atoms: C_18  and  C_19
REMARK    5  A    between atoms: C_19  and  C_20
REMARK    6  A    between atoms: C_19  and  C_21
REMARK                            x       y       z     vdW  Elec       q    Type
REMARK                         _______ _______ _______ _____ _____    ______ ____
ROOT
ATOM      1  C   UNL     1      -0.511   9.690  21.782  0.00  0.00    +0.000 C 
ATOM      2  C   UNL     1       0.408   8.895  20.910  0.00  0.00    +0.000 A 
ATOM      3  N   UNL     1       1.018   9.542  19.910  0.00  0.00    +0.000 NA
ATOM      4  C   UNL     1       1.887   8.802  19.218  0.00  0.00    +0.000 A 
ATOM      5  C   UNL     1       2.182   7.469  19.465  0.00  0.00    +0.000 A 
ATOM      6  C   UNL     1       3.118   6.713  18.724  0.00  0.00    +0.000 A 
ATOM      7  C   UNL     1       3.351   5.321  18.903  0.00  0.00    +0.000 A 
ATOM      8  C   UNL     1       2.667   4.742  20.006  0.00  0.00    +0.000 A 
ATOM      9  C   UNL     1       1.724   5.543  20.732  0.00  0.00    +0.000 A 
ATOM     10  C   UNL     1       1.473   6.889  20.486  0.00  0.00    +0.000 A 
ATOM     11  N   UNL     1       0.585   7.593  21.215  0.00  0.00    +0.000 NA
ENDROOT
BRANCH   7  12
ATOM     12  C   UNL     1       4.164   4.625  17.810  0.00  0.00    +0.000 A 
ATOM     13  C   UNL     1       3.636   3.816  16.774  0.00  0.00    +0.000 A 
ATOM     14  C   UNL     1       4.345   3.506  15.596  0.00  0.00    +0.000 A 
ATOM     15  C   UNL     1       5.613   4.002  15.469  0.00  0.00    +0.000 A 
ATOM     16  C   UNL     1       6.213   4.649  16.510  0.00  0.00    +0.000 A 
ATOM     17  C   UNL     1       5.546   4.924  17.680  0.00  0.00    +0.000 A 
ATOM     18  O   UNL     1       7.458   5.101  16.196  0.00  0.00    +0.000 OA
ATOM     19  C   UNL     1       7.382   4.972  14.764  0.00  0.00    +0.000 C 
ATOM     20  O   UNL     1       6.393   4.000  14.357  0.00  0.00    +0.000 OA
ENDBRANCH   7  12
BRANCH   8  21
ATOM     21  C   UNL     1       2.866   3.304  20.504  0.00  0.00    +0.000 C 
ATOM     22  C   UNL     1       2.288   2.982  21.897  0.00  0.00    +0.000 C 
ATOM     23  C   UNL     1       2.354   2.247  19.516  0.00  0.00    +0.000 C 
ENDBRANCH   8  21
BRANCH   4  24
ATOM     24  O   UNL     1       2.465   9.482  18.190  0.00  0.00    +0.000 OA
ATOM     25  H   UNL     1       2.026   9.062  17.429  0.00  0.00    +0.000 HD
ENDBRANCH   4  24
TORSDOF 3
ENDMDL
