MODEL 1
REMARK VINA RESULT:      -6.6      0.000      0.000
REMARK  Name = 
REMARK  3 active torsions:
REMARK  status: ('A' for Active; 'I' for Inactive)
REMARK    1  A    between atoms: C_2  and  C_3
REMARK    2  A    between atoms: N_7  and  C_8
REMARK    3  A    between atoms: C_15  and  N_16
REMARK                            x       y       z     vdW  Elec       q    Type
REMARK                         _______ _______ _______ _____ _____    ______ ____
ROOT
ATOM      1  C   UNL     1       6.900   5.006  16.563  0.00  0.00    +0.000 A 
ATOM      2  N   UNL     1       7.616   5.409  17.647  0.00  0.00    +0.000 N 
ATOM      3  C   UNL     1       6.856   5.177  18.800  0.00  0.00    +0.000 A 
ATOM      4  O   UNL     1       7.239   5.431  19.929  0.00  0.00    +0.000 OA
ATOM      5  N   UNL     1       5.631   4.592  18.332  0.00  0.00    +0.000 N 
ATOM      6  C   UNL     1       5.695   4.518  16.934  0.00  0.00    +0.000 A 
ATOM      7  H   UNL     1       8.535   5.824  17.656  0.00  0.00    +0.000 HD
ENDROOT
BRANCH   5   8
ATOM      8  C   UNL     1       4.583   4.160  19.196  0.00  0.00    +0.000 A 
ATOM      9  C   UNL     1       3.601   5.054  19.651  0.00  0.00    +0.000 A 
ATOM     10  C   UNL     1       2.558   4.624  20.481  0.00  0.00    +0.000 A 
ATOM     11  C   UNL     1       2.487   3.293  20.877  0.00  0.00    +0.000 A 
ATOM     12 CL   UNL     1       1.210   2.765  21.899  0.00  0.00    +0.000 Cl
ATOM     13  C   UNL     1       3.455   2.390  20.452  0.00  0.00    +0.000 A 
ATOM     14  C   UNL     1       4.496   2.823  19.624  0.00  0.00    +0.000 A 
ENDBRANCH   5   8
BRANCH   6  15
ATOM     15  N   UNL     1       4.682   4.106  16.095  0.00  0.00    +0.000 N 
ATOM     16  H   UNL     1       3.787   4.522  16.350  0.00  0.00    +0.000 HD
ATOM     17  H   UNL     1       4.871   4.230  15.102  0.00  0.00    +0.000 HD
ENDBRANCH   6  15
BRANCH   1  19
ATOM     18  N   UNL     1       7.695   5.303  13.914  0.00  0.00    +0.000 NA
ATOM     19  C   UNL     1       7.335   5.168  15.115  0.00  0.00    +0.000 C 
ENDBRANCH   1  19
TORSDOF 3
ENDMDL
MODEL 2
REMARK VINA RESULT:      -6.6      0.028      1.203
REMARK  Name = 
REMARK  3 active torsions:
REMARK  status: ('A' for Active; 'I' for Inactive)
REMARK    1  A    between atoms: C_2  and  C_3
REMARK    2  A    between atoms: N_7  and  C_8
REMARK    3  A    between atoms: C_15  and  N_16
REMARK                            x       y       z     vdW  Elec       q    Type
REMARK                         _______ _______ _______ _____ _____    ______ ____
ROOT
ATOM      1  C   UNL     1       6.899   5.013  16.560  0.00  0.00    +0.000 A 
ATOM      2  N   UNL     1       7.609   5.408  17.652  0.00  0.00    +0.000 N 
ATOM      3  C   UNL     1       6.841   5.170  18.799  0.00  0.00    +0.000 A 
ATOM      4  O   UNL     1       7.217   5.417  19.931  0.00  0.00    +0.000 OA
ATOM      5  N   UNL     1       5.618   4.592  18.319  0.00  0.00    +0.000 N 
ATOM      6  C   UNL     1       5.691   4.526  16.921  0.00  0.00    +0.000 A 
ATOM      7  H   UNL     1       8.529   5.820  17.669  0.00  0.00    +0.000 HD
ENDROOT
BRANCH   5   8
ATOM      8  C   UNL     1       4.563   4.157  19.174  0.00  0.00    +0.000 A 
ATOM      9  C   UNL     1       4.465   2.818  19.582  0.00  0.00    +0.000 A 
ATOM     10  C   UNL     1       3.443   2.395  20.442  0.00  0.00    +0.000 A 
ATOM     11  C   UNL     1       2.495   3.305  20.896  0.00  0.00    +0.000 A 
ATOM     12 CL   UNL     1       1.238   2.787  21.947  0.00  0.00    +0.000 Cl
ATOM     13  C   UNL     1       2.561   4.634  20.495  0.00  0.00    +0.000 A 
ATOM     14  C   UNL     1       3.584   5.053  19.637  0.00  0.00    +0.000 A 
ENDBRANCH   5   8
BRANCH   6  15
ATOM     15  N   UNL     1       4.681   4.122  16.073  0.00  0.00    +0.000 N 
ATOM     16  H   UNL     1       4.937   3.283  15.553  0.00  0.00    +0.000 HD
ATOM     17  H   UNL     1       3.770   4.014  16.513  0.00  0.00    +0.000 HD
ENDBRANCH   6  15
BRANCH   1  19
ATOM     18  N   UNL     1       7.711   5.325  13.919  0.00  0.00    +0.000 NA
ATOM     19  C   UNL     1       7.343   5.183  15.117  0.00  0.00    +0.000 C 
ENDBRANCH   1  19
TORSDOF 3
ENDMDL
MODEL 3
REMARK VINA RESULT:      -6.2      1.832      2.259
REMARK  Name = 
REMARK  3 active torsions:
REMARK  status: ('A' for Active; 'I' for Inactive)
REMARK    1  A    between atoms: C_2  and  C_3
REMARK    2  A    between atoms: N_7  and  C_8
REMARK    3  A    between atoms: C_15  and  N_16
REMARK                            x       y       z     vdW  Elec       q    Type
REMARK                         _______ _______ _______ _____ _____    ______ ____
ROOT
ATOM      1  C   UNL     1       7.074   4.907  15.350  0.00  0.00    +0.000 A 
ATOM      2  N   UNL     1       7.614   4.937  16.600  0.00  0.00    +0.000 N 
ATOM      3  C   UNL     1       6.630   4.566  17.524  0.00  0.00    +0.000 A 
ATOM      4  O   UNL     1       6.819   4.494  18.726  0.00  0.00    +0.000 OA
ATOM      5  N   UNL     1       5.458   4.299  16.739  0.00  0.00    +0.000 N 
ATOM      6  C   UNL     1       5.775   4.537  15.395  0.00  0.00    +0.000 A 
ATOM      7  H   UNL     1       8.555   5.193  16.855  0.00  0.00    +0.000 HD
ENDROOT
BRANCH   5   8
ATOM      8  C   UNL     1       4.224   3.846  17.292  0.00  0.00    +0.000 A 
ATOM      9  C   UNL     1       4.027   2.495  17.616  0.00  0.00    +0.000 A 
ATOM     10  C   UNL     1       2.824   2.053  18.182  0.00  0.00    +0.000 A 
ATOM     11  C   UNL     1       1.795   2.958  18.423  0.00  0.00    +0.000 A 
ATOM     12 CL   UNL     1       0.317   2.416  19.113  0.00  0.00    +0.000 Cl
ATOM     13  C   UNL     1       1.960   4.299  18.098  0.00  0.00    +0.000 A 
ATOM     14  C   UNL     1       3.163   4.736  17.533  0.00  0.00    +0.000 A 
ENDBRANCH   5   8
BRANCH   6  15
ATOM     15  N   UNL     1       4.898   4.489  14.332  0.00  0.00    +0.000 N 
ATOM     16  H   UNL     1       3.927   4.515  14.641  0.00  0.00    +0.000 HD
ATOM     17  H   UNL     1       5.067   5.182  13.605  0.00  0.00    +0.000 HD
ENDBRANCH   6  15
BRANCH   1  19
ATOM     18  N   UNL     1       8.381   5.678  13.020  0.00  0.00    +0.000 NA
ATOM     19  C   UNL     1       7.788   5.328  14.077  0.00  0.00    +0.000 C 
ENDBRANCH   1  19
TORSDOF 3
ENDMDL
MODEL 4
REMARK VINA RESULT:      -6.1      3.610      6.076
REMARK  Name = 
REMARK  3 active torsions:
REMARK  status: ('A' for Active; 'I' for Inactive)
REMARK    1  A    between atoms: C_2  and  C_3
REMARK    2  A    between atoms: N_7  and  C_8
REMARK    3  A    between atoms: C_15  and  N_16
REMARK                            x       y       z     vdW  Elec       q    Type
REMARK                         _______ _______ _______ _____ _____    ______ ____
ROOT
ATOM      1  C   UNL     1       2.963   4.029  19.989  0.00  0.00    +0.000 A 
ATOM      2  N   UNL     1       2.396   5.210  19.621  0.00  0.00    +0.000 N 
ATOM      3  C   UNL     1       3.073   5.704  18.499  0.00  0.00    +0.000 A 
ATOM      4  O   UNL     1       2.786   6.746  17.936  0.00  0.00    +0.000 OA
ATOM      5  N   UNL     1       4.084   4.727  18.209  0.00  0.00    +0.000 N 
ATOM      6  C   UNL     1       3.989   3.710  19.169  0.00  0.00    +0.000 A 
ATOM      7  H   UNL     1       1.628   5.688  20.067  0.00  0.00    +0.000 HD
ENDROOT
BRANCH   5   8
ATOM      8  C   UNL     1       4.980   4.823  17.104  0.00  0.00    +0.000 A 
ATOM      9  C   UNL     1       4.742   4.119  15.913  0.00  0.00    +0.000 A 
ATOM     10  C   UNL     1       5.609   4.232  14.819  0.00  0.00    +0.000 A 
ATOM     11  C   UNL     1       6.735   5.043  14.904  0.00  0.00    +0.000 A 
ATOM     12 CL   UNL     1       7.802   5.178  13.564  0.00  0.00    +0.000 Cl
ATOM     13  C   UNL     1       7.002   5.739  16.077  0.00  0.00    +0.000 A 
ATOM     14  C   UNL     1       6.133   5.624  17.168  0.00  0.00    +0.000 A 
ENDBRANCH   5   8
BRANCH   6  15
ATOM     15  N   UNL     1       4.842   2.634  19.301  0.00  0.00    +0.000 N 
ATOM     16  H   UNL     1       4.392   1.850  19.772  0.00  0.00    +0.000 HD
ATOM     17  H   UNL     1       5.286   2.332  18.436  0.00  0.00    +0.000 HD
ENDBRANCH   6  15
BRANCH   1  19
ATOM     18  N   UNL     1       2.257   2.540  22.229  0.00  0.00    +0.000 NA
ATOM     19  C   UNL     1       2.577   3.215  21.213  0.00  0.00    +0.000 C 
ENDBRANCH   1  19
TORSDOF 3
ENDMDL
MODEL 5
REMARK VINA RESULT:      -6.1      3.608      6.023
REMARK  Name = 
REMARK  3 active torsions:
REMARK  status: ('A' for Active; 'I' for Inactive)
REMARK    1  A    between atoms: C_2  and  C_3
REMARK    2  A    between atoms: N_7  and  C_8
REMARK    3  A    between atoms: C_15  and  N_16
REMARK                            x       y       z     vdW  Elec       q    Type
REMARK                         _______ _______ _______ _____ _____    ______ ____
ROOT
ATOM      1  C   UNL     1       2.971   4.060  20.007  0.00  0.00    +0.000 A 
ATOM      2  N   UNL     1       2.421   5.258  19.670  0.00  0.00    +0.000 N 
ATOM      3  C   UNL     1       3.090   5.761  18.547  0.00  0.00    +0.000 A 
ATOM      4  O   UNL     1       2.814   6.819  18.009  0.00  0.00    +0.000 OA
ATOM      5  N   UNL     1       4.079   4.771  18.225  0.00  0.00    +0.000 N 
ATOM      6  C   UNL     1       3.979   3.738  19.167  0.00  0.00    +0.000 A 
ATOM      7  H   UNL     1       1.668   5.741  20.136  0.00  0.00    +0.000 HD
ENDROOT
BRANCH   5   8
ATOM      8  C   UNL     1       4.960   4.872  17.108  0.00  0.00    +0.000 A 
ATOM      9  C   UNL     1       6.111   5.674  17.161  0.00  0.00    +0.000 A 
ATOM     10  C   UNL     1       6.989   5.754  16.073  0.00  0.00    +0.000 A 
ATOM     11  C   UNL     1       6.723   5.040  14.910  0.00  0.00    +0.000 A 
ATOM     12 CL   UNL     1       7.798   5.141  13.573  0.00  0.00    +0.000 Cl
ATOM     13  C   UNL     1       5.583   4.250  14.826  0.00  0.00    +0.000 A 
ATOM     14  C   UNL     1       4.707   4.173  15.915  0.00  0.00    +0.000 A 
ENDBRANCH   5   8
BRANCH   6  15
ATOM     15  N   UNL     1       4.814   2.645  19.265  0.00  0.00    +0.000 N 
ATOM     16  H   UNL     1       5.793   2.922  19.333  0.00  0.00    +0.000 HD
ATOM     17  H   UNL     1       4.570   1.986  20.002  0.00  0.00    +0.000 HD
ENDBRANCH   6  15
BRANCH   1  19
ATOM     18  N   UNL     1       2.271   2.542  22.230  0.00  0.00    +0.000 NA
ATOM     19  C   UNL     1       2.588   3.231  21.222  0.00  0.00    +0.000 C 
ENDBRANCH   1  19
TORSDOF 3
ENDMDL
MODEL 6
REMARK VINA RESULT:      -6.1      1.887      1.978
REMARK  Name = 
REMARK  3 active torsions:
REMARK  status: ('A' for Active; 'I' for Inactive)
REMARK    1  A    between atoms: C_2  and  C_3
REMARK    2  A    between atoms: N_7  and  C_8
REMARK    3  A    between atoms: C_15  and  N_16
REMARK                            x       y       z     vdW  Elec       q    Type
REMARK                         _______ _______ _______ _____ _____    ______ ____
ROOT
ATOM      1  C   UNL     1       7.103   4.881  15.300  0.00  0.00    +0.000 A 
ATOM      2  N   UNL     1       7.645   4.898  16.548  0.00  0.00    +0.000 N 
ATOM      3  C   UNL     1       6.653   4.553  17.474  0.00  0.00    +0.000 A 
ATOM      4  O   UNL     1       6.842   4.476  18.676  0.00  0.00    +0.000 OA
ATOM      5  N   UNL     1       5.473   4.316  16.691  0.00  0.00    +0.000 N 
ATOM      6  C   UNL     1       5.795   4.546  15.346  0.00  0.00    +0.000 A 
ATOM      7  H   UNL     1       8.593   5.130  16.803  0.00  0.00    +0.000 HD
ENDROOT
BRANCH   5   8
ATOM      8  C   UNL     1       4.230   3.896  17.246  0.00  0.00    +0.000 A 
ATOM      9  C   UNL     1       3.233   4.825  17.581  0.00  0.00    +0.000 A 
ATOM     10  C   UNL     1       2.002   4.410  18.105  0.00  0.00    +0.000 A 
ATOM     11  C   UNL     1       1.753   3.058  18.311  0.00  0.00    +0.000 A 
ATOM     12 CL   UNL     1       0.244   2.548  18.957  0.00  0.00    +0.000 Cl
ATOM     13  C   UNL     1       2.729   2.118  18.001  0.00  0.00    +0.000 A 
ATOM     14  C   UNL     1       3.958   2.536  17.478  0.00  0.00    +0.000 A 
ENDBRANCH   5   8
BRANCH   6  15
ATOM     15  N   UNL     1       4.916   4.520  14.284  0.00  0.00    +0.000 N 
ATOM     16  H   UNL     1       4.009   4.912  14.535  0.00  0.00    +0.000 HD
ATOM     17  H   UNL     1       5.268   4.939  13.426  0.00  0.00    +0.000 HD
ENDBRANCH   6  15
BRANCH   1  19
ATOM     18  N   UNL     1       8.427   5.617  12.967  0.00  0.00    +0.000 NA
ATOM     19  C   UNL     1       7.827   5.284  14.025  0.00  0.00    +0.000 C 
ENDBRANCH   1  19
TORSDOF 3
ENDMDL
MODEL 7
REMARK VINA RESULT:      -6.0      1.850      2.179
REMARK  Name = 
REMARK  3 active torsions:
REMARK  status: ('A' for Active; 'I' for Inactive)
REMARK    1  A    between atoms: C_2  and  C_3
REMARK    2  A    between atoms: N_7  and  C_8
REMARK    3  A    between atoms: C_15  and  N_16
REMARK                            x       y       z     vdW  Elec       q    Type
REMARK                         _______ _______ _______ _____ _____    ______ ____
ROOT
ATOM      1  C   UNL     1       5.951   5.581  15.655  0.00  0.00    +0.000 A 
ATOM      2  N   UNL     1       5.388   6.779  15.972  0.00  0.00    +0.000 N 
ATOM      3  C   UNL     1       4.431   6.577  16.974  0.00  0.00    +0.000 A 
ATOM      4  O   UNL     1       3.765   7.470  17.467  0.00  0.00    +0.000 OA
ATOM      5  N   UNL     1       4.466   5.168  17.247  0.00  0.00    +0.000 N 
ATOM      6  C   UNL     1       5.414   4.585  16.395  0.00  0.00    +0.000 A 
ATOM      7  H   UNL     1       5.590   7.679  15.563  0.00  0.00    +0.000 HD
ENDROOT
BRANCH   5   8
ATOM      8  C   UNL     1       3.666   4.539  18.246  0.00  0.00    +0.000 A 
ATOM      9  C   UNL     1       4.252   3.903  19.351  0.00  0.00    +0.000 A 
ATOM     10  C   UNL     1       3.465   3.306  20.345  0.00  0.00    +0.000 A 
ATOM     11  C   UNL     1       2.079   3.327  20.241  0.00  0.00    +0.000 A 
ATOM     12 CL   UNL     1       1.113   2.590  21.458  0.00  0.00    +0.000 Cl
ATOM     13  C   UNL     1       1.474   3.938  19.149  0.00  0.00    +0.000 A 
ATOM     14  C   UNL     1       2.263   4.533  18.159  0.00  0.00    +0.000 A 
ENDBRANCH   5   8
BRANCH   6  15
ATOM     15  N   UNL     1       5.680   3.238  16.275  0.00  0.00    +0.000 N 
ATOM     16  H   UNL     1       5.972   2.992  15.330  0.00  0.00    +0.000 HD
ATOM     17  H   UNL     1       6.331   2.867  16.965  0.00  0.00    +0.000 HD
ENDBRANCH   6  15
BRANCH   1  19
ATOM     18  N   UNL     1       7.818   5.169  13.635  0.00  0.00    +0.000 NA
ATOM     19  C   UNL     1       6.971   5.356  14.551  0.00  0.00    +0.000 C 
ENDBRANCH   1  19
TORSDOF 3
ENDMDL
MODEL 8
REMARK VINA RESULT:      -6.0      1.879      2.031
REMARK  Name = 
REMARK  3 active torsions:
REMARK  status: ('A' for Active; 'I' for Inactive)
REMARK    1  A    between atoms: C_2  and  C_3
REMARK    2  A    between atoms: N_7  and  C_8
REMARK    3  A    between atoms: C_15  and  N_16
REMARK                            x       y       z     vdW  Elec       q    Type
REMARK                         _______ _______ _______ _____ _____    ______ ____
ROOT
ATOM      1  C   UNL     1       5.957   5.586  15.624  0.00  0.00    +0.000 A 
ATOM      2  N   UNL     1       5.400   6.792  15.922  0.00  0.00    +0.000 N 
ATOM      3  C   UNL     1       4.437   6.609  16.921  0.00  0.00    +0.000 A 
ATOM      4  O   UNL     1       3.775   7.513  17.400  0.00  0.00    +0.000 OA
ATOM      5  N   UNL     1       4.461   5.203  17.214  0.00  0.00    +0.000 N 
ATOM      6  C   UNL     1       5.410   4.604  16.374  0.00  0.00    +0.000 A 
ATOM      7  H   UNL     1       5.610   7.685  15.502  0.00  0.00    +0.000 HD
ENDROOT
BRANCH   5   8
ATOM      8  C   UNL     1       3.652   4.593  18.217  0.00  0.00    +0.000 A 
ATOM      9  C   UNL     1       2.260   4.503  18.071  0.00  0.00    +0.000 A 
ATOM     10  C   UNL     1       1.468   3.881  19.045  0.00  0.00    +0.000 A 
ATOM     11  C   UNL     1       2.057   3.350  20.186  0.00  0.00    +0.000 A 
ATOM     12 CL   UNL     1       1.086   2.592  21.384  0.00  0.00    +0.000 Cl
ATOM     13  C   UNL     1       3.433   3.439  20.362  0.00  0.00    +0.000 A 
ATOM     14  C   UNL     1       4.221   4.060  19.387  0.00  0.00    +0.000 A 
ENDBRANCH   5   8
BRANCH   6  15
ATOM     15  N   UNL     1       5.668   3.253  16.273  0.00  0.00    +0.000 N 
ATOM     16  H   UNL     1       4.943   2.695  16.723  0.00  0.00    +0.000 HD
ATOM     17  H   UNL     1       5.849   2.921  15.328  0.00  0.00    +0.000 HD
ENDBRANCH   6  15
BRANCH   1  19
ATOM     18  N   UNL     1       7.831   5.135  13.619  0.00  0.00    +0.000 NA
ATOM     19  C   UNL     1       6.981   5.340  14.528  0.00  0.00    +0.000 C 
ENDBRANCH   1  19
TORSDOF 3
ENDMDL
MODEL 9
REMARK VINA RESULT:      -5.6      3.702      4.563
REMARK  Name = 
REMARK  3 active torsions:
REMARK  status: ('A' for Active; 'I' for Inactive)
REMARK    1  A    between atoms: C_2  and  C_3
REMARK    2  A    between atoms: N_7  and  C_8
REMARK    3  A    between atoms: C_15  and  N_16
REMARK                            x       y       z     vdW  Elec       q    Type
REMARK                         _______ _______ _______ _____ _____    ______ ____
ROOT
ATOM      1  C   UNL     1       5.055   5.016  16.924  0.00  0.00    +0.000 A 
ATOM      2  N   UNL     1       4.008   4.155  17.046  0.00  0.00    +0.000 N 
ATOM      3  C   UNL     1       2.946   4.823  17.666  0.00  0.00    +0.000 A 
ATOM      4  O   UNL     1       1.866   4.310  17.904  0.00  0.00    +0.000 OA
ATOM      5  N   UNL     1       3.425   6.156  17.900  0.00  0.00    +0.000 N 
ATOM      6  C   UNL     1       4.746   6.227  17.436  0.00  0.00    +0.000 A 
ATOM      7  H   UNL     1       3.973   3.187  16.763  0.00  0.00    +0.000 HD
ENDROOT
BRANCH   5   8
ATOM      8  C   UNL     1       2.633   7.188  18.483  0.00  0.00    +0.000 A 
ATOM      9  C   UNL     1       2.272   7.149  19.839  0.00  0.00    +0.000 A 
ATOM     10  C   UNL     1       1.514   8.175  20.417  0.00  0.00    +0.000 A 
ATOM     11  C   UNL     1       1.095   9.252  19.643  0.00  0.00    +0.000 A 
ATOM     12 CL   UNL     1       0.161  10.509  20.351  0.00  0.00    +0.000 Cl
ATOM     13  C   UNL     1       1.427   9.308  18.295  0.00  0.00    +0.000 A 
ATOM     14  C   UNL     1       2.184   8.281  17.720  0.00  0.00    +0.000 A 
ENDBRANCH   5   8
BRANCH   6  15
ATOM     15  N   UNL     1       5.594   7.307  17.563  0.00  0.00    +0.000 N 
ATOM     16  H   UNL     1       5.084   8.189  17.574  0.00  0.00    +0.000 HD
ATOM     17  H   UNL     1       6.244   7.251  18.345  0.00  0.00    +0.000 HD
ENDBRANCH   6  15
BRANCH   1  19
ATOM     18  N   UNL     1       7.568   4.354  15.934  0.00  0.00    +0.000 NA
ATOM     19  C   UNL     1       6.429   4.654  16.383  0.00  0.00    +0.000 C 
ENDBRANCH   1  19
TORSDOF 3
ENDMDL
