MODEL 1
REMARK VINA RESULT:      -8.2      0.000      0.000
REMARK  Name = 
REMARK  2 active torsions:
REMARK  status: ('A' for Active; 'I' for Inactive)
REMARK    1  A    between atoms: O_1  and  C_2
REMARK    2  A    between atoms: C_5  and  C_6
REMARK                            x       y       z     vdW  Elec       q    Type
REMARK                         _______ _______ _______ _____ _____    ______ ____
ROOT
ATOM      1  C   UNL     1       7.013   6.188  17.466  0.00  0.00    +0.000 A 
ATOM      2  N   UNL     1       7.741   6.316  16.347  0.00  0.00    +0.000 NA
ATOM      3  N   UNL     1       7.409   5.616  15.210  0.00  0.00    +0.000 NA
ATOM      4  C   UNL     1       6.333   4.787  15.152  0.00  0.00    +0.000 A 
ATOM      5  C   UNL     1       5.587   4.633  16.331  0.00  0.00    +0.000 A 
ATOM      6  S   UNL     1       4.218   3.636  16.654  0.00  0.00    +0.000 S 
ATOM      7  C   UNL     1       4.138   4.209  18.269  0.00  0.00    +0.000 A 
ATOM      8  N   UNL     1       3.195   3.712  19.117  0.00  0.00    +0.000 N 
ATOM      9  C   UNL     1       3.593   3.594  20.522  0.00  0.00    +0.000 C 
ATOM     10  C   UNL     1       2.657   2.601  21.214  0.00  0.00    +0.000 C 
ATOM     11  C   UNL     1       1.193   3.011  21.056  0.00  0.00    +0.000 C 
ATOM     12  C   UNL     1       0.844   3.251  19.587  0.00  0.00    +0.000 C 
ATOM     13  C   UNL     1       1.830   4.218  18.932  0.00  0.00    +0.000 C 
ATOM     14  N   UNL     1       5.077   5.065  18.592  0.00  0.00    +0.000 NA
ATOM     15  C   UNL     1       5.912   5.325  17.500  0.00  0.00    +0.000 A 
ENDROOT
BRANCH   4  16
ATOM     16  C   UNL     1       6.052   4.134  13.868  0.00  0.00    +0.000 A 
ATOM     17  C   UNL     1       7.103   3.748  13.017  0.00  0.00    +0.000 A 
ATOM     18  C   UNL     1       6.853   3.150  11.778  0.00  0.00    +0.000 A 
ATOM     19  C   UNL     1       5.543   2.918  11.366  0.00  0.00    +0.000 A 
ATOM     20  C   UNL     1       4.485   3.291  12.187  0.00  0.00    +0.000 A 
ATOM     21  C   UNL     1       4.739   3.903  13.416  0.00  0.00    +0.000 A 
ENDBRANCH   4  16
BRANCH   1  22
ATOM     22  O   UNL     1       7.423   6.947  18.528  0.00  0.00    +0.000 OA
ATOM     23  H   UNL     1       8.181   6.432  18.851  0.00  0.00    +0.000 HD
ENDBRANCH   1  22
TORSDOF 2
ENDMDL
MODEL 2
REMARK VINA RESULT:      -8.1      0.043      1.026
REMARK  Name = 
REMARK  2 active torsions:
REMARK  status: ('A' for Active; 'I' for Inactive)
REMARK    1  A    between atoms: O_1  and  C_2
REMARK    2  A    between atoms: C_5  and  C_6
REMARK                            x       y       z     vdW  Elec       q    Type
REMARK                         _______ _______ _______ _____ _____    ______ ____
ROOT
ATOM      1  C   UNL     1       7.034   6.202  17.457  0.00  0.00    +0.000 A 
ATOM      2  N   UNL     1       7.761   6.334  16.338  0.00  0.00    +0.000 NA
ATOM      3  N   UNL     1       7.427   5.641  15.198  0.00  0.00    +0.000 NA
ATOM      4  C   UNL     1       6.351   4.813  15.137  0.00  0.00    +0.000 A 
ATOM      5  C   UNL     1       5.605   4.654  16.316  0.00  0.00    +0.000 A 
ATOM      6  S   UNL     1       4.236   3.655  16.636  0.00  0.00    +0.000 S 
ATOM      7  C   UNL     1       4.159   4.221  18.253  0.00  0.00    +0.000 A 
ATOM      8  N   UNL     1       3.216   3.720  19.099  0.00  0.00    +0.000 N 
ATOM      9  C   UNL     1       3.615   3.595  20.504  0.00  0.00    +0.000 C 
ATOM     10  C   UNL     1       2.679   2.600  21.192  0.00  0.00    +0.000 C 
ATOM     11  C   UNL     1       1.216   3.011  21.037  0.00  0.00    +0.000 C 
ATOM     12  C   UNL     1       0.865   3.258  19.571  0.00  0.00    +0.000 C 
ATOM     13  C   UNL     1       1.851   4.229  18.919  0.00  0.00    +0.000 C 
ATOM     14  N   UNL     1       5.098   5.074  18.580  0.00  0.00    +0.000 NA
ATOM     15  C   UNL     1       5.932   5.340  17.488  0.00  0.00    +0.000 A 
ENDROOT
BRANCH   4  16
ATOM     16  C   UNL     1       6.068   4.166  13.850  0.00  0.00    +0.000 A 
ATOM     17  C   UNL     1       4.741   3.962  13.429  0.00  0.00    +0.000 A 
ATOM     18  C   UNL     1       4.453   3.322  12.219  0.00  0.00    +0.000 A 
ATOM     19  C   UNL     1       5.489   2.879  11.400  0.00  0.00    +0.000 A 
ATOM     20  C   UNL     1       6.808   3.066  11.792  0.00  0.00    +0.000 A 
ATOM     21  C   UNL     1       7.091   3.691  13.009  0.00  0.00    +0.000 A 
ENDBRANCH   4  16
BRANCH   1  22
ATOM     22  O   UNL     1       7.446   6.955  18.523  0.00  0.00    +0.000 OA
ATOM     23  H   UNL     1       7.375   6.315  19.250  0.00  0.00    +0.000 HD
ENDBRANCH   1  22
TORSDOF 2
ENDMDL
MODEL 3
REMARK VINA RESULT:      -7.3      2.270      4.806
REMARK  Name = 
REMARK  2 active torsions:
REMARK  status: ('A' for Active; 'I' for Inactive)
REMARK    1  A    between atoms: O_1  and  C_2
REMARK    2  A    between atoms: C_5  and  C_6
REMARK                            x       y       z     vdW  Elec       q    Type
REMARK                         _______ _______ _______ _____ _____    ______ ____
ROOT
ATOM      1  C   UNL     1       6.150   4.019  15.422  0.00  0.00    +0.000 A 
ATOM      2  N   UNL     1       7.129   4.809  14.958  0.00  0.00    +0.000 NA
ATOM      3  N   UNL     1       7.562   5.892  15.686  0.00  0.00    +0.000 NA
ATOM      4  C   UNL     1       7.045   6.206  16.904  0.00  0.00    +0.000 A 
ATOM      5  C   UNL     1       6.001   5.394  17.378  0.00  0.00    +0.000 A 
ATOM      6  S   UNL     1       5.070   5.518  18.824  0.00  0.00    +0.000 S 
ATOM      7  C   UNL     1       4.171   4.119  18.405  0.00  0.00    +0.000 A 
ATOM      8  N   UNL     1       3.163   3.696  19.217  0.00  0.00    +0.000 N 
ATOM      9  C   UNL     1       2.011   3.086  18.547  0.00  0.00    +0.000 C 
ATOM     10  C   UNL     1       0.814   3.126  19.498  0.00  0.00    +0.000 C 
ATOM     11  C   UNL     1       1.136   2.451  20.831  0.00  0.00    +0.000 C 
ATOM     12  C   UNL     1       2.414   3.022  21.442  0.00  0.00    +0.000 C 
ATOM     13  C   UNL     1       3.570   2.994  20.441  0.00  0.00    +0.000 C 
ATOM     14  N   UNL     1       4.493   3.587  17.251  0.00  0.00    +0.000 NA
ATOM     15  C   UNL     1       5.539   4.295  16.650  0.00  0.00    +0.000 A 
ENDROOT
BRANCH   4  16
ATOM     16  C   UNL     1       7.623   7.357  17.608  0.00  0.00    +0.000 A 
ATOM     17  C   UNL     1       7.480   8.657  17.090  0.00  0.00    +0.000 A 
ATOM     18  C   UNL     1       8.048   9.761  17.733  0.00  0.00    +0.000 A 
ATOM     19  C   UNL     1       8.767   9.590  18.913  0.00  0.00    +0.000 A 
ATOM     20  C   UNL     1       8.925   8.316  19.446  0.00  0.00    +0.000 A 
ATOM     21  C   UNL     1       8.370   7.213  18.792  0.00  0.00    +0.000 A 
ENDBRANCH   4  16
BRANCH   1  22
ATOM     22  O   UNL     1       5.816   2.960  14.622  0.00  0.00    +0.000 OA
ATOM     23  H   UNL     1       4.914   2.765  14.928  0.00  0.00    +0.000 HD
ENDBRANCH   1  22
TORSDOF 2
ENDMDL
MODEL 4
REMARK VINA RESULT:      -7.3      2.260      4.769
REMARK  Name = 
REMARK  2 active torsions:
REMARK  status: ('A' for Active; 'I' for Inactive)
REMARK    1  A    between atoms: O_1  and  C_2
REMARK    2  A    between atoms: C_5  and  C_6
REMARK                            x       y       z     vdW  Elec       q    Type
REMARK                         _______ _______ _______ _____ _____    ______ ____
ROOT
ATOM      1  C   UNL     1       6.171   4.016  15.390  0.00  0.00    +0.000 A 
ATOM      2  N   UNL     1       7.155   4.797  14.922  0.00  0.00    +0.000 NA
ATOM      3  N   UNL     1       7.586   5.890  15.638  0.00  0.00    +0.000 NA
ATOM      4  C   UNL     1       7.062   6.221  16.848  0.00  0.00    +0.000 A 
ATOM      5  C   UNL     1       6.013   5.419  17.326  0.00  0.00    +0.000 A 
ATOM      6  S   UNL     1       5.073   5.564  18.764  0.00  0.00    +0.000 S 
ATOM      7  C   UNL     1       4.173   4.162  18.358  0.00  0.00    +0.000 A 
ATOM      8  N   UNL     1       3.158   3.753  19.169  0.00  0.00    +0.000 N 
ATOM      9  C   UNL     1       2.009   3.137  18.500  0.00  0.00    +0.000 C 
ATOM     10  C   UNL     1       0.805   3.193  19.442  0.00  0.00    +0.000 C 
ATOM     11  C   UNL     1       1.117   2.535  20.785  0.00  0.00    +0.000 C 
ATOM     12  C   UNL     1       2.393   3.111  21.398  0.00  0.00    +0.000 C 
ATOM     13  C   UNL     1       3.555   3.067  20.405  0.00  0.00    +0.000 C 
ATOM     14  N   UNL     1       4.501   3.614  17.214  0.00  0.00    +0.000 NA
ATOM     15  C   UNL     1       5.552   4.311  16.610  0.00  0.00    +0.000 A 
ENDROOT
BRANCH   4  16
ATOM     16  C   UNL     1       7.638   7.380  17.540  0.00  0.00    +0.000 A 
ATOM     17  C   UNL     1       8.372   7.211  18.728  0.00  0.00    +0.000 A 
ATOM     18  C   UNL     1       8.904   8.307  19.415  0.00  0.00    +0.000 A 
ATOM     19  C   UNL     1       8.720   9.597  18.924  0.00  0.00    +0.000 A 
ATOM     20  C   UNL     1       7.998   9.792  17.752  0.00  0.00    +0.000 A 
ATOM     21  C   UNL     1       7.454   8.697  17.078  0.00  0.00    +0.000 A 
ENDBRANCH   4  16
BRANCH   1  22
ATOM     22  O   UNL     1       5.839   2.947  14.602  0.00  0.00    +0.000 OA
ATOM     23  H   UNL     1       5.394   2.368  15.242  0.00  0.00    +0.000 HD
ENDBRANCH   1  22
TORSDOF 2
ENDMDL
MODEL 5
REMARK VINA RESULT:      -6.8      4.364      6.869
REMARK  Name = 
REMARK  2 active torsions:
REMARK  status: ('A' for Active; 'I' for Inactive)
REMARK    1  A    between atoms: O_1  and  C_2
REMARK    2  A    between atoms: C_5  and  C_6
REMARK                            x       y       z     vdW  Elec       q    Type
REMARK                         _______ _______ _______ _____ _____    ______ ____
ROOT
ATOM      1  C   UNL     1       4.512   6.579  16.543  0.00  0.00    +0.000 A 
ATOM      2  N   UNL     1       4.882   5.307  16.751  0.00  0.00    +0.000 NA
ATOM      3  N   UNL     1       4.319   4.569  17.767  0.00  0.00    +0.000 NA
ATOM      4  C   UNL     1       3.361   5.073  18.589  0.00  0.00    +0.000 A 
ATOM      5  C   UNL     1       2.993   6.413  18.388  0.00  0.00    +0.000 A 
ATOM      6  S   UNL     1       1.878   7.400  19.258  0.00  0.00    +0.000 S 
ATOM      7  C   UNL     1       2.194   8.730  18.224  0.00  0.00    +0.000 A 
ATOM      8  N   UNL     1       1.581   9.925  18.453  0.00  0.00    +0.000 N 
ATOM      9  C   UNL     1       2.365  11.121  18.133  0.00  0.00    +0.000 C 
ATOM     10  C   UNL     1       1.767  12.313  18.882  0.00  0.00    +0.000 C 
ATOM     11  C   UNL     1       0.283  12.486  18.559  0.00  0.00    +0.000 C 
ATOM     12  C   UNL     1      -0.485  11.184  18.780  0.00  0.00    +0.000 C 
ATOM     13  C   UNL     1       0.174  10.018  18.044  0.00  0.00    +0.000 C 
ATOM     14  N   UNL     1       3.093   8.501  17.298  0.00  0.00    +0.000 NA
ATOM     15  C   UNL     1       3.559   7.184  17.369  0.00  0.00    +0.000 A 
ENDROOT
BRANCH   4  16
ATOM     16  C   UNL     1       2.801   4.174  19.605  0.00  0.00    +0.000 A 
ATOM     17  C   UNL     1       3.641   3.333  20.357  0.00  0.00    +0.000 A 
ATOM     18  C   UNL     1       3.122   2.450  21.309  0.00  0.00    +0.000 A 
ATOM     19  C   UNL     1       1.749   2.394  21.534  0.00  0.00    +0.000 A 
ATOM     20  C   UNL     1       0.895   3.212  20.804  0.00  0.00    +0.000 A 
ATOM     21  C   UNL     1       1.416   4.081  19.842  0.00  0.00    +0.000 A 
ENDBRANCH   4  16
BRANCH   1  22
ATOM     22  O   UNL     1       5.123   7.207  15.492  0.00  0.00    +0.000 OA
ATOM     23  H   UNL     1       5.730   7.809  15.954  0.00  0.00    +0.000 HD
ENDBRANCH   1  22
TORSDOF 2
ENDMDL
MODEL 6
REMARK VINA RESULT:      -6.7      2.611      3.155
REMARK  Name = 
REMARK  2 active torsions:
REMARK  status: ('A' for Active; 'I' for Inactive)
REMARK    1  A    between atoms: O_1  and  C_2
REMARK    2  A    between atoms: C_5  and  C_6
REMARK                            x       y       z     vdW  Elec       q    Type
REMARK                         _______ _______ _______ _____ _____    ______ ____
ROOT
ATOM      1  C   UNL     1       7.332   5.225  18.849  0.00  0.00    +0.000 A 
ATOM      2  N   UNL     1       8.213   4.516  18.129  0.00  0.00    +0.000 NA
ATOM      3  N   UNL     1       8.006   4.292  16.787  0.00  0.00    +0.000 NA
ATOM      4  C   UNL     1       6.926   4.785  16.125  0.00  0.00    +0.000 A 
ATOM      5  C   UNL     1       5.990   5.504  16.884  0.00  0.00    +0.000 A 
ATOM      6  S   UNL     1       4.490   6.214  16.413  0.00  0.00    +0.000 S 
ATOM      7  C   UNL     1       4.223   6.789  18.006  0.00  0.00    +0.000 A 
ATOM      8  N   UNL     1       3.074   7.459  18.299  0.00  0.00    +0.000 N 
ATOM      9  C   UNL     1       2.534   7.251  19.645  0.00  0.00    +0.000 C 
ATOM     10  C   UNL     1       1.056   7.644  19.646  0.00  0.00    +0.000 C 
ATOM     11  C   UNL     1       0.858   9.078  19.155  0.00  0.00    +0.000 C 
ATOM     12  C   UNL     1       1.543   9.297  17.806  0.00  0.00    +0.000 C 
ATOM     13  C   UNL     1       3.006   8.854  17.847  0.00  0.00    +0.000 C 
ATOM     14  N   UNL     1       5.154   6.463  18.869  0.00  0.00    +0.000 NA
ATOM     15  C   UNL     1       6.175   5.734  18.250  0.00  0.00    +0.000 A 
ENDROOT
BRANCH   4  16
ATOM     16  C   UNL     1       6.840   4.521  14.683  0.00  0.00    +0.000 A 
ATOM     17  C   UNL     1       7.696   5.181  13.783  0.00  0.00    +0.000 A 
ATOM     18  C   UNL     1       7.608   4.964  12.405  0.00  0.00    +0.000 A 
ATOM     19  C   UNL     1       6.666   4.073  11.896  0.00  0.00    +0.000 A 
ATOM     20  C   UNL     1       5.806   3.409  12.763  0.00  0.00    +0.000 A 
ATOM     21  C   UNL     1       5.886   3.642  14.138  0.00  0.00    +0.000 A 
ENDBRANCH   4  16
BRANCH   1  22
ATOM     22  O   UNL     1       7.652   5.400  20.168  0.00  0.00    +0.000 OA
ATOM     23  H   UNL     1       7.774   4.482  20.460  0.00  0.00    +0.000 HD
ENDBRANCH   1  22
TORSDOF 2
ENDMDL
MODEL 7
REMARK VINA RESULT:      -6.6      2.630      3.297
REMARK  Name = 
REMARK  2 active torsions:
REMARK  status: ('A' for Active; 'I' for Inactive)
REMARK    1  A    between atoms: O_1  and  C_2
REMARK    2  A    between atoms: C_5  and  C_6
REMARK                            x       y       z     vdW  Elec       q    Type
REMARK                         _______ _______ _______ _____ _____    ______ ____
ROOT
ATOM      1  C   UNL     1       7.274   5.176  18.825  0.00  0.00    +0.000 A 
ATOM      2  N   UNL     1       8.158   4.473  18.102  0.00  0.00    +0.000 NA
ATOM      3  N   UNL     1       7.971   4.288  16.751  0.00  0.00    +0.000 NA
ATOM      4  C   UNL     1       6.910   4.814  16.083  0.00  0.00    +0.000 A 
ATOM      5  C   UNL     1       5.971   5.528  16.846  0.00  0.00    +0.000 A 
ATOM      6  S   UNL     1       4.491   6.272  16.368  0.00  0.00    +0.000 S 
ATOM      7  C   UNL     1       4.204   6.809  17.971  0.00  0.00    +0.000 A 
ATOM      8  N   UNL     1       3.059   7.488  18.262  0.00  0.00    +0.000 N 
ATOM      9  C   UNL     1       2.493   7.254  19.592  0.00  0.00    +0.000 C 
ATOM     10  C   UNL     1       1.021   7.668  19.578  0.00  0.00    +0.000 C 
ATOM     11  C   UNL     1       0.854   9.118  19.122  0.00  0.00    +0.000 C 
ATOM     12  C   UNL     1       1.565   9.362  17.792  0.00  0.00    +0.000 C 
ATOM     13  C   UNL     1       3.020   8.896  17.846  0.00  0.00    +0.000 C 
ATOM     14  N   UNL     1       5.115   6.447  18.841  0.00  0.00    +0.000 NA
ATOM     15  C   UNL     1       6.135   5.719  18.220  0.00  0.00    +0.000 A 
ENDROOT
BRANCH   4  16
ATOM     16  C   UNL     1       6.845   4.590  14.634  0.00  0.00    +0.000 A 
ATOM     17  C   UNL     1       5.939   3.659  14.094  0.00  0.00    +0.000 A 
ATOM     18  C   UNL     1       5.883   3.413  12.719  0.00  0.00    +0.000 A 
ATOM     19  C   UNL     1       6.730   4.099  11.852  0.00  0.00    +0.000 A 
ATOM     20  C   UNL     1       7.635   5.024  12.358  0.00  0.00    +0.000 A 
ATOM     21  C   UNL     1       7.699   5.255  13.734  0.00  0.00    +0.000 A 
ENDBRANCH   4  16
BRANCH   1  22
ATOM     22  O   UNL     1       7.574   5.312  20.153  0.00  0.00    +0.000 OA
ATOM     23  H   UNL     1       7.194   4.497  20.521  0.00  0.00    +0.000 HD
ENDBRANCH   1  22
TORSDOF 2
ENDMDL
MODEL 8
REMARK VINA RESULT:      -6.6      3.893      5.723
REMARK  Name = 
REMARK  2 active torsions:
REMARK  status: ('A' for Active; 'I' for Inactive)
REMARK    1  A    between atoms: O_1  and  C_2
REMARK    2  A    between atoms: C_5  and  C_6
REMARK                            x       y       z     vdW  Elec       q    Type
REMARK                         _______ _______ _______ _____ _____    ______ ____
ROOT
ATOM      1  C   UNL     1       2.293   3.389  21.126  0.00  0.00    +0.000 A 
ATOM      2  N   UNL     1       3.080   2.481  20.531  0.00  0.00    +0.000 NA
ATOM      3  N   UNL     1       3.900   2.839  19.487  0.00  0.00    +0.000 NA
ATOM      4  C   UNL     1       3.972   4.114  19.020  0.00  0.00    +0.000 A 
ATOM      5  C   UNL     1       3.128   5.060  19.625  0.00  0.00    +0.000 A 
ATOM      6  S   UNL     1       2.898   6.730  19.266  0.00  0.00    +0.000 S 
ATOM      7  C   UNL     1       1.746   6.877  20.528  0.00  0.00    +0.000 A 
ATOM      8  N   UNL     1       1.119   8.069  20.736  0.00  0.00    +0.000 N 
ATOM      9  C   UNL     1      -0.270   7.993  21.196  0.00  0.00    +0.000 C 
ATOM     10  C   UNL     1      -0.955   9.330  20.908  0.00  0.00    +0.000 C 
ATOM     11  C   UNL     1      -0.195  10.495  21.541  0.00  0.00    +0.000 C 
ATOM     12  C   UNL     1       1.280  10.472  21.143  0.00  0.00    +0.000 C 
ATOM     13  C   UNL     1       1.908   9.104  21.415  0.00  0.00    +0.000 C 
ATOM     14  N   UNL     1       1.498   5.765  21.176  0.00  0.00    +0.000 NA
ATOM     15  C   UNL     1       2.279   4.715  20.680  0.00  0.00    +0.000 A 
ENDROOT
BRANCH   4  16
ATOM     16  C   UNL     1       4.921   4.384  17.933  0.00  0.00    +0.000 A 
ATOM     17  C   UNL     1       4.515   4.292  16.590  0.00  0.00    +0.000 A 
ATOM     18  C   UNL     1       5.413   4.518  15.542  0.00  0.00    +0.000 A 
ATOM     19  C   UNL     1       6.738   4.848  15.816  0.00  0.00    +0.000 A 
ATOM     20  C   UNL     1       7.166   4.944  17.135  0.00  0.00    +0.000 A 
ATOM     21  C   UNL     1       6.270   4.702  18.178  0.00  0.00    +0.000 A 
ENDBRANCH   4  16
BRANCH   1  22
ATOM     22  O   UNL     1       1.535   2.924  22.167  0.00  0.00    +0.000 OA
ATOM     23  H   UNL     1       1.332   2.022  21.868  0.00  0.00    +0.000 HD
ENDBRANCH   1  22
TORSDOF 2
ENDMDL
MODEL 9
REMARK VINA RESULT:      -6.6      3.883      5.664
REMARK  Name = 
REMARK  2 active torsions:
REMARK  status: ('A' for Active; 'I' for Inactive)
REMARK    1  A    between atoms: O_1  and  C_2
REMARK    2  A    between atoms: C_5  and  C_6
REMARK                            x       y       z     vdW  Elec       q    Type
REMARK                         _______ _______ _______ _____ _____    ______ ____
ROOT
ATOM      1  C   UNL     1       2.313   3.382  21.117  0.00  0.00    +0.000 A 
ATOM      2  N   UNL     1       3.101   2.478  20.517  0.00  0.00    +0.000 NA
ATOM      3  N   UNL     1       3.914   2.840  19.469  0.00  0.00    +0.000 NA
ATOM      4  C   UNL     1       3.979   4.116  19.004  0.00  0.00    +0.000 A 
ATOM      5  C   UNL     1       3.134   5.057  19.615  0.00  0.00    +0.000 A 
ATOM      6  S   UNL     1       2.896   6.728  19.260  0.00  0.00    +0.000 S 
ATOM      7  C   UNL     1       1.750   6.868  20.528  0.00  0.00    +0.000 A 
ATOM      8  N   UNL     1       1.119   8.057  20.740  0.00  0.00    +0.000 N 
ATOM      9  C   UNL     1      -0.267   7.975  21.207  0.00  0.00    +0.000 C 
ATOM     10  C   UNL     1      -0.959   9.310  20.924  0.00  0.00    +0.000 C 
ATOM     11  C   UNL     1      -0.201  10.477  21.555  0.00  0.00    +0.000 C 
ATOM     12  C   UNL     1       1.273  10.460  21.150  0.00  0.00    +0.000 C 
ATOM     13  C   UNL     1       1.907   9.095  21.417  0.00  0.00    +0.000 C 
ATOM     14  N   UNL     1       1.509   5.754  21.174  0.00  0.00    +0.000 NA
ATOM     15  C   UNL     1       2.292   4.708  20.674  0.00  0.00    +0.000 A 
ENDROOT
BRANCH   4  16
ATOM     16  C   UNL     1       4.922   4.391  17.913  0.00  0.00    +0.000 A 
ATOM     17  C   UNL     1       6.240   4.796  18.192  0.00  0.00    +0.000 A 
ATOM     18  C   UNL     1       7.142   5.089  17.165  0.00  0.00    +0.000 A 
ATOM     19  C   UNL     1       6.747   4.976  15.834  0.00  0.00    +0.000 A 
ATOM     20  C   UNL     1       5.450   4.579  15.530  0.00  0.00    +0.000 A 
ATOM     21  C   UNL     1       4.547   4.304  16.559  0.00  0.00    +0.000 A 
ENDBRANCH   4  16
BRANCH   1  22
ATOM     22  O   UNL     1       1.563   2.912  22.161  0.00  0.00    +0.000 OA
ATOM     23  H   UNL     1       2.191   2.310  22.594  0.00  0.00    +0.000 HD
ENDBRANCH   1  22
TORSDOF 2
ENDMDL
