MODEL 1
REMARK VINA RESULT:      -8.0      0.000      0.000
REMARK  Name = 
REMARK  7 active torsions:
REMARK  status: ('A' for Active; 'I' for Inactive)
REMARK    1  A    between atoms: C_1  and  N_2
REMARK    2  A    between atoms: N_2  and  C_3
REMARK    3  A    between atoms: N_2  and  S_18
REMARK    4  A    between atoms: C_6  and  C_7
REMARK    5  A    between atoms: N_9  and  C_10
REMARK    6  A    between atoms: C_10  and  C_11
REMARK    7  A    between atoms: S_18  and  C_21
REMARK                            x       y       z     vdW  Elec       q    Type
REMARK                         _______ _______ _______ _____ _____    ______ ____
ROOT
ATOM      1  C   UNL     1       2.974   6.090  18.865  0.00  0.00    +0.000 A 
ATOM      2  C   UNL     1       2.304   6.609  19.969  0.00  0.00    +0.000 A 
ATOM      3  C   UNL     1       1.763   7.898  19.910  0.00  0.00    +0.000 A 
ATOM      4  C   UNL     1       1.893   8.676  18.748  0.00  0.00    +0.000 A 
ATOM      5  C   UNL     1       2.632   8.179  17.669  0.00  0.00    +0.000 A 
ATOM      6  C   UNL     1       3.171   6.885  17.731  0.00  0.00    +0.000 A 
ENDROOT
BRANCH   4   7
ATOM      7  C   UNL     1       1.209  10.004  18.725  0.00  0.00    +0.000 C 
ATOM      8  O   UNL     1       1.850  11.010  18.430  0.00  0.00    +0.000 OA
ATOM      9  N   UNL     1      -0.113  10.045  19.105  0.00  0.00    +0.000 N 
ATOM     10  H   UNL     1      -0.635   9.201  19.298  0.00  0.00    +0.000 HD
BRANCH   9  11
ATOM     11  C   UNL     1      -0.863  11.294  19.155  0.00  0.00    +0.000 C 
BRANCH  11  12
ATOM     12  C   UNL     1      -1.826  11.448  17.973  0.00  0.00    +0.000 C 
ATOM     13  C   UNL     1      -3.288  11.613  18.363  0.00  0.00    +0.000 C 
ATOM     14  C   UNL     1      -4.006  11.039  17.167  0.00  0.00    +0.000 C 
ATOM     15  C   UNL     1      -3.087   9.916  16.740  0.00  0.00    +0.000 C 
ATOM     16  O   UNL     1      -1.756  10.284  17.122  0.00  0.00    +0.000 OA
ENDBRANCH  11  12
ENDBRANCH   9  11
ENDBRANCH   4   7
BRANCH   1  18
ATOM     17  C   UNL     1       2.480   3.637  18.991  0.00  0.00    +0.000 C 
ATOM     18  N   UNL     1       3.433   4.742  18.881  0.00  0.00    +0.000 N 
BRANCH  18  19
ATOM     19  S   UNL     1       5.091   4.441  19.053  0.00  0.00    +0.000 S 
ATOM     20  O   UNL     1       5.729   5.577  19.681  0.00  0.00    +0.000 OA
ATOM     21  O   UNL     1       5.251   3.108  19.606  0.00  0.00    +0.000 OA
BRANCH  19  22
ATOM     22  C   UNL     1       5.702   4.365  17.371  0.00  0.00    +0.000 A 
ATOM     23  C   UNL     1       4.821   4.079  16.320  0.00  0.00    +0.000 A 
ATOM     24  C   UNL     1       5.255   4.203  14.996  0.00  0.00    +0.000 A 
ATOM     25  C   UNL     1       6.558   4.624  14.721  0.00  0.00    +0.000 A 
ATOM     26  C   UNL     1       7.434   4.915  15.768  0.00  0.00    +0.000 A 
ATOM     27  C   UNL     1       7.008   4.790  17.094  0.00  0.00    +0.000 A 
ENDBRANCH  19  22
ENDBRANCH  18  19
ENDBRANCH   1  18
TORSDOF 6
ENDMDL
MODEL 2
REMARK VINA RESULT:      -7.8      1.598      2.283
REMARK  Name = 
REMARK  7 active torsions:
REMARK  status: ('A' for Active; 'I' for Inactive)
REMARK    1  A    between atoms: C_1  and  N_2
REMARK    2  A    between atoms: N_2  and  C_3
REMARK    3  A    between atoms: N_2  and  S_18
REMARK    4  A    between atoms: C_6  and  C_7
REMARK    5  A    between atoms: N_9  and  C_10
REMARK    6  A    between atoms: C_10  and  C_11
REMARK    7  A    between atoms: S_18  and  C_21
REMARK                            x       y       z     vdW  Elec       q    Type
REMARK                         _______ _______ _______ _____ _____    ______ ____
ROOT
ATOM      1  C   UNL     1       2.954   6.057  18.889  0.00  0.00    +0.000 A 
ATOM      2  C   UNL     1       2.257   6.559  19.985  0.00  0.00    +0.000 A 
ATOM      3  C   UNL     1       1.746   7.861  19.944  0.00  0.00    +0.000 A 
ATOM      4  C   UNL     1       1.932   8.669  18.810  0.00  0.00    +0.000 A 
ATOM      5  C   UNL     1       2.698   8.185  17.743  0.00  0.00    +0.000 A 
ATOM      6  C   UNL     1       3.207   6.879  17.786  0.00  0.00    +0.000 A 
ENDROOT
BRANCH   4   7
ATOM      7  C   UNL     1       1.278  10.011  18.802  0.00  0.00    +0.000 C 
ATOM      8  O   UNL     1       1.840  10.955  18.253  0.00  0.00    +0.000 OA
ATOM      9  N   UNL     1       0.086  10.142  19.477  0.00  0.00    +0.000 N 
ATOM     10  H   UNL     1      -0.384   9.343  19.881  0.00  0.00    +0.000 HD
BRANCH   9  11
ATOM     11  C   UNL     1      -0.616  11.416  19.564  0.00  0.00    +0.000 C 
BRANCH  11  12
ATOM     12  C   UNL     1      -0.732  11.925  21.005  0.00  0.00    +0.000 C 
ATOM     13  C   UNL     1      -0.660  10.839  22.069  0.00  0.00    +0.000 C 
ATOM     14  C   UNL     1      -1.470  11.437  23.193  0.00  0.00    +0.000 C 
ATOM     15  C   UNL     1      -2.545  12.199  22.453  0.00  0.00    +0.000 C 
ATOM     16  O   UNL     1      -1.995  12.601  21.192  0.00  0.00    +0.000 OA
ENDBRANCH  11  12
ENDBRANCH   9  11
ENDBRANCH   4   7
BRANCH   1  18
ATOM     17  C   UNL     1       2.406   3.613  18.957  0.00  0.00    +0.000 C 
ATOM     18  N   UNL     1       3.384   4.699  18.883  0.00  0.00    +0.000 N 
BRANCH  18  19
ATOM     19  S   UNL     1       5.032   4.358  19.070  0.00  0.00    +0.000 S 
ATOM     20  O   UNL     1       5.685   5.465  19.736  0.00  0.00    +0.000 OA
ATOM     21  O   UNL     1       5.157   3.009  19.590  0.00  0.00    +0.000 OA
BRANCH  19  22
ATOM     22  C   UNL     1       5.666   4.313  17.396  0.00  0.00    +0.000 A 
ATOM     23  C   UNL     1       4.796   4.067  16.326  0.00  0.00    +0.000 A 
ATOM     24  C   UNL     1       5.250   4.216  15.011  0.00  0.00    +0.000 A 
ATOM     25  C   UNL     1       6.563   4.621  14.764  0.00  0.00    +0.000 A 
ATOM     26  C   UNL     1       7.430   4.871  15.830  0.00  0.00    +0.000 A 
ATOM     27  C   UNL     1       6.983   4.723  17.146  0.00  0.00    +0.000 A 
ENDBRANCH  19  22
ENDBRANCH  18  19
ENDBRANCH   1  18
TORSDOF 6
ENDMDL
MODEL 3
REMARK VINA RESULT:      -7.7      3.391      8.977
REMARK  Name = 
REMARK  7 active torsions:
REMARK  status: ('A' for Active; 'I' for Inactive)
REMARK    1  A    between atoms: C_1  and  N_2
REMARK    2  A    between atoms: N_2  and  C_3
REMARK    3  A    between atoms: N_2  and  S_18
REMARK    4  A    between atoms: C_6  and  C_7
REMARK    5  A    between atoms: N_9  and  C_10
REMARK    6  A    between atoms: C_10  and  C_11
REMARK    7  A    between atoms: S_18  and  C_21
REMARK                            x       y       z     vdW  Elec       q    Type
REMARK                         _______ _______ _______ _____ _____    ______ ____
ROOT
ATOM      1  C   UNL     1       1.314   9.991  18.972  0.00  0.00    +0.000 A 
ATOM      2  C   UNL     1       1.925   9.545  17.803  0.00  0.00    +0.000 A 
ATOM      3  C   UNL     1       2.441   8.246  17.742  0.00  0.00    +0.000 A 
ATOM      4  C   UNL     1       2.352   7.387  18.849  0.00  0.00    +0.000 A 
ATOM      5  C   UNL     1       1.805   7.866  20.045  0.00  0.00    +0.000 A 
ATOM      6  C   UNL     1       1.287   9.168  20.103  0.00  0.00    +0.000 A 
ENDROOT
BRANCH   4   7
ATOM      7  C   UNL     1       2.840   5.986  18.679  0.00  0.00    +0.000 C 
ATOM      8  O   UNL     1       4.016   5.721  18.913  0.00  0.00    +0.000 OA
ATOM      9  N   UNL     1       1.946   5.057  18.197  0.00  0.00    +0.000 N 
ATOM     10  H   UNL     1       0.971   5.283  18.056  0.00  0.00    +0.000 HD
BRANCH   9  11
ATOM     11  C   UNL     1       2.328   3.670  17.957  0.00  0.00    +0.000 C 
BRANCH  11  12
ATOM     12  C   UNL     1       2.064   2.770  19.169  0.00  0.00    +0.000 C 
ATOM     13  C   UNL     1       0.941   3.246  20.079  0.00  0.00    +0.000 C 
ATOM     14  C   UNL     1       1.354   2.686  21.418  0.00  0.00    +0.000 C 
ATOM     15  C   UNL     1       2.862   2.787  21.365  0.00  0.00    +0.000 C 
ATOM     16  O   UNL     1       3.250   2.683  19.989  0.00  0.00    +0.000 OA
ENDBRANCH  11  12
ENDBRANCH   9  11
ENDBRANCH   4   7
BRANCH   1  18
ATOM     17  C   UNL     1       1.479  12.468  19.314  0.00  0.00    +0.000 C 
ATOM     18  N   UNL     1       0.693  11.272  19.005  0.00  0.00    +0.000 N 
BRANCH  18  19
ATOM     19  S   UNL     1      -0.997  11.368  18.961  0.00  0.00    +0.000 S 
ATOM     20  O   UNL     1      -1.402  12.436  18.073  0.00  0.00    +0.000 OA
ATOM     21  O   UNL     1      -1.519  10.025  18.783  0.00  0.00    +0.000 OA
BRANCH  19  22
ATOM     22  C   UNL     1      -1.454  11.869  20.619  0.00  0.00    +0.000 A 
ATOM     23  C   UNL     1      -2.396  12.889  20.806  0.00  0.00    +0.000 A 
ATOM     24  C   UNL     1      -2.891  13.152  22.088  0.00  0.00    +0.000 A 
ATOM     25  C   UNL     1      -2.458  12.394  23.177  0.00  0.00    +0.000 A 
ATOM     26  C   UNL     1      -1.523  11.374  22.990  0.00  0.00    +0.000 A 
ATOM     27  C   UNL     1      -1.022  11.106  21.713  0.00  0.00    +0.000 A 
ENDBRANCH  19  22
ENDBRANCH  18  19
ENDBRANCH   1  18
TORSDOF 6
ENDMDL
MODEL 4
REMARK VINA RESULT:      -7.7      1.848      3.707
REMARK  Name = 
REMARK  7 active torsions:
REMARK  status: ('A' for Active; 'I' for Inactive)
REMARK    1  A    between atoms: C_1  and  N_2
REMARK    2  A    between atoms: N_2  and  C_3
REMARK    3  A    between atoms: N_2  and  S_18
REMARK    4  A    between atoms: C_6  and  C_7
REMARK    5  A    between atoms: N_9  and  C_10
REMARK    6  A    between atoms: C_10  and  C_11
REMARK    7  A    between atoms: S_18  and  C_21
REMARK                            x       y       z     vdW  Elec       q    Type
REMARK                         _______ _______ _______ _____ _____    ______ ____
ROOT
ATOM      1  C   UNL     1       3.340   6.495  18.535  0.00  0.00    +0.000 A 
ATOM      2  C   UNL     1       3.155   7.445  17.534  0.00  0.00    +0.000 A 
ATOM      3  C   UNL     1       2.324   8.547  17.769  0.00  0.00    +0.000 A 
ATOM      4  C   UNL     1       1.673   8.703  19.003  0.00  0.00    +0.000 A 
ATOM      5  C   UNL     1       1.803   7.707  19.977  0.00  0.00    +0.000 A 
ATOM      6  C   UNL     1       2.637   6.604  19.740  0.00  0.00    +0.000 A 
ENDROOT
BRANCH   4   7
ATOM      7  C   UNL     1       0.880   9.951  19.213  0.00  0.00    +0.000 C 
ATOM      8  O   UNL     1       1.008  10.580  20.260  0.00  0.00    +0.000 OA
ATOM      9  N   UNL     1      -0.021  10.305  18.235  0.00  0.00    +0.000 N 
ATOM     10  H   UNL     1      -0.078   9.800  17.360  0.00  0.00    +0.000 HD
BRANCH   9  11
ATOM     11  C   UNL     1      -0.873  11.481  18.358  0.00  0.00    +0.000 C 
BRANCH  11  12
ATOM     12  C   UNL     1      -2.240  11.288  17.694  0.00  0.00    +0.000 C 
ATOM     13  C   UNL     1      -2.739   9.850  17.677  0.00  0.00    +0.000 C 
ATOM     14  C   UNL     1      -3.615   9.829  16.448  0.00  0.00    +0.000 C 
ATOM     15  C   UNL     1      -2.888  10.766  15.510  0.00  0.00    +0.000 C 
ATOM     16  O   UNL     1      -2.189  11.722  16.318  0.00  0.00    +0.000 OA
ENDBRANCH  11  12
ENDBRANCH   9  11
ENDBRANCH   4   7
BRANCH   1  18
ATOM     17  C   UNL     1       5.704   5.689  18.348  0.00  0.00    +0.000 C 
ATOM     18  N   UNL     1       4.265   5.430  18.341  0.00  0.00    +0.000 N 
BRANCH  18  19
ATOM     19  S   UNL     1       3.686   3.923  17.827  0.00  0.00    +0.000 S 
ATOM     20  O   UNL     1       2.733   4.109  16.754  0.00  0.00    +0.000 OA
ATOM     21  O   UNL     1       4.824   3.038  17.656  0.00  0.00    +0.000 OA
BRANCH  19  22
ATOM     22  C   UNL     1       2.769   3.300  19.234  0.00  0.00    +0.000 A 
ATOM     23  C   UNL     1       3.448   2.932  20.402  0.00  0.00    +0.000 A 
ATOM     24  C   UNL     1       2.725   2.625  21.560  0.00  0.00    +0.000 A 
ATOM     25  C   UNL     1       1.331   2.696  21.555  0.00  0.00    +0.000 A 
ATOM     26  C   UNL     1       0.654   3.067  20.392  0.00  0.00    +0.000 A 
ATOM     27  C   UNL     1       1.370   3.374  19.231  0.00  0.00    +0.000 A 
ENDBRANCH  19  22
ENDBRANCH  18  19
ENDBRANCH   1  18
TORSDOF 6
ENDMDL
MODEL 5
REMARK VINA RESULT:      -7.6      3.960      8.115
REMARK  Name = 
REMARK  7 active torsions:
REMARK  status: ('A' for Active; 'I' for Inactive)
REMARK    1  A    between atoms: C_1  and  N_2
REMARK    2  A    between atoms: N_2  and  C_3
REMARK    3  A    between atoms: N_2  and  S_18
REMARK    4  A    between atoms: C_6  and  C_7
REMARK    5  A    between atoms: N_9  and  C_10
REMARK    6  A    between atoms: C_10  and  C_11
REMARK    7  A    between atoms: S_18  and  C_21
REMARK                            x       y       z     vdW  Elec       q    Type
REMARK                         _______ _______ _______ _____ _____    ______ ____
ROOT
ATOM      1  C   UNL     1       4.376   3.824  18.828  0.00  0.00    +0.000 A 
ATOM      2  C   UNL     1       3.988   3.460  17.542  0.00  0.00    +0.000 A 
ATOM      3  C   UNL     1       4.778   3.832  16.448  0.00  0.00    +0.000 A 
ATOM      4  C   UNL     1       5.956   4.573  16.634  0.00  0.00    +0.000 A 
ATOM      5  C   UNL     1       6.301   5.000  17.921  0.00  0.00    +0.000 A 
ATOM      6  C   UNL     1       5.508   4.624  19.016  0.00  0.00    +0.000 A 
ENDROOT
BRANCH   4   7
ATOM      7  C   UNL     1       6.795   4.852  15.430  0.00  0.00    +0.000 C 
ATOM      8  O   UNL     1       7.611   5.769  15.460  0.00  0.00    +0.000 OA
ATOM      9  N   UNL     1       6.563   4.095  14.304  0.00  0.00    +0.000 N 
ATOM     10  H   UNL     1       5.922   3.314  14.314  0.00  0.00    +0.000 HD
BRANCH   9  11
ATOM     11  C   UNL     1       7.299   4.311  13.064  0.00  0.00    +0.000 C 
BRANCH  11  12
ATOM     12  C   UNL     1       6.594   3.697  11.849  0.00  0.00    +0.000 C 
ATOM     13  C   UNL     1       5.090   3.528  12.008  0.00  0.00    +0.000 C 
ATOM     14  C   UNL     1       4.803   2.351  11.107  0.00  0.00    +0.000 C 
ATOM     15  C   UNL     1       6.042   1.501  11.273  0.00  0.00    +0.000 C 
ATOM     16  O   UNL     1       7.130   2.384  11.577  0.00  0.00    +0.000 OA
ENDBRANCH  11  12
ENDBRANCH   9  11
ENDBRANCH   4   7
BRANCH   1  18
ATOM     17  C   UNL     1       4.131   2.239  20.753  0.00  0.00    +0.000 C 
ATOM     18  N   UNL     1       3.635   3.358  19.952  0.00  0.00    +0.000 N 
BRANCH  18  19
ATOM     19  S   UNL     1       2.055   3.922  20.184  0.00  0.00    +0.000 S 
ATOM     20  O   UNL     1       1.174   3.315  19.210  0.00  0.00    +0.000 OA
ATOM     21  O   UNL     1       1.752   3.841  21.601  0.00  0.00    +0.000 OA
BRANCH  19  22
ATOM     22  C   UNL     1       2.146   5.666  19.787  0.00  0.00    +0.000 A 
ATOM     23  C   UNL     1       2.333   6.071  18.459  0.00  0.00    +0.000 A 
ATOM     24  C   UNL     1       2.217   7.424  18.122  0.00  0.00    +0.000 A 
ATOM     25  C   UNL     1       1.904   8.367  19.102  0.00  0.00    +0.000 A 
ATOM     26  C   UNL     1       1.713   7.963  20.425  0.00  0.00    +0.000 A 
ATOM     27  C   UNL     1       1.829   6.614  20.769  0.00  0.00    +0.000 A 
ENDBRANCH  19  22
ENDBRANCH  18  19
ENDBRANCH   1  18
TORSDOF 6
ENDMDL
MODEL 6
REMARK VINA RESULT:      -7.5      1.034      1.609
REMARK  Name = 
REMARK  7 active torsions:
REMARK  status: ('A' for Active; 'I' for Inactive)
REMARK    1  A    between atoms: C_1  and  N_2
REMARK    2  A    between atoms: N_2  and  C_3
REMARK    3  A    between atoms: N_2  and  S_18
REMARK    4  A    between atoms: C_6  and  C_7
REMARK    5  A    between atoms: N_9  and  C_10
REMARK    6  A    between atoms: C_10  and  C_11
REMARK    7  A    between atoms: S_18  and  C_21
REMARK                            x       y       z     vdW  Elec       q    Type
REMARK                         _______ _______ _______ _____ _____    ______ ____
ROOT
ATOM      1  C   UNL     1       2.827   6.104  18.976  0.00  0.00    +0.000 A 
ATOM      2  C   UNL     1       2.262   6.509  20.183  0.00  0.00    +0.000 A 
ATOM      3  C   UNL     1       1.669   7.773  20.281  0.00  0.00    +0.000 A 
ATOM      4  C   UNL     1       1.641   8.639  19.177  0.00  0.00    +0.000 A 
ATOM      5  C   UNL     1       2.276   8.257  17.989  0.00  0.00    +0.000 A 
ATOM      6  C   UNL     1       2.868   6.988  17.893  0.00  0.00    +0.000 A 
ENDROOT
BRANCH   4   7
ATOM      7  C   UNL     1       0.909   9.932  19.329  0.00  0.00    +0.000 C 
ATOM      8  O   UNL     1       1.023  10.573  20.370  0.00  0.00    +0.000 OA
ATOM      9  N   UNL     1       0.075  10.315  18.303  0.00  0.00    +0.000 N 
ATOM     10  H   UNL     1       0.032   9.798  17.435  0.00  0.00    +0.000 HD
BRANCH   9  11
ATOM     11  C   UNL     1      -0.715  11.538  18.366  0.00  0.00    +0.000 C 
BRANCH  11  12
ATOM     12  C   UNL     1      -2.109  11.306  18.961  0.00  0.00    +0.000 C 
ATOM     13  C   UNL     1      -3.257  11.515  17.985  0.00  0.00    +0.000 C 
ATOM     14  C   UNL     1      -4.384  11.929  18.899  0.00  0.00    +0.000 C 
ATOM     15  C   UNL     1      -3.666  12.731  19.962  0.00  0.00    +0.000 C 
ATOM     16  O   UNL     1      -2.334  12.212  20.062  0.00  0.00    +0.000 OA
ENDBRANCH  11  12
ENDBRANCH   9  11
ENDBRANCH   4   7
BRANCH   1  18
ATOM     17  C   UNL     1       2.426   3.636  18.820  0.00  0.00    +0.000 C 
ATOM     18  N   UNL     1       3.336   4.781  18.839  0.00  0.00    +0.000 N 
BRANCH  18  19
ATOM     19  S   UNL     1       5.005   4.525  18.980  0.00  0.00    +0.000 S 
ATOM     20  O   UNL     1       5.601   5.607  19.733  0.00  0.00    +0.000 OA
ATOM     21  O   UNL     1       5.216   3.145  19.379  0.00  0.00    +0.000 OA
BRANCH  19  22
ATOM     22  C   UNL     1       5.615   4.662  17.301  0.00  0.00    +0.000 A 
ATOM     23  C   UNL     1       6.846   5.284  17.054  0.00  0.00    +0.000 A 
ATOM     24  C   UNL     1       7.409   5.227  15.775  0.00  0.00    +0.000 A 
ATOM     25  C   UNL     1       6.755   4.543  14.750  0.00  0.00    +0.000 A 
ATOM     26  C   UNL     1       5.530   3.918  14.997  0.00  0.00    +0.000 A 
ATOM     27  C   UNL     1       4.960   3.973  16.272  0.00  0.00    +0.000 A 
ENDBRANCH  19  22
ENDBRANCH  18  19
ENDBRANCH   1  18
TORSDOF 6
ENDMDL
MODEL 7
REMARK VINA RESULT:      -7.5      1.837      3.076
REMARK  Name = 
REMARK  7 active torsions:
REMARK  status: ('A' for Active; 'I' for Inactive)
REMARK    1  A    between atoms: C_1  and  N_2
REMARK    2  A    between atoms: N_2  and  C_3
REMARK    3  A    between atoms: N_2  and  S_18
REMARK    4  A    between atoms: C_6  and  C_7
REMARK    5  A    between atoms: N_9  and  C_10
REMARK    6  A    between atoms: C_10  and  C_11
REMARK    7  A    between atoms: S_18  and  C_21
REMARK                            x       y       z     vdW  Elec       q    Type
REMARK                         _______ _______ _______ _____ _____    ______ ____
ROOT
ATOM      1  C   UNL     1       2.765   6.137  18.985  0.00  0.00    +0.000 A 
ATOM      2  C   UNL     1       2.204   6.477  20.213  0.00  0.00    +0.000 A 
ATOM      3  C   UNL     1       1.604   7.731  20.378  0.00  0.00    +0.000 A 
ATOM      4  C   UNL     1       1.565   8.652  19.319  0.00  0.00    +0.000 A 
ATOM      5  C   UNL     1       2.196   8.334  18.111  0.00  0.00    +0.000 A 
ATOM      6  C   UNL     1       2.795   7.076  17.948  0.00  0.00    +0.000 A 
ENDROOT
BRANCH   4   7
ATOM      7  C   UNL     1       0.826   9.930  19.541  0.00  0.00    +0.000 C 
ATOM      8  O   UNL     1       0.160  10.076  20.562  0.00  0.00    +0.000 OA
ATOM      9  N   UNL     1       0.877  10.875  18.541  0.00  0.00    +0.000 N 
ATOM     10  H   UNL     1       1.469  10.756  17.730  0.00  0.00    +0.000 HD
BRANCH   9  11
ATOM     11  C   UNL     1       0.161  12.141  18.638  0.00  0.00    +0.000 C 
BRANCH  11  12
ATOM     12  C   UNL     1       1.105  13.343  18.745  0.00  0.00    +0.000 C 
ATOM     13  C   UNL     1       2.458  13.148  18.075  0.00  0.00    +0.000 C 
ATOM     14  C   UNL     1       3.352  14.052  18.888  0.00  0.00    +0.000 C 
ATOM     15  C   UNL     1       2.770  13.924  20.278  0.00  0.00    +0.000 C 
ATOM     16  O   UNL     1       1.372  13.641  20.133  0.00  0.00    +0.000 OA
ENDBRANCH  11  12
ENDBRANCH   9  11
ENDBRANCH   4   7
BRANCH   1  18
ATOM     17  C   UNL     1       2.374   3.686  18.641  0.00  0.00    +0.000 C 
ATOM     18  N   UNL     1       3.281   4.826  18.778  0.00  0.00    +0.000 N 
BRANCH  18  19
ATOM     19  S   UNL     1       4.942   4.558  18.971  0.00  0.00    +0.000 S 
ATOM     20  O   UNL     1       5.527   5.647  19.722  0.00  0.00    +0.000 OA
ATOM     21  O   UNL     1       5.129   3.184  19.399  0.00  0.00    +0.000 OA
BRANCH  19  22
ATOM     22  C   UNL     1       5.601   4.660  17.308  0.00  0.00    +0.000 A 
ATOM     23  C   UNL     1       6.979   4.814  17.111  0.00  0.00    +0.000 A 
ATOM     24  C   UNL     1       7.514   4.707  15.823  0.00  0.00    +0.000 A 
ATOM     25  C   UNL     1       6.680   4.435  14.737  0.00  0.00    +0.000 A 
ATOM     26  C   UNL     1       5.307   4.277  14.934  0.00  0.00    +0.000 A 
ATOM     27  C   UNL     1       4.765   4.384  16.218  0.00  0.00    +0.000 A 
ENDBRANCH  19  22
ENDBRANCH  18  19
ENDBRANCH   1  18
TORSDOF 6
ENDMDL
MODEL 8
REMARK VINA RESULT:      -7.5      1.014      1.507
REMARK  Name = 
REMARK  7 active torsions:
REMARK  status: ('A' for Active; 'I' for Inactive)
REMARK    1  A    between atoms: C_1  and  N_2
REMARK    2  A    between atoms: N_2  and  C_3
REMARK    3  A    between atoms: N_2  and  S_18
REMARK    4  A    between atoms: C_6  and  C_7
REMARK    5  A    between atoms: N_9  and  C_10
REMARK    6  A    between atoms: C_10  and  C_11
REMARK    7  A    between atoms: S_18  and  C_21
REMARK                            x       y       z     vdW  Elec       q    Type
REMARK                         _______ _______ _______ _____ _____    ______ ____
ROOT
ATOM      1  C   UNL     1       2.666   5.726  19.096  0.00  0.00    +0.000 A 
ATOM      2  C   UNL     1       2.690   6.723  18.124  0.00  0.00    +0.000 A 
ATOM      3  C   UNL     1       2.171   7.989  18.416  0.00  0.00    +0.000 A 
ATOM      4  C   UNL     1       1.623   8.265  19.678  0.00  0.00    +0.000 A 
ATOM      5  C   UNL     1       1.533   7.238  20.625  0.00  0.00    +0.000 A 
ATOM      6  C   UNL     1       2.055   5.970  20.330  0.00  0.00    +0.000 A 
ENDROOT
BRANCH   4   7
ATOM      7  C   UNL     1       1.175   9.664  19.948  0.00  0.00    +0.000 C 
ATOM      8  O   UNL     1       0.770   9.965  21.067  0.00  0.00    +0.000 OA
ATOM      9  N   UNL     1       1.176  10.546  18.892  0.00  0.00    +0.000 N 
ATOM     10  H   UNL     1       1.558  10.293  17.991  0.00  0.00    +0.000 HD
BRANCH   9  11
ATOM     11  C   UNL     1       0.722  11.924  19.036  0.00  0.00    +0.000 C 
BRANCH  11  12
ATOM     12  C   UNL     1      -0.706  12.129  18.518  0.00  0.00    +0.000 C 
ATOM     13  C   UNL     1      -1.744  12.381  19.602  0.00  0.00    +0.000 C 
ATOM     14  C   UNL     1      -3.004  11.845  18.969  0.00  0.00    +0.000 C 
ATOM     15  C   UNL     1      -2.494  10.668  18.169  0.00  0.00    +0.000 C 
ATOM     16  O   UNL     1      -1.142  10.958  17.794  0.00  0.00    +0.000 OA
ENDBRANCH  11  12
ENDBRANCH   9  11
ENDBRANCH   4   7
BRANCH   1  18
ATOM     17  C   UNL     1       2.476   3.272  18.631  0.00  0.00    +0.000 C 
ATOM     18  N   UNL     1       3.288   4.470  18.841  0.00  0.00    +0.000 N 
BRANCH  18  19
ATOM     19  S   UNL     1       4.961   4.323  19.059  0.00  0.00    +0.000 S 
ATOM     20  O   UNL     1       5.472   5.506  19.717  0.00  0.00    +0.000 OA
ATOM     21  O   UNL     1       5.229   3.004  19.603  0.00  0.00    +0.000 OA
BRANCH  19  22
ATOM     22  C   UNL     1       5.624   4.326  17.395  0.00  0.00    +0.000 A 
ATOM     23  C   UNL     1       4.761   4.198  16.299  0.00  0.00    +0.000 A 
ATOM     24  C   UNL     1       5.251   4.387  15.002  0.00  0.00    +0.000 A 
ATOM     25  C   UNL     1       6.593   4.714  14.800  0.00  0.00    +0.000 A 
ATOM     26  C   UNL     1       7.452   4.847  15.893  0.00  0.00    +0.000 A 
ATOM     27  C   UNL     1       6.970   4.658  17.191  0.00  0.00    +0.000 A 
ENDBRANCH  19  22
ENDBRANCH  18  19
ENDBRANCH   1  18
TORSDOF 6
ENDMDL
MODEL 9
REMARK VINA RESULT:      -7.4      1.940      2.717
REMARK  Name = 
REMARK  7 active torsions:
REMARK  status: ('A' for Active; 'I' for Inactive)
REMARK    1  A    between atoms: C_1  and  N_2
REMARK    2  A    between atoms: N_2  and  C_3
REMARK    3  A    between atoms: N_2  and  S_18
REMARK    4  A    between atoms: C_6  and  C_7
REMARK    5  A    between atoms: N_9  and  C_10
REMARK    6  A    between atoms: C_10  and  C_11
REMARK    7  A    between atoms: S_18  and  C_21
REMARK                            x       y       z     vdW  Elec       q    Type
REMARK                         _______ _______ _______ _____ _____    ______ ____
ROOT
ATOM      1  C   UNL     1       2.822   6.049  19.116  0.00  0.00    +0.000 A 
ATOM      2  C   UNL     1       2.200   6.369  20.320  0.00  0.00    +0.000 A 
ATOM      3  C   UNL     1       1.596   7.621  20.478  0.00  0.00    +0.000 A 
ATOM      4  C   UNL     1       1.613   8.562  19.436  0.00  0.00    +0.000 A 
ATOM      5  C   UNL     1       2.304   8.264  18.256  0.00  0.00    +0.000 A 
ATOM      6  C   UNL     1       2.908   7.007  18.100  0.00  0.00    +0.000 A 
ENDROOT
BRANCH   4   7
ATOM      7  C   UNL     1       0.867   9.839  19.643  0.00  0.00    +0.000 C 
ATOM      8  O   UNL     1       0.047  10.204  18.805  0.00  0.00    +0.000 OA
ATOM      9  N   UNL     1       1.189  10.590  20.750  0.00  0.00    +0.000 N 
ATOM     10  H   UNL     1       1.832  10.250  21.452  0.00  0.00    +0.000 HD
BRANCH   9  11
ATOM     11  C   UNL     1       0.550  11.871  21.026  0.00  0.00    +0.000 C 
BRANCH  11  12
ATOM     12  C   UNL     1      -0.774  11.715  21.783  0.00  0.00    +0.000 C 
ATOM     13  C   UNL     1      -1.978  12.333  21.087  0.00  0.00    +0.000 C 
ATOM     14  C   UNL     1      -2.879  12.674  22.249  0.00  0.00    +0.000 C 
ATOM     15  C   UNL     1      -1.892  13.067  23.325  0.00  0.00    +0.000 C 
ATOM     16  O   UNL     1      -0.680  12.342  23.080  0.00  0.00    +0.000 OA
ENDBRANCH  11  12
ENDBRANCH   9  11
ENDBRANCH   4   7
BRANCH   1  18
ATOM     17  C   UNL     1       2.446   3.589  18.833  0.00  0.00    +0.000 C 
ATOM     18  N   UNL     1       3.344   4.740  18.912  0.00  0.00    +0.000 N 
BRANCH  18  19
ATOM     19  S   UNL     1       5.015   4.494  19.041  0.00  0.00    +0.000 S 
ATOM     20  O   UNL     1       5.615   5.595  19.764  0.00  0.00    +0.000 OA
ATOM     21  O   UNL     1       5.237   3.125  19.468  0.00  0.00    +0.000 OA
BRANCH  19  22
ATOM     22  C   UNL     1       5.607   4.597  17.353  0.00  0.00    +0.000 A 
ATOM     23  C   UNL     1       6.968   4.820  17.103  0.00  0.00    +0.000 A 
ATOM     24  C   UNL     1       7.461   4.715  15.798  0.00  0.00    +0.000 A 
ATOM     25  C   UNL     1       6.604   4.376  14.749  0.00  0.00    +0.000 A 
ATOM     26  C   UNL     1       5.249   4.149  14.999  0.00  0.00    +0.000 A 
ATOM     27  C   UNL     1       4.749   4.254  16.300  0.00  0.00    +0.000 A 
ENDBRANCH  19  22
ENDBRANCH  18  19
ENDBRANCH   1  18
TORSDOF 6
ENDMDL
