MODEL 1
REMARK VINA RESULT:      -5.8      0.000      0.000
REMARK  Name = 
REMARK  13 active torsions:
REMARK  status: ('A' for Active; 'I' for Inactive)
REMARK    1  A    between atoms: C_1  and  C_2
REMARK    2  A    between atoms: C_2  and  C_3
REMARK    3  A    between atoms: C_3  and  C_4
REMARK    4  A    between atoms: C_4  and  N_5
REMARK    5  A    between atoms: N_5  and  C_6
REMARK    6  A    between atoms: C_6  and  C_7
REMARK    7  A    between atoms: C_7  and  C_8
REMARK    8  A    between atoms: C_8  and  C_9
REMARK    9  A    between atoms: C_12  and  C_13
REMARK   10  A    between atoms: N_16  and  C_17
REMARK   11  A    between atoms: C_18  and  C_19
REMARK   12  A    between atoms: C_21  and  C_22
REMARK   13  A    between atoms: C_24  and  C_25
REMARK                            x       y       z     vdW  Elec       q    Type
REMARK                         _______ _______ _______ _____ _____    ______ ____
ROOT
ATOM      1  N   UNL     1       2.743   6.637  18.765  0.00  0.00    +0.000 N 
ATOM      2  C   UNL     1       2.019   7.713  19.290  0.00  0.00    +0.000 A 
ATOM      3  N   UNL     1       1.841   7.786  20.615  0.00  0.00    +0.000 NA
ATOM      4  C   UNL     1       1.150   8.818  21.058  0.00  0.00    +0.000 A 
ATOM      5  C   UNL     1       0.984   8.971  22.530  0.00  0.00    +0.000 C 
ATOM      6  N   UNL     1       0.669   9.782  20.287  0.00  0.00    +0.000 NA
ATOM      7  C   UNL     1       0.967   9.692  18.994  0.00  0.00    +0.000 A 
ATOM      8  N   UNL     1       0.681  10.766  18.150  0.00  0.00    +0.000 N 
ATOM      9  N   UNL     1       1.582   8.651  18.451  0.00  0.00    +0.000 NA
ATOM     10  H   UNL     1       1.040  10.594  17.222  0.00  0.00    +0.000 HD
ENDROOT
BRANCH   8  11
ATOM     11  C   UNL     1       0.510  12.125  18.487  0.00  0.00    +0.000 A 
ATOM     12  C   UNL     1      -0.728  12.680  18.900  0.00  0.00    +0.000 A 
ATOM     13  C   UNL     1      -1.979  11.880  19.158  0.00  0.00    +0.000 C 
ATOM     14  C   UNL     1      -0.839  14.072  19.080  0.00  0.00    +0.000 A 
ATOM     15  C   UNL     1       0.258  14.917  18.926  0.00  0.00    +0.000 A 
ATOM     16  C   UNL     1       0.110  16.402  19.069  0.00  0.00    +0.000 C 
ATOM     17  C   UNL     1       1.500  14.357  18.628  0.00  0.00    +0.000 A 
ATOM     18  C   UNL     1       1.640  12.974  18.417  0.00  0.00    +0.000 A 
ATOM     19  C   UNL     1       3.000  12.431  18.063  0.00  0.00    +0.000 C 
ENDBRANCH   8  11
BRANCH   1  20
ATOM     20  C   UNL     1       3.533   5.910  19.756  0.00  0.00    +0.000 C 
BRANCH  20  21
ATOM     21  C   UNL     1       4.944   5.512  19.322  0.00  0.00    +0.000 C 
BRANCH  21  23
ATOM     22  C   UNL     1       6.179   4.755  17.286  0.00  0.00    +0.000 C 
ATOM     23  C   UNL     1       5.374   5.902  17.899  0.00  0.00    +0.000 C 
ENDBRANCH  21  23
ENDBRANCH  20  21
ENDBRANCH   1  20
BRANCH   1  24
ATOM     24  C   UNL     1       2.033   5.965  17.669  0.00  0.00    +0.000 C 
BRANCH  24  25
ATOM     25  C   UNL     1       1.743   4.466  17.835  0.00  0.00    +0.000 C 
BRANCH  25  26
ATOM     26  C   UNL     1       2.651   3.452  17.127  0.00  0.00    +0.000 C 
ATOM     27  C   UNL     1       2.935   2.282  18.070  0.00  0.00    +0.000 C 
ENDBRANCH  25  26
ENDBRANCH  24  25
ENDBRANCH   1  24
TORSDOF 7
ENDMDL
MODEL 2
REMARK VINA RESULT:      -5.8      0.663      1.822
REMARK  Name = 
REMARK  13 active torsions:
REMARK  status: ('A' for Active; 'I' for Inactive)
REMARK    1  A    between atoms: C_1  and  C_2
REMARK    2  A    between atoms: C_2  and  C_3
REMARK    3  A    between atoms: C_3  and  C_4
REMARK    4  A    between atoms: C_4  and  N_5
REMARK    5  A    between atoms: N_5  and  C_6
REMARK    6  A    between atoms: C_6  and  C_7
REMARK    7  A    between atoms: C_7  and  C_8
REMARK    8  A    between atoms: C_8  and  C_9
REMARK    9  A    between atoms: C_12  and  C_13
REMARK   10  A    between atoms: N_16  and  C_17
REMARK   11  A    between atoms: C_18  and  C_19
REMARK   12  A    between atoms: C_21  and  C_22
REMARK   13  A    between atoms: C_24  and  C_25
REMARK                            x       y       z     vdW  Elec       q    Type
REMARK                         _______ _______ _______ _____ _____    ______ ____
ROOT
ATOM      1  N   UNL     1       3.014   6.532  18.717  0.00  0.00    +0.000 N 
ATOM      2  C   UNL     1       2.220   7.569  19.218  0.00  0.00    +0.000 A 
ATOM      3  N   UNL     1       1.992   7.628  20.536  0.00  0.00    +0.000 NA
ATOM      4  C   UNL     1       1.236   8.624  20.957  0.00  0.00    +0.000 A 
ATOM      5  C   UNL     1       1.011   8.762  22.422  0.00  0.00    +0.000 C 
ATOM      6  N   UNL     1       0.735   9.566  20.171  0.00  0.00    +0.000 NA
ATOM      7  C   UNL     1       1.082   9.495  18.890  0.00  0.00    +0.000 A 
ATOM      8  N   UNL     1       0.773  10.557  18.038  0.00  0.00    +0.000 N 
ATOM      9  N   UNL     1       1.767   8.488  18.366  0.00  0.00    +0.000 NA
ATOM     10  H   UNL     1       1.174  10.406  17.122  0.00  0.00    +0.000 HD
ENDROOT
BRANCH   8  11
ATOM     11  C   UNL     1       0.524  11.905  18.371  0.00  0.00    +0.000 A 
ATOM     12  C   UNL     1       1.537  12.893  18.448  0.00  0.00    +0.000 A 
ATOM     13  C   UNL     1       2.978  12.672  18.064  0.00  0.00    +0.000 C 
ATOM     14  C   UNL     1       1.219  14.179  18.925  0.00  0.00    +0.000 A 
ATOM     15  C   UNL     1      -0.087  14.528  19.263  0.00  0.00    +0.000 A 
ATOM     16  C   UNL     1      -0.401  15.884  19.820  0.00  0.00    +0.000 C 
ATOM     17  C   UNL     1      -1.102  13.588  19.081  0.00  0.00    +0.000 A 
ATOM     18  C   UNL     1      -0.813  12.288  18.631  0.00  0.00    +0.000 A 
ATOM     19  C   UNL     1      -1.946  11.305  18.486  0.00  0.00    +0.000 C 
ENDBRANCH   8  11
BRANCH   1  20
ATOM     20  C   UNL     1       3.804   5.841  19.734  0.00  0.00    +0.000 C 
BRANCH  20  21
ATOM     21  C   UNL     1       4.965   4.993  19.214  0.00  0.00    +0.000 C 
BRANCH  21  23
ATOM     22  C   UNL     1       7.347   5.746  19.173  0.00  0.00    +0.000 C 
ATOM     23  C   UNL     1       6.038   5.711  18.382  0.00  0.00    +0.000 C 
ENDBRANCH  21  23
ENDBRANCH  20  21
ENDBRANCH   1  20
BRANCH   1  24
ATOM     24  C   UNL     1       2.378   5.831  17.595  0.00  0.00    +0.000 C 
BRANCH  24  25
ATOM     25  C   UNL     1       1.685   4.495  17.905  0.00  0.00    +0.000 C 
BRANCH  25  26
ATOM     26  C   UNL     1       2.338   3.193  17.426  0.00  0.00    +0.000 C 
ATOM     27  C   UNL     1       2.255   2.145  18.538  0.00  0.00    +0.000 C 
ENDBRANCH  25  26
ENDBRANCH  24  25
ENDBRANCH   1  24
TORSDOF 7
ENDMDL
MODEL 3
REMARK VINA RESULT:      -5.7      0.780      1.006
REMARK  Name = 
REMARK  13 active torsions:
REMARK  status: ('A' for Active; 'I' for Inactive)
REMARK    1  A    between atoms: C_1  and  C_2
REMARK    2  A    between atoms: C_2  and  C_3
REMARK    3  A    between atoms: C_3  and  C_4
REMARK    4  A    between atoms: C_4  and  N_5
REMARK    5  A    between atoms: N_5  and  C_6
REMARK    6  A    between atoms: C_6  and  C_7
REMARK    7  A    between atoms: C_7  and  C_8
REMARK    8  A    between atoms: C_8  and  C_9
REMARK    9  A    between atoms: C_12  and  C_13
REMARK   10  A    between atoms: N_16  and  C_17
REMARK   11  A    between atoms: C_18  and  C_19
REMARK   12  A    between atoms: C_21  and  C_22
REMARK   13  A    between atoms: C_24  and  C_25
REMARK                            x       y       z     vdW  Elec       q    Type
REMARK                         _______ _______ _______ _____ _____    ______ ____
ROOT
ATOM      1  N   UNL     1       2.794   6.608  18.714  0.00  0.00    +0.000 N 
ATOM      2  C   UNL     1       2.064   7.668  19.263  0.00  0.00    +0.000 A 
ATOM      3  N   UNL     1       1.905   7.723  20.591  0.00  0.00    +0.000 NA
ATOM      4  C   UNL     1       1.208   8.741  21.057  0.00  0.00    +0.000 A 
ATOM      5  C   UNL     1       1.063   8.874  22.534  0.00  0.00    +0.000 C 
ATOM      6  N   UNL     1       0.704   9.708  20.306  0.00  0.00    +0.000 NA
ATOM      7  C   UNL     1       0.983   9.638  19.008  0.00  0.00    +0.000 A 
ATOM      8  N   UNL     1       0.670  10.719  18.181  0.00  0.00    +0.000 N 
ATOM      9  N   UNL     1       1.603   8.611  18.442  0.00  0.00    +0.000 NA
ATOM     10  H   UNL     1       1.018  10.562  17.245  0.00  0.00    +0.000 HD
ENDROOT
BRANCH   8  11
ATOM     11  C   UNL     1       0.487  12.071  18.537  0.00  0.00    +0.000 A 
ATOM     12  C   UNL     1      -0.742  12.597  19.010  0.00  0.00    +0.000 A 
ATOM     13  C   UNL     1      -1.964  11.770  19.315  0.00  0.00    +0.000 C 
ATOM     14  C   UNL     1      -0.873  13.985  19.207  0.00  0.00    +0.000 A 
ATOM     15  C   UNL     1       0.199  14.853  19.012  0.00  0.00    +0.000 A 
ATOM     16  C   UNL     1       0.029  16.334  19.175  0.00  0.00    +0.000 C 
ATOM     17  C   UNL     1       1.438  14.321  18.654  0.00  0.00    +0.000 A 
ATOM     18  C   UNL     1       1.596  12.943  18.425  0.00  0.00    +0.000 A 
ATOM     19  C   UNL     1       2.950  12.431  18.007  0.00  0.00    +0.000 C 
ENDBRANCH   8  11
BRANCH   1  20
ATOM     20  C   UNL     1       3.608   5.880  19.684  0.00  0.00    +0.000 C 
BRANCH  20  21
ATOM     21  C   UNL     1       5.021   5.515  19.228  0.00  0.00    +0.000 C 
BRANCH  21  23
ATOM     22  C   UNL     1       4.608   3.080  19.608  0.00  0.00    +0.000 C 
ATOM     23  C   UNL     1       5.229   4.104  18.656  0.00  0.00    +0.000 C 
ENDBRANCH  21  23
ENDBRANCH  20  21
ENDBRANCH   1  20
BRANCH   1  24
ATOM     24  C   UNL     1       2.076   5.941  17.621  0.00  0.00    +0.000 C 
BRANCH  24  25
ATOM     25  C   UNL     1       1.768   4.446  17.793  0.00  0.00    +0.000 C 
BRANCH  25  26
ATOM     26  C   UNL     1       1.069   3.976  19.074  0.00  0.00    +0.000 C 
ATOM     27  C   UNL     1       0.914   2.455  19.039  0.00  0.00    +0.000 C 
ENDBRANCH  25  26
ENDBRANCH  24  25
ENDBRANCH   1  24
TORSDOF 7
ENDMDL
MODEL 4
REMARK VINA RESULT:      -5.6      4.033      5.914
REMARK  Name = 
REMARK  13 active torsions:
REMARK  status: ('A' for Active; 'I' for Inactive)
REMARK    1  A    between atoms: C_1  and  C_2
REMARK    2  A    between atoms: C_2  and  C_3
REMARK    3  A    between atoms: C_3  and  C_4
REMARK    4  A    between atoms: C_4  and  N_5
REMARK    5  A    between atoms: N_5  and  C_6
REMARK    6  A    between atoms: C_6  and  C_7
REMARK    7  A    between atoms: C_7  and  C_8
REMARK    8  A    between atoms: C_8  and  C_9
REMARK    9  A    between atoms: C_12  and  C_13
REMARK   10  A    between atoms: N_16  and  C_17
REMARK   11  A    between atoms: C_18  and  C_19
REMARK   12  A    between atoms: C_21  and  C_22
REMARK   13  A    between atoms: C_24  and  C_25
REMARK                            x       y       z     vdW  Elec       q    Type
REMARK                         _______ _______ _______ _____ _____    ______ ____
ROOT
ATOM      1  N   UNL     1      -0.859  10.589  18.779  0.00  0.00    +0.000 N 
ATOM      2  C   UNL     1      -1.007  10.893  20.136  0.00  0.00    +0.000 A 
ATOM      3  N   UNL     1      -0.481  10.061  21.045  0.00  0.00    +0.000 NA
ATOM      4  C   UNL     1      -0.651  10.393  22.311  0.00  0.00    +0.000 A 
ATOM      5  C   UNL     1      -0.026   9.529  23.351  0.00  0.00    +0.000 C 
ATOM      6  N   UNL     1      -1.262  11.495  22.720  0.00  0.00    +0.000 NA
ATOM      7  C   UNL     1      -1.674  12.318  21.760  0.00  0.00    +0.000 A 
ATOM      8  N   UNL     1      -2.137  13.590  22.102  0.00  0.00    +0.000 N 
ATOM      9  N   UNL     1      -1.620  12.028  20.467  0.00  0.00    +0.000 NA
ATOM     10  H   UNL     1      -2.329  14.133  21.272  0.00  0.00    +0.000 HD
ENDROOT
BRANCH   8  11
ATOM     11  C   UNL     1      -1.859  14.341  23.263  0.00  0.00    +0.000 A 
ATOM     12  C   UNL     1      -2.674  14.321  24.423  0.00  0.00    +0.000 A 
ATOM     13  C   UNL     1      -3.858  13.409  24.620  0.00  0.00    +0.000 C 
ATOM     14  C   UNL     1      -2.399  15.209  25.480  0.00  0.00    +0.000 A 
ATOM     15  C   UNL     1      -1.301  16.067  25.445  0.00  0.00    +0.000 A 
ATOM     16  C   UNL     1      -1.052  17.043  26.555  0.00  0.00    +0.000 C 
ATOM     17  C   UNL     1      -0.437  16.007  24.352  0.00  0.00    +0.000 A 
ATOM     18  C   UNL     1      -0.697  15.149  23.268  0.00  0.00    +0.000 A 
ATOM     19  C   UNL     1       0.253  15.153  22.099  0.00  0.00    +0.000 C 
ENDBRANCH   8  11
BRANCH   1  20
ATOM     20  C   UNL     1       0.169   9.588  18.501  0.00  0.00    +0.000 C 
BRANCH  20  21
ATOM     21  C   UNL     1       1.547  10.134  18.123  0.00  0.00    +0.000 C 
BRANCH  21  23
ATOM     22  C   UNL     1       2.257   7.744  18.278  0.00  0.00    +0.000 C 
ATOM     23  C   UNL     1       2.610   9.112  17.691  0.00  0.00    +0.000 C 
ENDBRANCH  21  23
ENDBRANCH  20  21
ENDBRANCH   1  20
BRANCH   1  24
ATOM     24  C   UNL     1      -2.132  10.641  18.051  0.00  0.00    +0.000 C 
BRANCH  24  25
ATOM     25  C   UNL     1      -2.134  10.129  16.602  0.00  0.00    +0.000 C 
BRANCH  25  26
ATOM     26  C   UNL     1      -3.090  10.772  15.590  0.00  0.00    +0.000 C 
ATOM     27  C   UNL     1      -3.041   9.987  14.278  0.00  0.00    +0.000 C 
ENDBRANCH  25  26
ENDBRANCH  24  25
ENDBRANCH   1  24
TORSDOF 7
ENDMDL
MODEL 5
REMARK VINA RESULT:      -5.6      2.668      3.995
REMARK  Name = 
REMARK  13 active torsions:
REMARK  status: ('A' for Active; 'I' for Inactive)
REMARK    1  A    between atoms: C_1  and  C_2
REMARK    2  A    between atoms: C_2  and  C_3
REMARK    3  A    between atoms: C_3  and  C_4
REMARK    4  A    between atoms: C_4  and  N_5
REMARK    5  A    between atoms: N_5  and  C_6
REMARK    6  A    between atoms: C_6  and  C_7
REMARK    7  A    between atoms: C_7  and  C_8
REMARK    8  A    between atoms: C_8  and  C_9
REMARK    9  A    between atoms: C_12  and  C_13
REMARK   10  A    between atoms: N_16  and  C_17
REMARK   11  A    between atoms: C_18  and  C_19
REMARK   12  A    between atoms: C_21  and  C_22
REMARK   13  A    between atoms: C_24  and  C_25
REMARK                            x       y       z     vdW  Elec       q    Type
REMARK                         _______ _______ _______ _____ _____    ______ ____
ROOT
ATOM      1  N   UNL     1       4.981   5.967  17.922  0.00  0.00    +0.000 N 
ATOM      2  C   UNL     1       3.808   6.215  18.643  0.00  0.00    +0.000 A 
ATOM      3  N   UNL     1       3.392   5.304  19.532  0.00  0.00    +0.000 NA
ATOM      4  C   UNL     1       2.280   5.584  20.184  0.00  0.00    +0.000 A 
ATOM      5  C   UNL     1       1.819   4.627  21.227  0.00  0.00    +0.000 C 
ATOM      6  N   UNL     1       1.592   6.707  20.039  0.00  0.00    +0.000 NA
ATOM      7  C   UNL     1       2.117   7.605  19.210  0.00  0.00    +0.000 A 
ATOM      8  N   UNL     1       1.573   8.889  19.159  0.00  0.00    +0.000 N 
ATOM      9  N   UNL     1       3.182   7.376  18.454  0.00  0.00    +0.000 NA
ATOM     10  H   UNL     1       2.124   9.485  18.558  0.00  0.00    +0.000 HD
ENDROOT
BRANCH   8  11
ATOM     11  C   UNL     1       0.816   9.561  20.142  0.00  0.00    +0.000 A 
ATOM     12  C   UNL     1       1.106   9.503  21.529  0.00  0.00    +0.000 A 
ATOM     13  C   UNL     1       2.320   8.834  22.120  0.00  0.00    +0.000 C 
ATOM     14  C   UNL     1       0.216  10.088  22.449  0.00  0.00    +0.000 A 
ATOM     15  C   UNL     1      -0.916  10.783  22.028  0.00  0.00    +0.000 A 
ATOM     16  C   UNL     1      -1.882  11.354  23.022  0.00  0.00    +0.000 C 
ATOM     17  C   UNL     1      -1.141  10.934  20.660  0.00  0.00    +0.000 A 
ATOM     18  C   UNL     1      -0.285  10.341  19.714  0.00  0.00    +0.000 A 
ATOM     19  C   UNL     1      -0.597  10.509  18.251  0.00  0.00    +0.000 C 
ENDBRANCH   8  11
BRANCH   1  20
ATOM     20  C   UNL     1       5.814   4.908  18.485  0.00  0.00    +0.000 C 
BRANCH  20  21
ATOM     21  C   UNL     1       7.324   5.092  18.328  0.00  0.00    +0.000 C 
BRANCH  21  23
ATOM     22  C   UNL     1       7.922   7.476  17.876  0.00  0.00    +0.000 C 
ATOM     23  C   UNL     1       7.939   6.366  18.928  0.00  0.00    +0.000 C 
ENDBRANCH  21  23
ENDBRANCH  20  21
ENDBRANCH   1  20
BRANCH   1  24
ATOM     24  C   UNL     1       4.799   6.150  16.477  0.00  0.00    +0.000 C 
BRANCH  24  25
ATOM     25  C   UNL     1       5.087   4.940  15.575  0.00  0.00    +0.000 C 
BRANCH  25  26
ATOM     26  C   UNL     1       6.349   4.949  14.703  0.00  0.00    +0.000 C 
ATOM     27  C   UNL     1       6.202   3.911  13.588  0.00  0.00    +0.000 C 
ENDBRANCH  25  26
ENDBRANCH  24  25
ENDBRANCH   1  24
TORSDOF 7
ENDMDL
MODEL 6
REMARK VINA RESULT:      -5.5      3.884      6.527
REMARK  Name = 
REMARK  13 active torsions:
REMARK  status: ('A' for Active; 'I' for Inactive)
REMARK    1  A    between atoms: C_1  and  C_2
REMARK    2  A    between atoms: C_2  and  C_3
REMARK    3  A    between atoms: C_3  and  C_4
REMARK    4  A    between atoms: C_4  and  N_5
REMARK    5  A    between atoms: N_5  and  C_6
REMARK    6  A    between atoms: C_6  and  C_7
REMARK    7  A    between atoms: C_7  and  C_8
REMARK    8  A    between atoms: C_8  and  C_9
REMARK    9  A    between atoms: C_12  and  C_13
REMARK   10  A    between atoms: N_16  and  C_17
REMARK   11  A    between atoms: C_18  and  C_19
REMARK   12  A    between atoms: C_21  and  C_22
REMARK   13  A    between atoms: C_24  and  C_25
REMARK                            x       y       z     vdW  Elec       q    Type
REMARK                         _______ _______ _______ _____ _____    ______ ____
ROOT
ATOM      1  N   UNL     1       6.267   5.039  14.728  0.00  0.00    +0.000 N 
ATOM      2  C   UNL     1       5.897   5.193  16.068  0.00  0.00    +0.000 A 
ATOM      3  N   UNL     1       6.857   5.309  16.994  0.00  0.00    +0.000 NA
ATOM      4  C   UNL     1       6.454   5.450  18.242  0.00  0.00    +0.000 A 
ATOM      5  C   UNL     1       7.489   5.647  19.294  0.00  0.00    +0.000 C 
ATOM      6  N   UNL     1       5.185   5.521  18.615  0.00  0.00    +0.000 NA
ATOM      7  C   UNL     1       4.291   5.495  17.631  0.00  0.00    +0.000 A 
ATOM      8  N   UNL     1       2.952   5.773  17.915  0.00  0.00    +0.000 N 
ATOM      9  N   UNL     1       4.599   5.273  16.361  0.00  0.00    +0.000 NA
ATOM     10  H   UNL     1       2.408   5.804  17.065  0.00  0.00    +0.000 HD
ENDROOT
BRANCH   8  11
ATOM     11  C   UNL     1       2.419   6.500  18.999  0.00  0.00    +0.000 A 
ATOM     12  C   UNL     1       2.031   5.906  20.227  0.00  0.00    +0.000 A 
ATOM     13  C   UNL     1       2.253   4.458  20.583  0.00  0.00    +0.000 C 
ATOM     14  C   UNL     1       1.378   6.685  21.200  0.00  0.00    +0.000 A 
ATOM     15  C   UNL     1       1.160   8.049  21.016  0.00  0.00    +0.000 A 
ATOM     16  C   UNL     1       0.416   8.854  22.038  0.00  0.00    +0.000 C 
ATOM     17  C   UNL     1       1.641   8.655  19.855  0.00  0.00    +0.000 A 
ATOM     18  C   UNL     1       2.275   7.900  18.852  0.00  0.00    +0.000 A 
ATOM     19  C   UNL     1       2.743   8.604  17.605  0.00  0.00    +0.000 C 
ENDBRANCH   8  11
BRANCH   1  20
ATOM     20  C   UNL     1       7.659   5.388  14.451  0.00  0.00    +0.000 C 
BRANCH  20  21
ATOM     21  C   UNL     1       8.173   5.021  13.058  0.00  0.00    +0.000 C 
BRANCH  21  23
ATOM     22  C   UNL     1       7.572   5.661  10.719  0.00  0.00    +0.000 C 
ATOM     23  C   UNL     1       8.226   6.147  12.013  0.00  0.00    +0.000 C 
ENDBRANCH  21  23
ENDBRANCH  20  21
ENDBRANCH   1  20
BRANCH   1  24
ATOM     24  C   UNL     1       5.591   3.905  14.087  0.00  0.00    +0.000 C 
BRANCH  24  25
ATOM     25  C   UNL     1       5.164   4.080  12.621  0.00  0.00    +0.000 C 
BRANCH  25  26
ATOM     26  C   UNL     1       4.849   2.832  11.787  0.00  0.00    +0.000 C 
ATOM     27  C   UNL     1       3.616   3.100  10.921  0.00  0.00    +0.000 C 
ENDBRANCH  25  26
ENDBRANCH  24  25
ENDBRANCH   1  24
TORSDOF 7
ENDMDL
MODEL 7
REMARK VINA RESULT:      -5.5      1.971      3.221
REMARK  Name = 
REMARK  13 active torsions:
REMARK  status: ('A' for Active; 'I' for Inactive)
REMARK    1  A    between atoms: C_1  and  C_2
REMARK    2  A    between atoms: C_2  and  C_3
REMARK    3  A    between atoms: C_3  and  C_4
REMARK    4  A    between atoms: C_4  and  N_5
REMARK    5  A    between atoms: N_5  and  C_6
REMARK    6  A    between atoms: C_6  and  C_7
REMARK    7  A    between atoms: C_7  and  C_8
REMARK    8  A    between atoms: C_8  and  C_9
REMARK    9  A    between atoms: C_12  and  C_13
REMARK   10  A    between atoms: N_16  and  C_17
REMARK   11  A    between atoms: C_18  and  C_19
REMARK   12  A    between atoms: C_21  and  C_22
REMARK   13  A    between atoms: C_24  and  C_25
REMARK                            x       y       z     vdW  Elec       q    Type
REMARK                         _______ _______ _______ _____ _____    ______ ____
ROOT
ATOM      1  N   UNL     1       5.001   6.637  17.460  0.00  0.00    +0.000 N 
ATOM      2  C   UNL     1       3.819   7.147  18.008  0.00  0.00    +0.000 A 
ATOM      3  N   UNL     1       3.346   6.606  19.137  0.00  0.00    +0.000 NA
ATOM      4  C   UNL     1       2.227   7.122  19.611  0.00  0.00    +0.000 A 
ATOM      5  C   UNL     1       1.702   6.592  20.900  0.00  0.00    +0.000 C 
ATOM      6  N   UNL     1       1.586   8.145  19.065  0.00  0.00    +0.000 NA
ATOM      7  C   UNL     1       2.167   8.690  18.000  0.00  0.00    +0.000 A 
ATOM      8  N   UNL     1       1.672   9.893  17.492  0.00  0.00    +0.000 N 
ATOM      9  N   UNL     1       3.242   8.188  17.409  0.00  0.00    +0.000 NA
ATOM     10  H   UNL     1       2.262  10.232  16.745  0.00  0.00    +0.000 HD
ENDROOT
BRANCH   8  11
ATOM     11  C   UNL     1       0.915  10.880  18.157  0.00  0.00    +0.000 A 
ATOM     12  C   UNL     1       1.472  12.072  18.685  0.00  0.00    +0.000 A 
ATOM     13  C   UNL     1       2.905  12.501  18.498  0.00  0.00    +0.000 C 
ATOM     14  C   UNL     1       0.668  12.933  19.455  0.00  0.00    +0.000 A 
ATOM     15  C   UNL     1      -0.687  12.677  19.659  0.00  0.00    +0.000 A 
ATOM     16  C   UNL     1      -1.517  13.575  20.525  0.00  0.00    +0.000 C 
ATOM     17  C   UNL     1      -1.259  11.563  19.046  0.00  0.00    +0.000 A 
ATOM     18  C   UNL     1      -0.478  10.669  18.292  0.00  0.00    +0.000 A 
ATOM     19  C   UNL     1      -1.145   9.464  17.682  0.00  0.00    +0.000 C 
ENDBRANCH   8  11
BRANCH   1  20
ATOM     20  C   UNL     1       5.779   5.813  18.383  0.00  0.00    +0.000 C 
BRANCH  20  21
ATOM     21  C   UNL     1       7.291   5.804  18.155  0.00  0.00    +0.000 C 
BRANCH  21  23
ATOM     22  C   UNL     1       7.890   8.171  17.627  0.00  0.00    +0.000 C 
ATOM     23  C   UNL     1       8.078   7.034  18.633  0.00  0.00    +0.000 C 
ENDBRANCH  21  23
ENDBRANCH  20  21
ENDBRANCH   1  20
BRANCH   1  24
ATOM     24  C   UNL     1       4.866   6.318  16.034  0.00  0.00    +0.000 C 
BRANCH  24  25
ATOM     25  C   UNL     1       4.799   4.831  15.650  0.00  0.00    +0.000 C 
BRANCH  25  26
ATOM     26  C   UNL     1       5.701   4.316  14.522  0.00  0.00    +0.000 C 
ATOM     27  C   UNL     1       7.067   4.998  14.612  0.00  0.00    +0.000 C 
ENDBRANCH  25  26
ENDBRANCH  24  25
ENDBRANCH   1  24
TORSDOF 7
ENDMDL
MODEL 8
REMARK VINA RESULT:      -5.5      1.097      1.771
REMARK  Name = 
REMARK  13 active torsions:
REMARK  status: ('A' for Active; 'I' for Inactive)
REMARK    1  A    between atoms: C_1  and  C_2
REMARK    2  A    between atoms: C_2  and  C_3
REMARK    3  A    between atoms: C_3  and  C_4
REMARK    4  A    between atoms: C_4  and  N_5
REMARK    5  A    between atoms: N_5  and  C_6
REMARK    6  A    between atoms: C_6  and  C_7
REMARK    7  A    between atoms: C_7  and  C_8
REMARK    8  A    between atoms: C_8  and  C_9
REMARK    9  A    between atoms: C_12  and  C_13
REMARK   10  A    between atoms: N_16  and  C_17
REMARK   11  A    between atoms: C_18  and  C_19
REMARK   12  A    between atoms: C_21  and  C_22
REMARK   13  A    between atoms: C_24  and  C_25
REMARK                            x       y       z     vdW  Elec       q    Type
REMARK                         _______ _______ _______ _____ _____    ______ ____
ROOT
ATOM      1  N   UNL     1       2.546   6.748  19.041  0.00  0.00    +0.000 N 
ATOM      2  C   UNL     1       1.808   7.858  19.463  0.00  0.00    +0.000 A 
ATOM      3  N   UNL     1       1.414   7.924  20.741  0.00  0.00    +0.000 NA
ATOM      4  C   UNL     1       0.719   8.990  21.087  0.00  0.00    +0.000 A 
ATOM      5  C   UNL     1       0.317   9.132  22.514  0.00  0.00    +0.000 C 
ATOM      6  N   UNL     1       0.432   9.993  20.269  0.00  0.00    +0.000 NA
ATOM      7  C   UNL     1       0.937   9.903  19.043  0.00  0.00    +0.000 A 
ATOM      8  N   UNL     1       0.860  11.004  18.189  0.00  0.00    +0.000 N 
ATOM      9  N   UNL     1       1.574   8.833  18.585  0.00  0.00    +0.000 NA
ATOM     10  H   UNL     1       1.360  10.823  17.330  0.00  0.00    +0.000 HD
ENDROOT
BRANCH   8  11
ATOM     11  C   UNL     1       0.714  12.366  18.525  0.00  0.00    +0.000 A 
ATOM     12  C   UNL     1      -0.520  12.950  18.909  0.00  0.00    +0.000 A 
ATOM     13  C   UNL     1      -1.797  12.180  19.132  0.00  0.00    +0.000 C 
ATOM     14  C   UNL     1      -0.602  14.343  19.089  0.00  0.00    +0.000 A 
ATOM     15  C   UNL     1       0.518  15.162  18.965  0.00  0.00    +0.000 A 
ATOM     16  C   UNL     1       0.404  16.650  19.109  0.00  0.00    +0.000 C 
ATOM     17  C   UNL     1       1.754  14.573  18.697  0.00  0.00    +0.000 A 
ATOM     18  C   UNL     1       1.866  13.187  18.486  0.00  0.00    +0.000 A 
ATOM     19  C   UNL     1       3.221  12.612  18.166  0.00  0.00    +0.000 C 
ENDBRANCH   8  11
BRANCH   1  20
ATOM     20  C   UNL     1       3.115   5.960  20.132  0.00  0.00    +0.000 C 
BRANCH  20  21
ATOM     21  C   UNL     1       2.144   5.028  20.858  0.00  0.00    +0.000 C 
BRANCH  21  23
ATOM     22  C   UNL     1       1.471   2.716  21.526  0.00  0.00    +0.000 C 
ATOM     23  C   UNL     1       2.661   3.628  21.225  0.00  0.00    +0.000 C 
ENDBRANCH  21  23
ENDBRANCH  20  21
ENDBRANCH   1  20
BRANCH   1  24
ATOM     24  C   UNL     1       1.994   6.136  17.826  0.00  0.00    +0.000 C 
BRANCH  24  25
ATOM     25  C   UNL     1       1.682   4.633  17.876  0.00  0.00    +0.000 C 
BRANCH  25  26
ATOM     26  C   UNL     1       2.637   3.654  17.184  0.00  0.00    +0.000 C 
ATOM     27  C   UNL     1       2.448   2.256  17.776  0.00  0.00    +0.000 C 
ENDBRANCH  25  26
ENDBRANCH  24  25
ENDBRANCH   1  24
TORSDOF 7
ENDMDL
MODEL 9
REMARK VINA RESULT:      -5.5      1.993      2.847
REMARK  Name = 
REMARK  13 active torsions:
REMARK  status: ('A' for Active; 'I' for Inactive)
REMARK    1  A    between atoms: C_1  and  C_2
REMARK    2  A    between atoms: C_2  and  C_3
REMARK    3  A    between atoms: C_3  and  C_4
REMARK    4  A    between atoms: C_4  and  N_5
REMARK    5  A    between atoms: N_5  and  C_6
REMARK    6  A    between atoms: C_6  and  C_7
REMARK    7  A    between atoms: C_7  and  C_8
REMARK    8  A    between atoms: C_8  and  C_9
REMARK    9  A    between atoms: C_12  and  C_13
REMARK   10  A    between atoms: N_16  and  C_17
REMARK   11  A    between atoms: C_18  and  C_19
REMARK   12  A    between atoms: C_21  and  C_22
REMARK   13  A    between atoms: C_24  and  C_25
REMARK                            x       y       z     vdW  Elec       q    Type
REMARK                         _______ _______ _______ _____ _____    ______ ____
ROOT
ATOM      1  N   UNL     1       4.966   6.962  17.247  0.00  0.00    +0.000 N 
ATOM      2  C   UNL     1       3.790   7.411  17.857  0.00  0.00    +0.000 A 
ATOM      3  N   UNL     1       3.377   6.814  18.982  0.00  0.00    +0.000 NA
ATOM      4  C   UNL     1       2.262   7.274  19.515  0.00  0.00    +0.000 A 
ATOM      5  C   UNL     1       1.803   6.680  20.801  0.00  0.00    +0.000 C 
ATOM      6  N   UNL     1       1.568   8.294  19.032  0.00  0.00    +0.000 NA
ATOM      7  C   UNL     1       2.090   8.898  17.969  0.00  0.00    +0.000 A 
ATOM      8  N   UNL     1       1.538  10.101  17.525  0.00  0.00    +0.000 N 
ATOM      9  N   UNL     1       3.158   8.454  17.320  0.00  0.00    +0.000 NA
ATOM     10  H   UNL     1       2.088  10.487  16.771  0.00  0.00    +0.000 HD
ENDROOT
BRANCH   8  11
ATOM     11  C   UNL     1       0.775  11.037  18.254  0.00  0.00    +0.000 A 
ATOM     12  C   UNL     1      -0.592  10.847  18.582  0.00  0.00    +0.000 A 
ATOM     13  C   UNL     1      -1.367   9.583  18.314  0.00  0.00    +0.000 C 
ATOM     14  C   UNL     1      -1.312  11.894  19.188  0.00  0.00    +0.000 A 
ATOM     15  C   UNL     1      -0.698  13.095  19.537  0.00  0.00    +0.000 A 
ATOM     16  C   UNL     1      -1.490  14.219  20.133  0.00  0.00    +0.000 C 
ATOM     17  C   UNL     1       0.672  13.238  19.315  0.00  0.00    +0.000 A 
ATOM     18  C   UNL     1       1.415  12.222  18.688  0.00  0.00    +0.000 A 
ATOM     19  C   UNL     1       2.884  12.447  18.444  0.00  0.00    +0.000 C 
ENDBRANCH   8  11
BRANCH   1  20
ATOM     20  C   UNL     1       5.804   6.131  18.110  0.00  0.00    +0.000 C 
BRANCH  20  21
ATOM     21  C   UNL     1       7.302   6.438  18.079  0.00  0.00    +0.000 C 
BRANCH  21  23
ATOM     22  C   UNL     1       8.458   8.618  18.474  0.00  0.00    +0.000 C 
ATOM     23  C   UNL     1       7.731   7.764  17.433  0.00  0.00    +0.000 C 
ENDBRANCH  21  23
ENDBRANCH  20  21
ENDBRANCH   1  20
BRANCH   1  24
ATOM     24  C   UNL     1       4.788   6.691  15.816  0.00  0.00    +0.000 C 
BRANCH  24  25
ATOM     25  C   UNL     1       5.064   5.258  15.333  0.00  0.00    +0.000 C 
BRANCH  25  26
ATOM     26  C   UNL     1       6.410   4.947  14.667  0.00  0.00    +0.000 C 
ATOM     27  C   UNL     1       6.206   3.886  13.585  0.00  0.00    +0.000 C 
ENDBRANCH  25  26
ENDBRANCH  24  25
ENDBRANCH   1  24
TORSDOF 7
ENDMDL
