MODEL 1
REMARK VINA RESULT:      -8.5      0.000      0.000
REMARK  Name = 
REMARK  12 active torsions:
REMARK  status: ('A' for Active; 'I' for Inactive)
REMARK    1  A    between atoms: C_1  and  O_2
REMARK    2  A    between atoms: O_2  and  C_3
REMARK    3  A    between atoms: C_8  and  C_9
REMARK    4  A    between atoms: N_11  and  C_12
REMARK    5  A    between atoms: C_12  and  C_13
REMARK    6  A    between atoms: C_13  and  C_14
REMARK    7  A    between atoms: N_16  and  C_17
REMARK    8  A    between atoms: C_17  and  C_18
REMARK    9  A    between atoms: C_18  and  C_19
REMARK   10  A    between atoms: C_18  and  N_27
REMARK   11  A    between atoms: C_24  and  O_25
REMARK   12  A    between atoms: O_25  and  C_26
REMARK                            x       y       z     vdW  Elec       q    Type
REMARK                         _______ _______ _______ _____ _____    ______ ____
ROOT
ATOM      1  C   UNL     1       2.120   8.072  18.626  0.00  0.00    +0.000 C 
ATOM      2  O   UNL     1       1.807   8.067  19.816  0.00  0.00    +0.000 OA
ATOM      3  N   UNL     1       2.851   7.057  18.048  0.00  0.00    +0.000 N 
ATOM      4  H   UNL     1       3.216   7.151  17.104  0.00  0.00    +0.000 HD
ENDROOT
BRANCH   1   5
ATOM      5  C   UNL     1       1.653   9.132  17.675  0.00  0.00    +0.000 C 
BRANCH   5   6
ATOM      6  C   UNL     1       1.002  10.264  18.456  0.00  0.00    +0.000 C 
BRANCH   6   9
ATOM      7  C   UNL     1      -1.056  11.610  18.307  0.00  0.00    +0.000 C 
ATOM      8  O   UNL     1      -0.469  12.637  18.632  0.00  0.00    +0.000 OA
ATOM      9  N   UNL     1      -0.404  10.410  18.151  0.00  0.00    +0.000 N 
ATOM     10  H   UNL     1      -0.962   9.580  17.987  0.00  0.00    +0.000 HD
BRANCH   7  16
ATOM     11  C   UNL     1      -3.182  11.321  16.876  0.00  0.00    +0.000 A 
ATOM     12  C   UNL     1      -4.585  11.285  16.843  0.00  0.00    +0.000 A 
ATOM     13  C   UNL     1      -5.338  11.636  17.965  0.00  0.00    +0.000 A 
ATOM     14  C   UNL     1      -4.702  12.013  19.139  0.00  0.00    +0.000 A 
ATOM     15  C   UNL     1      -3.309  12.002  19.201  0.00  0.00    +0.000 A 
ATOM     16  C   UNL     1      -2.536  11.631  18.084  0.00  0.00    +0.000 A 
BRANCH  11  18
ATOM     17  C   UNL     1      -2.918   9.932  14.983  0.00  0.00    +0.000 C 
ATOM     18  O   UNL     1      -2.430  11.022  15.767  0.00  0.00    +0.000 OA
ENDBRANCH  11  18
ENDBRANCH   7  16
ENDBRANCH   6   9
ENDBRANCH   5   6
ENDBRANCH   1   5
BRANCH   3  19
ATOM     19  C   UNL     1       3.216   5.944  18.883  0.00  0.00    +0.000 C 
BRANCH  19  20
ATOM     20  C   UNL     1       3.515   4.575  18.203  0.00  0.00    +0.000 C 
BRANCH  20  21
ATOM     21  C   UNL     1       4.805   4.570  17.356  0.00  0.00    +0.000 A 
ATOM     22  C   UNL     1       4.653   4.437  15.949  0.00  0.00    +0.000 A 
ATOM     23  C   UNL     1       5.731   4.320  15.070  0.00  0.00    +0.000 A 
ATOM     24  C   UNL     1       7.017   4.362  15.568  0.00  0.00    +0.000 A 
ATOM     25  C   UNL     1       7.205   4.532  16.937  0.00  0.00    +0.000 A 
ATOM     26  C   UNL     1       6.126   4.636  17.845  0.00  0.00    +0.000 A 
BRANCH  26  27
ATOM     27  O   UNL     1       6.635   4.767  19.106  0.00  0.00    +0.000 OA
ATOM     28  C   UNL     1       7.617   5.716  19.452  0.00  0.00    +0.000 C 
ENDBRANCH  26  27
ENDBRANCH  20  21
BRANCH  20  29
ATOM     29  N   UNL     1       3.410   3.408  19.131  0.00  0.00    +0.000 NA
ATOM     30  C   UNL     1       2.750   2.231  18.534  0.00  0.00    +0.000 C 
ATOM     31  C   UNL     1       1.270   2.332  18.871  0.00  0.00    +0.000 C 
ATOM     32  C   UNL     1       1.236   3.115  20.172  0.00  0.00    +0.000 C 
ATOM     33  C   UNL     1       2.659   3.633  20.376  0.00  0.00    +0.000 C 
ENDBRANCH  20  29
ENDBRANCH  19  20
ENDBRANCH   3  19
TORSDOF 10
ENDMDL
MODEL 2
REMARK VINA RESULT:      -8.1      1.668      2.499
REMARK  Name = 
REMARK  12 active torsions:
REMARK  status: ('A' for Active; 'I' for Inactive)
REMARK    1  A    between atoms: C_1  and  O_2
REMARK    2  A    between atoms: O_2  and  C_3
REMARK    3  A    between atoms: C_8  and  C_9
REMARK    4  A    between atoms: N_11  and  C_12
REMARK    5  A    between atoms: C_12  and  C_13
REMARK    6  A    between atoms: C_13  and  C_14
REMARK    7  A    between atoms: N_16  and  C_17
REMARK    8  A    between atoms: C_17  and  C_18
REMARK    9  A    between atoms: C_18  and  C_19
REMARK   10  A    between atoms: C_18  and  N_27
REMARK   11  A    between atoms: C_24  and  O_25
REMARK   12  A    between atoms: O_25  and  C_26
REMARK                            x       y       z     vdW  Elec       q    Type
REMARK                         _______ _______ _______ _____ _____    ______ ____
ROOT
ATOM      1  C   UNL     1       2.657   7.657  18.007  0.00  0.00    +0.000 C 
ATOM      2  O   UNL     1       3.765   7.733  17.479  0.00  0.00    +0.000 OA
ATOM      3  N   UNL     1       2.342   6.686  18.933  0.00  0.00    +0.000 N 
ATOM      4  H   UNL     1       1.383   6.557  19.247  0.00  0.00    +0.000 HD
ENDROOT
BRANCH   1   5
ATOM      5  C   UNL     1       1.578   8.670  17.765  0.00  0.00    +0.000 C 
BRANCH   5   6
ATOM      6  C   UNL     1       2.081  10.050  18.160  0.00  0.00    +0.000 C 
BRANCH   6   9
ATOM      7  C   UNL     1       0.644  10.248  20.151  0.00  0.00    +0.000 C 
ATOM      8  O   UNL     1       1.044   9.182  20.609  0.00  0.00    +0.000 OA
ATOM      9  N   UNL     1       1.133  10.772  18.979  0.00  0.00    +0.000 N 
ATOM     10  H   UNL     1       0.684  11.599  18.601  0.00  0.00    +0.000 HD
BRANCH   7  16
ATOM     11  C   UNL     1      -1.421  11.791  20.246  0.00  0.00    +0.000 A 
ATOM     12  C   UNL     1      -2.421  12.373  21.040  0.00  0.00    +0.000 A 
ATOM     13  C   UNL     1      -2.390  12.261  22.430  0.00  0.00    +0.000 A 
ATOM     14  C   UNL     1      -1.367  11.555  23.048  0.00  0.00    +0.000 A 
ATOM     15  C   UNL     1      -0.396  10.927  22.269  0.00  0.00    +0.000 A 
ATOM     16  C   UNL     1      -0.425  11.014  20.864  0.00  0.00    +0.000 A 
BRANCH  11  18
ATOM     17  C   UNL     1      -2.634  11.566  18.231  0.00  0.00    +0.000 C 
ATOM     18  O   UNL     1      -1.414  11.931  18.880  0.00  0.00    +0.000 OA
ENDBRANCH  11  18
ENDBRANCH   7  16
ENDBRANCH   6   9
ENDBRANCH   5   6
ENDBRANCH   1   5
BRANCH   3  19
ATOM     19  C   UNL     1       3.380   5.763  19.305  0.00  0.00    +0.000 C 
BRANCH  19  20
ATOM     20  C   UNL     1       3.562   4.471  18.454  0.00  0.00    +0.000 C 
BRANCH  20  21
ATOM     21  C   UNL     1       4.834   4.476  17.580  0.00  0.00    +0.000 A 
ATOM     22  C   UNL     1       4.658   4.275  16.183  0.00  0.00    +0.000 A 
ATOM     23  C   UNL     1       5.721   4.159  15.287  0.00  0.00    +0.000 A 
ATOM     24  C   UNL     1       7.014   4.270  15.754  0.00  0.00    +0.000 A 
ATOM     25  C   UNL     1       7.224   4.507  17.109  0.00  0.00    +0.000 A 
ATOM     26  C   UNL     1       6.161   4.612  18.036  0.00  0.00    +0.000 A 
BRANCH  26  27
ATOM     27  O   UNL     1       6.690   4.817  19.278  0.00  0.00    +0.000 OA
ATOM     28  C   UNL     1       7.685   5.777  19.549  0.00  0.00    +0.000 C 
ENDBRANCH  26  27
ENDBRANCH  20  21
BRANCH  20  29
ATOM     29  N   UNL     1       3.383   3.209  19.234  0.00  0.00    +0.000 NA
ATOM     30  C   UNL     1       2.579   2.186  18.535  0.00  0.00    +0.000 C 
ATOM     31  C   UNL     1       1.135   2.383  18.970  0.00  0.00    +0.000 C 
ATOM     32  C   UNL     1       1.242   2.990  20.358  0.00  0.00    +0.000 C 
ATOM     33  C   UNL     1       2.718   3.340  20.540  0.00  0.00    +0.000 C 
ENDBRANCH  20  29
ENDBRANCH  19  20
ENDBRANCH   3  19
TORSDOF 10
ENDMDL
MODEL 3
REMARK VINA RESULT:      -8.0      2.835      3.324
REMARK  Name = 
REMARK  12 active torsions:
REMARK  status: ('A' for Active; 'I' for Inactive)
REMARK    1  A    between atoms: C_1  and  O_2
REMARK    2  A    between atoms: O_2  and  C_3
REMARK    3  A    between atoms: C_8  and  C_9
REMARK    4  A    between atoms: N_11  and  C_12
REMARK    5  A    between atoms: C_12  and  C_13
REMARK    6  A    between atoms: C_13  and  C_14
REMARK    7  A    between atoms: N_16  and  C_17
REMARK    8  A    between atoms: C_17  and  C_18
REMARK    9  A    between atoms: C_18  and  C_19
REMARK   10  A    between atoms: C_18  and  N_27
REMARK   11  A    between atoms: C_24  and  O_25
REMARK   12  A    between atoms: O_25  and  C_26
REMARK                            x       y       z     vdW  Elec       q    Type
REMARK                         _______ _______ _______ _____ _____    ______ ____
ROOT
ATOM      1  C   UNL     1       3.114   7.782  17.912  0.00  0.00    +0.000 C 
ATOM      2  O   UNL     1       4.270   7.650  17.515  0.00  0.00    +0.000 OA
ATOM      3  N   UNL     1       2.525   6.897  18.790  0.00  0.00    +0.000 N 
ATOM      4  H   UNL     1       1.530   6.947  18.991  0.00  0.00    +0.000 HD
ENDROOT
BRANCH   1   5
ATOM      5  C   UNL     1       2.270   8.969  17.555  0.00  0.00    +0.000 C 
BRANCH   5   6
ATOM      6  C   UNL     1       0.875   8.792  18.137  0.00  0.00    +0.000 C 
BRANCH   6   9
ATOM      7  C   UNL     1       0.544   9.672  20.414  0.00  0.00    +0.000 C 
ATOM      8  O   UNL     1       0.949   8.635  20.929  0.00  0.00    +0.000 OA
ATOM      9  N   UNL     1       0.517   9.853  19.052  0.00  0.00    +0.000 N 
ATOM     10  H   UNL     1       0.071  10.688  18.688  0.00  0.00    +0.000 HD
BRANCH   7  16
ATOM     11  C   UNL     1       0.319  12.152  21.087  0.00  0.00    +0.000 A 
ATOM     12  C   UNL     1      -0.309  13.096  21.915  0.00  0.00    +0.000 A 
ATOM     13  C   UNL     1      -1.134  12.693  22.965  0.00  0.00    +0.000 A 
ATOM     14  C   UNL     1      -1.356  11.343  23.197  0.00  0.00    +0.000 A 
ATOM     15  C   UNL     1      -0.781  10.396  22.350  0.00  0.00    +0.000 A 
ATOM     16  C   UNL     1       0.038  10.787  21.274  0.00  0.00    +0.000 A 
BRANCH  11  18
ATOM     17  C   UNL     1       2.266  13.351  20.491  0.00  0.00    +0.000 C 
ATOM     18  O   UNL     1       1.170  12.532  20.079  0.00  0.00    +0.000 OA
ENDBRANCH  11  18
ENDBRANCH   7  16
ENDBRANCH   6   9
ENDBRANCH   5   6
ENDBRANCH   1   5
BRANCH   3  19
ATOM     19  C   UNL     1       3.331   5.807  19.272  0.00  0.00    +0.000 C 
BRANCH  19  20
ATOM     20  C   UNL     1       3.481   4.543  18.375  0.00  0.00    +0.000 C 
BRANCH  20  21
ATOM     21  C   UNL     1       4.769   4.531  17.526  0.00  0.00    +0.000 A 
ATOM     22  C   UNL     1       4.618   4.323  16.127  0.00  0.00    +0.000 A 
ATOM     23  C   UNL     1       5.698   4.192  15.253  0.00  0.00    +0.000 A 
ATOM     24  C   UNL     1       6.982   4.295  15.744  0.00  0.00    +0.000 A 
ATOM     25  C   UNL     1       7.168   4.539  17.101  0.00  0.00    +0.000 A 
ATOM     26  C   UNL     1       6.088   4.659  18.006  0.00  0.00    +0.000 A 
BRANCH  26  27
ATOM     27  O   UNL     1       6.595   4.867  19.258  0.00  0.00    +0.000 OA
ATOM     28  C   UNL     1       7.703   5.697  19.518  0.00  0.00    +0.000 C 
ENDBRANCH  26  27
ENDBRANCH  20  21
BRANCH  20  29
ATOM     29  N   UNL     1       3.238   3.260  19.102  0.00  0.00    +0.000 NA
ATOM     30  C   UNL     1       2.391   2.306  18.358  0.00  0.00    +0.000 C 
ATOM     31  C   UNL     1       0.955   2.552  18.794  0.00  0.00    +0.000 C 
ATOM     32  C   UNL     1       1.081   3.097  20.207  0.00  0.00    +0.000 C 
ATOM     33  C   UNL     1       2.571   3.369  20.409  0.00  0.00    +0.000 C 
ENDBRANCH  20  29
ENDBRANCH  19  20
ENDBRANCH   3  19
TORSDOF 10
ENDMDL
MODEL 4
REMARK VINA RESULT:      -8.0      1.049      1.780
REMARK  Name = 
REMARK  12 active torsions:
REMARK  status: ('A' for Active; 'I' for Inactive)
REMARK    1  A    between atoms: C_1  and  O_2
REMARK    2  A    between atoms: O_2  and  C_3
REMARK    3  A    between atoms: C_8  and  C_9
REMARK    4  A    between atoms: N_11  and  C_12
REMARK    5  A    between atoms: C_12  and  C_13
REMARK    6  A    between atoms: C_13  and  C_14
REMARK    7  A    between atoms: N_16  and  C_17
REMARK    8  A    between atoms: C_17  and  C_18
REMARK    9  A    between atoms: C_18  and  C_19
REMARK   10  A    between atoms: C_18  and  N_27
REMARK   11  A    between atoms: C_24  and  O_25
REMARK   12  A    between atoms: O_25  and  C_26
REMARK                            x       y       z     vdW  Elec       q    Type
REMARK                         _______ _______ _______ _____ _____    ______ ____
ROOT
ATOM      1  C   UNL     1       2.195   8.047  18.672  0.00  0.00    +0.000 C 
ATOM      2  O   UNL     1       1.970   8.176  19.874  0.00  0.00    +0.000 OA
ATOM      3  N   UNL     1       2.578   6.845  18.114  0.00  0.00    +0.000 N 
ATOM      4  H   UNL     1       2.893   6.796  17.149  0.00  0.00    +0.000 HD
ENDROOT
BRANCH   1   5
ATOM      5  C   UNL     1       1.981   9.157  17.688  0.00  0.00    +0.000 C 
BRANCH   5   6
ATOM      6  C   UNL     1       1.527  10.408  18.426  0.00  0.00    +0.000 C 
BRANCH   6   9
ATOM      7  C   UNL     1      -0.752  11.038  19.116  0.00  0.00    +0.000 C 
ATOM      8  O   UNL     1      -0.437  11.078  20.301  0.00  0.00    +0.000 OA
ATOM      9  N   UNL     1       0.159  10.764  18.124  0.00  0.00    +0.000 N 
ATOM     10  H   UNL     1      -0.186  10.640  17.179  0.00  0.00    +0.000 HD
BRANCH   7  16
ATOM     11  C   UNL     1      -2.767  10.817  17.522  0.00  0.00    +0.000 A 
ATOM     12  C   UNL     1      -4.140  11.029  17.322  0.00  0.00    +0.000 A 
ATOM     13  C   UNL     1      -4.896  11.756  18.243  0.00  0.00    +0.000 A 
ATOM     14  C   UNL     1      -4.295  12.271  19.384  0.00  0.00    +0.000 A 
ATOM     15  C   UNL     1      -2.943  12.023  19.621  0.00  0.00    +0.000 A 
ATOM     16  C   UNL     1      -2.172  11.274  18.711  0.00  0.00    +0.000 A 
BRANCH  11  18
ATOM     17  C   UNL     1      -2.582  10.034  15.301  0.00  0.00    +0.000 C 
ATOM     18  O   UNL     1      -2.002  10.143  16.603  0.00  0.00    +0.000 OA
ENDBRANCH  11  18
ENDBRANCH   7  16
ENDBRANCH   6   9
ENDBRANCH   5   6
ENDBRANCH   1   5
BRANCH   3  19
ATOM     19  C   UNL     1       2.672   5.708  18.990  0.00  0.00    +0.000 C 
BRANCH  19  20
ATOM     20  C   UNL     1       3.461   4.458  18.498  0.00  0.00    +0.000 C 
BRANCH  20  21
ATOM     21  C   UNL     1       4.958   4.730  18.238  0.00  0.00    +0.000 A 
ATOM     22  C   UNL     1       5.733   5.182  19.341  0.00  0.00    +0.000 A 
ATOM     23  C   UNL     1       7.072   5.559  19.232  0.00  0.00    +0.000 A 
ATOM     24  C   UNL     1       7.702   5.469  18.009  0.00  0.00    +0.000 A 
ATOM     25  C   UNL     1       6.986   4.992  16.914  0.00  0.00    +0.000 A 
ATOM     26  C   UNL     1       5.625   4.620  17.001  0.00  0.00    +0.000 A 
BRANCH  26  27
ATOM     27  O   UNL     1       5.206   4.224  15.763  0.00  0.00    +0.000 OA
ATOM     28  C   UNL     1       6.085   3.819  14.739  0.00  0.00    +0.000 C 
ENDBRANCH  26  27
ENDBRANCH  20  21
BRANCH  20  29
ATOM     29  N   UNL     1       3.214   3.233  19.316  0.00  0.00    +0.000 NA
ATOM     30  C   UNL     1       2.567   2.137  18.567  0.00  0.00    +0.000 C 
ATOM     31  C   UNL     1       1.067   2.287  18.766  0.00  0.00    +0.000 C 
ATOM     32  C   UNL     1       0.936   2.973  20.116  0.00  0.00    +0.000 C 
ATOM     33  C   UNL     1       2.352   3.402  20.496  0.00  0.00    +0.000 C 
ENDBRANCH  20  29
ENDBRANCH  19  20
ENDBRANCH   3  19
TORSDOF 10
ENDMDL
MODEL 5
REMARK VINA RESULT:      -7.9      2.356      2.809
REMARK  Name = 
REMARK  12 active torsions:
REMARK  status: ('A' for Active; 'I' for Inactive)
REMARK    1  A    between atoms: C_1  and  O_2
REMARK    2  A    between atoms: O_2  and  C_3
REMARK    3  A    between atoms: C_8  and  C_9
REMARK    4  A    between atoms: N_11  and  C_12
REMARK    5  A    between atoms: C_12  and  C_13
REMARK    6  A    between atoms: C_13  and  C_14
REMARK    7  A    between atoms: N_16  and  C_17
REMARK    8  A    between atoms: C_17  and  C_18
REMARK    9  A    between atoms: C_18  and  C_19
REMARK   10  A    between atoms: C_18  and  N_27
REMARK   11  A    between atoms: C_24  and  O_25
REMARK   12  A    between atoms: O_25  and  C_26
REMARK                            x       y       z     vdW  Elec       q    Type
REMARK                         _______ _______ _______ _____ _____    ______ ____
ROOT
ATOM      1  C   UNL     1       1.970   8.225  18.861  0.00  0.00    +0.000 C 
ATOM      2  O   UNL     1       1.776   8.219  20.075  0.00  0.00    +0.000 OA
ATOM      3  N   UNL     1       2.689   7.239  18.220  0.00  0.00    +0.000 N 
ATOM      4  H   UNL     1       2.955   7.339  17.244  0.00  0.00    +0.000 HD
ENDROOT
BRANCH   1   5
ATOM      5  C   UNL     1       1.362   9.251  17.953  0.00  0.00    +0.000 C 
BRANCH   5   6
ATOM      6  C   UNL     1       1.592  10.640  18.531  0.00  0.00    +0.000 C 
BRANCH   6   9
ATOM      7  C   UNL     1       0.613  11.656  20.551  0.00  0.00    +0.000 C 
ATOM      8  O   UNL     1       1.716  11.841  21.055  0.00  0.00    +0.000 OA
ATOM      9  N   UNL     1       0.461  11.115  19.296  0.00  0.00    +0.000 N 
ATOM     10  H   UNL     1      -0.477  10.889  18.983  0.00  0.00    +0.000 HD
BRANCH   7  16
ATOM     11  C   UNL     1      -1.564  12.982  20.940  0.00  0.00    +0.000 A 
ATOM     12  C   UNL     1      -2.734  13.130  21.702  0.00  0.00    +0.000 A 
ATOM     13  C   UNL     1      -2.933  12.382  22.863  0.00  0.00    +0.000 A 
ATOM     14  C   UNL     1      -1.975  11.466  23.274  0.00  0.00    +0.000 A 
ATOM     15  C   UNL     1      -0.832  11.272  22.498  0.00  0.00    +0.000 A 
ATOM     16  C   UNL     1      -0.626  12.004  21.313  0.00  0.00    +0.000 A 
BRANCH  11  18
ATOM     17  C   UNL     1      -1.082  15.127  20.075  0.00  0.00    +0.000 C 
ATOM     18  O   UNL     1      -1.334  13.743  19.821  0.00  0.00    +0.000 OA
ENDBRANCH  11  18
ENDBRANCH   7  16
ENDBRANCH   6   9
ENDBRANCH   5   6
ENDBRANCH   1   5
BRANCH   3  19
ATOM     19  C   UNL     1       3.187   6.154  19.022  0.00  0.00    +0.000 C 
BRANCH  19  20
ATOM     20  C   UNL     1       3.423   4.774  18.339  0.00  0.00    +0.000 C 
BRANCH  20  21
ATOM     21  C   UNL     1       4.746   4.689  17.549  0.00  0.00    +0.000 A 
ATOM     22  C   UNL     1       4.650   4.424  16.155  0.00  0.00    +0.000 A 
ATOM     23  C   UNL     1       5.762   4.225  15.336  0.00  0.00    +0.000 A 
ATOM     24  C   UNL     1       7.026   4.312  15.879  0.00  0.00    +0.000 A 
ATOM     25  C   UNL     1       7.160   4.610  17.233  0.00  0.00    +0.000 A 
ATOM     26  C   UNL     1       6.046   4.800  18.082  0.00  0.00    +0.000 A 
BRANCH  26  27
ATOM     27  O   UNL     1       6.504   5.048  19.345  0.00  0.00    +0.000 OA
ATOM     28  C   UNL     1       7.703   5.738  19.614  0.00  0.00    +0.000 C 
ENDBRANCH  26  27
ENDBRANCH  20  21
BRANCH  20  29
ATOM     29  N   UNL     1       3.197   3.609  19.245  0.00  0.00    +0.000 NA
ATOM     30  C   UNL     1       2.522   2.469  18.594  0.00  0.00    +0.000 C 
ATOM     31  C   UNL     1       1.029   2.642  18.829  0.00  0.00    +0.000 C 
ATOM     32  C   UNL     1       0.944   3.418  20.132  0.00  0.00    +0.000 C 
ATOM     33  C   UNL     1       2.374   3.863  20.438  0.00  0.00    +0.000 C 
ENDBRANCH  20  29
ENDBRANCH  19  20
ENDBRANCH   3  19
TORSDOF 10
ENDMDL
MODEL 6
REMARK VINA RESULT:      -7.9      1.964      3.027
REMARK  Name = 
REMARK  12 active torsions:
REMARK  status: ('A' for Active; 'I' for Inactive)
REMARK    1  A    between atoms: C_1  and  O_2
REMARK    2  A    between atoms: O_2  and  C_3
REMARK    3  A    between atoms: C_8  and  C_9
REMARK    4  A    between atoms: N_11  and  C_12
REMARK    5  A    between atoms: C_12  and  C_13
REMARK    6  A    between atoms: C_13  and  C_14
REMARK    7  A    between atoms: N_16  and  C_17
REMARK    8  A    between atoms: C_17  and  C_18
REMARK    9  A    between atoms: C_18  and  C_19
REMARK   10  A    between atoms: C_18  and  N_27
REMARK   11  A    between atoms: C_24  and  O_25
REMARK   12  A    between atoms: O_25  and  C_26
REMARK                            x       y       z     vdW  Elec       q    Type
REMARK                         _______ _______ _______ _____ _____    ______ ____
ROOT
ATOM      1  C   UNL     1       2.321   7.946  18.769  0.00  0.00    +0.000 C 
ATOM      2  O   UNL     1       2.038   7.937  19.966  0.00  0.00    +0.000 OA
ATOM      3  N   UNL     1       2.821   6.839  18.118  0.00  0.00    +0.000 N 
ATOM      4  H   UNL     1       3.179   6.911  17.168  0.00  0.00    +0.000 HD
ENDROOT
BRANCH   1   5
ATOM      5  C   UNL     1       2.057   9.129  17.887  0.00  0.00    +0.000 C 
BRANCH   5   6
ATOM      6  C   UNL     1       0.582   9.495  17.958  0.00  0.00    +0.000 C 
BRANCH   6   9
ATOM      7  C   UNL     1      -0.976  10.785  19.365  0.00  0.00    +0.000 C 
ATOM      8  O   UNL     1      -1.855  10.753  18.510  0.00  0.00    +0.000 OA
ATOM      9  N   UNL     1       0.233  10.154  19.197  0.00  0.00    +0.000 N 
ATOM     10  H   UNL     1       0.954  10.308  19.893  0.00  0.00    +0.000 HD
BRANCH   7  16
ATOM     11  C   UNL     1      -1.024  11.027  21.932  0.00  0.00    +0.000 A 
ATOM     12  C   UNL     1      -1.168  11.888  23.032  0.00  0.00    +0.000 A 
ATOM     13  C   UNL     1      -1.560  13.216  22.857  0.00  0.00    +0.000 A 
ATOM     14  C   UNL     1      -1.800  13.709  21.582  0.00  0.00    +0.000 A 
ATOM     15  C   UNL     1      -1.610  12.880  20.477  0.00  0.00    +0.000 A 
ATOM     16  C   UNL     1      -1.195  11.543  20.636  0.00  0.00    +0.000 A 
BRANCH  11  18
ATOM     17  C   UNL     1       0.459   9.475  22.919  0.00  0.00    +0.000 C 
ATOM     18  O   UNL     1      -0.684   9.707  22.092  0.00  0.00    +0.000 OA
ENDBRANCH  11  18
ENDBRANCH   7  16
ENDBRANCH   6   9
ENDBRANCH   5   6
ENDBRANCH   1   5
BRANCH   3  19
ATOM     19  C   UNL     1       2.973   5.631  18.884  0.00  0.00    +0.000 C 
BRANCH  19  20
ATOM     20  C   UNL     1       3.415   4.334  18.142  0.00  0.00    +0.000 C 
BRANCH  20  21
ATOM     21  C   UNL     1       4.753   4.475  17.387  0.00  0.00    +0.000 A 
ATOM     22  C   UNL     1       4.784   4.027  16.038  0.00  0.00    +0.000 A 
ATOM     23  C   UNL     1       5.946   4.003  15.266  0.00  0.00    +0.000 A 
ATOM     24  C   UNL     1       7.128   4.458  15.809  0.00  0.00    +0.000 A 
ATOM     25  C   UNL     1       7.129   4.943  17.114  0.00  0.00    +0.000 A 
ATOM     26  C   UNL     1       5.966   4.961  17.918  0.00  0.00    +0.000 A 
BRANCH  26  27
ATOM     27  O   UNL     1       6.296   5.465  19.144  0.00  0.00    +0.000 OA
ATOM     28  C   UNL     1       7.623   5.700  19.555  0.00  0.00    +0.000 C 
ENDBRANCH  26  27
ENDBRANCH  20  21
BRANCH  20  29
ATOM     29  N   UNL     1       3.336   3.104  18.986  0.00  0.00    +0.000 NA
ATOM     30  C   UNL     1       2.583   2.000  18.360  0.00  0.00    +0.000 C 
ATOM     31  C   UNL     1       1.140   2.126  18.824  0.00  0.00    +0.000 C 
ATOM     32  C   UNL     1       1.242   2.807  20.178  0.00  0.00    +0.000 C 
ATOM     33  C   UNL     1       2.696   3.258  20.302  0.00  0.00    +0.000 C 
ENDBRANCH  20  29
ENDBRANCH  19  20
ENDBRANCH   3  19
TORSDOF 10
ENDMDL
MODEL 7
REMARK VINA RESULT:      -7.9      1.111      1.862
REMARK  Name = 
REMARK  12 active torsions:
REMARK  status: ('A' for Active; 'I' for Inactive)
REMARK    1  A    between atoms: C_1  and  O_2
REMARK    2  A    between atoms: O_2  and  C_3
REMARK    3  A    between atoms: C_8  and  C_9
REMARK    4  A    between atoms: N_11  and  C_12
REMARK    5  A    between atoms: C_12  and  C_13
REMARK    6  A    between atoms: C_13  and  C_14
REMARK    7  A    between atoms: N_16  and  C_17
REMARK    8  A    between atoms: C_17  and  C_18
REMARK    9  A    between atoms: C_18  and  C_19
REMARK   10  A    between atoms: C_18  and  N_27
REMARK   11  A    between atoms: C_24  and  O_25
REMARK   12  A    between atoms: O_25  and  C_26
REMARK                            x       y       z     vdW  Elec       q    Type
REMARK                         _______ _______ _______ _____ _____    ______ ____
ROOT
ATOM      1  C   UNL     1       2.541   7.618  18.919  0.00  0.00    +0.000 C 
ATOM      2  O   UNL     1       3.367   7.756  18.018  0.00  0.00    +0.000 OA
ATOM      3  N   UNL     1       2.590   6.572  19.814  0.00  0.00    +0.000 N 
ATOM      4  H   UNL     1       1.820   6.401  20.458  0.00  0.00    +0.000 HD
ENDROOT
BRANCH   1   5
ATOM      5  C   UNL     1       1.464   8.626  19.186  0.00  0.00    +0.000 C 
BRANCH   5   6
ATOM      6  C   UNL     1       1.320   9.546  17.983  0.00  0.00    +0.000 C 
BRANCH   6   9
ATOM      7  C   UNL     1      -0.645  11.025  18.114  0.00  0.00    +0.000 C 
ATOM      8  O   UNL     1      -0.012  11.900  18.696  0.00  0.00    +0.000 OA
ATOM      9  N   UNL     1      -0.060   9.858  17.686  0.00  0.00    +0.000 N 
ATOM     10  H   UNL     1      -0.660   9.132  17.309  0.00  0.00    +0.000 HD
BRANCH   7  16
ATOM     11  C   UNL     1      -3.042  11.692  18.797  0.00  0.00    +0.000 A 
ATOM     12  C   UNL     1      -4.369  11.899  18.388  0.00  0.00    +0.000 A 
ATOM     13  C   UNL     1      -4.788  11.546  17.105  0.00  0.00    +0.000 A 
ATOM     14  C   UNL     1      -3.886  10.994  16.206  0.00  0.00    +0.000 A 
ATOM     15  C   UNL     1      -2.553  10.831  16.581  0.00  0.00    +0.000 A 
ATOM     16  C   UNL     1      -2.110  11.201  17.865  0.00  0.00    +0.000 A 
BRANCH  11  18
ATOM     17  C   UNL     1      -3.149  13.211  20.603  0.00  0.00    +0.000 C 
ATOM     18  O   UNL     1      -2.626  11.992  20.070  0.00  0.00    +0.000 OA
ENDBRANCH  11  18
ENDBRANCH   7  16
ENDBRANCH   6   9
ENDBRANCH   5   6
ENDBRANCH   1   5
BRANCH   3  19
ATOM     19  C   UNL     1       3.680   5.642  19.690  0.00  0.00    +0.000 C 
BRANCH  19  20
ATOM     20  C   UNL     1       3.602   4.553  18.580  0.00  0.00    +0.000 C 
BRANCH  20  21
ATOM     21  C   UNL     1       4.800   4.568  17.608  0.00  0.00    +0.000 A 
ATOM     22  C   UNL     1       4.510   4.427  16.223  0.00  0.00    +0.000 A 
ATOM     23  C   UNL     1       5.496   4.327  15.241  0.00  0.00    +0.000 A 
ATOM     24  C   UNL     1       6.824   4.394  15.607  0.00  0.00    +0.000 A 
ATOM     25  C   UNL     1       7.146   4.573  16.949  0.00  0.00    +0.000 A 
ATOM     26  C   UNL     1       6.162   4.660  17.961  0.00  0.00    +0.000 A 
BRANCH  26  27
ATOM     27  O   UNL     1       6.792   4.805  19.164  0.00  0.00    +0.000 OA
ATOM     28  C   UNL     1       7.900   5.652  19.363  0.00  0.00    +0.000 C 
ENDBRANCH  26  27
ENDBRANCH  20  21
BRANCH  20  29
ATOM     29  N   UNL     1       3.276   3.190  19.098  0.00  0.00    +0.000 NA
ATOM     30  C   UNL     1       2.124   2.557  18.426  0.00  0.00    +0.000 C 
ATOM     31  C   UNL     1       0.887   2.905  19.241  0.00  0.00    +0.000 C 
ATOM     32  C   UNL     1       1.413   3.099  20.653  0.00  0.00    +0.000 C 
ATOM     33  C   UNL     1       2.936   3.102  20.527  0.00  0.00    +0.000 C 
ENDBRANCH  20  29
ENDBRANCH  19  20
ENDBRANCH   3  19
TORSDOF 10
ENDMDL
MODEL 8
REMARK VINA RESULT:      -7.9      3.142      3.505
REMARK  Name = 
REMARK  12 active torsions:
REMARK  status: ('A' for Active; 'I' for Inactive)
REMARK    1  A    between atoms: C_1  and  O_2
REMARK    2  A    between atoms: O_2  and  C_3
REMARK    3  A    between atoms: C_8  and  C_9
REMARK    4  A    between atoms: N_11  and  C_12
REMARK    5  A    between atoms: C_12  and  C_13
REMARK    6  A    between atoms: C_13  and  C_14
REMARK    7  A    between atoms: N_16  and  C_17
REMARK    8  A    between atoms: C_17  and  C_18
REMARK    9  A    between atoms: C_18  and  C_19
REMARK   10  A    between atoms: C_18  and  N_27
REMARK   11  A    between atoms: C_24  and  O_25
REMARK   12  A    between atoms: O_25  and  C_26
REMARK                            x       y       z     vdW  Elec       q    Type
REMARK                         _______ _______ _______ _____ _____    ______ ____
ROOT
ATOM      1  C   UNL     1       2.119   6.450  20.376  0.00  0.00    +0.000 C 
ATOM      2  O   UNL     1       1.706   5.508  21.049  0.00  0.00    +0.000 OA
ATOM      3  N   UNL     1       3.262   6.368  19.610  0.00  0.00    +0.000 N 
ATOM      4  H   UNL     1       3.660   7.199  19.177  0.00  0.00    +0.000 HD
ENDROOT
BRANCH   1   5
ATOM      5  C   UNL     1       1.369   7.742  20.250  0.00  0.00    +0.000 C 
BRANCH   5   6
ATOM      6  C   UNL     1       1.419   8.489  21.574  0.00  0.00    +0.000 C 
BRANCH   6   9
ATOM      7  C   UNL     1       0.065  10.238  22.659  0.00  0.00    +0.000 C 
ATOM      8  O   UNL     1       0.179   9.714  23.762  0.00  0.00    +0.000 OA
ATOM      9  N   UNL     1       0.679   9.731  21.539  0.00  0.00    +0.000 N 
ATOM     10  H   UNL     1       0.457  10.146  20.641  0.00  0.00    +0.000 HD
BRANCH   7  16
ATOM     11  C   UNL     1      -0.473  12.560  21.675  0.00  0.00    +0.000 A 
ATOM     12  C   UNL     1      -1.412  13.595  21.542  0.00  0.00    +0.000 A 
ATOM     13  C   UNL     1      -2.599  13.585  22.275  0.00  0.00    +0.000 A 
ATOM     14  C   UNL     1      -2.873  12.536  23.142  0.00  0.00    +0.000 A 
ATOM     15  C   UNL     1      -1.974  11.475  23.244  0.00  0.00    +0.000 A 
ATOM     16  C   UNL     1      -0.781  11.461  22.495  0.00  0.00    +0.000 A 
BRANCH  11  18
ATOM     17  C   UNL     1       1.213  13.883  20.680  0.00  0.00    +0.000 C 
ATOM     18  O   UNL     1       0.719  12.579  20.994  0.00  0.00    +0.000 OA
ENDBRANCH  11  18
ENDBRANCH   7  16
ENDBRANCH   6   9
ENDBRANCH   5   6
ENDBRANCH   1   5
BRANCH   3  19
ATOM     19  C   UNL     1       3.956   5.109  19.586  0.00  0.00    +0.000 C 
BRANCH  19  20
ATOM     20  C   UNL     1       3.859   4.234  18.300  0.00  0.00    +0.000 C 
BRANCH  20  21
ATOM     21  C   UNL     1       5.017   4.460  17.306  0.00  0.00    +0.000 A 
ATOM     22  C   UNL     1       4.682   4.511  15.925  0.00  0.00    +0.000 A 
ATOM     23  C   UNL     1       5.634   4.612  14.910  0.00  0.00    +0.000 A 
ATOM     24  C   UNL     1       6.969   4.697  15.241  0.00  0.00    +0.000 A 
ATOM     25  C   UNL     1       7.333   4.692  16.585  0.00  0.00    +0.000 A 
ATOM     26  C   UNL     1       6.385   4.574  17.628  0.00  0.00    +0.000 A 
BRANCH  26  27
ATOM     27  O   UNL     1       7.053   4.573  18.819  0.00  0.00    +0.000 OA
ATOM     28  C   UNL     1       7.773   5.681  19.306  0.00  0.00    +0.000 C 
ENDBRANCH  26  27
ENDBRANCH  20  21
BRANCH  20  29
ATOM     29  N   UNL     1       3.587   2.791  18.575  0.00  0.00    +0.000 NA
ATOM     30  C   UNL     1       2.486   2.229  17.769  0.00  0.00    +0.000 C 
ATOM     31  C   UNL     1       1.212   2.382  18.585  0.00  0.00    +0.000 C 
ATOM     32  C   UNL     1       1.688   2.362  20.028  0.00  0.00    +0.000 C 
ATOM     33  C   UNL     1       3.212   2.452  19.957  0.00  0.00    +0.000 C 
ENDBRANCH  20  29
ENDBRANCH  19  20
ENDBRANCH   3  19
TORSDOF 10
ENDMDL
MODEL 9
REMARK VINA RESULT:      -7.7      2.434      3.263
REMARK  Name = 
REMARK  12 active torsions:
REMARK  status: ('A' for Active; 'I' for Inactive)
REMARK    1  A    between atoms: C_1  and  O_2
REMARK    2  A    between atoms: O_2  and  C_3
REMARK    3  A    between atoms: C_8  and  C_9
REMARK    4  A    between atoms: N_11  and  C_12
REMARK    5  A    between atoms: C_12  and  C_13
REMARK    6  A    between atoms: C_13  and  C_14
REMARK    7  A    between atoms: N_16  and  C_17
REMARK    8  A    between atoms: C_17  and  C_18
REMARK    9  A    between atoms: C_18  and  C_19
REMARK   10  A    between atoms: C_18  and  N_27
REMARK   11  A    between atoms: C_24  and  O_25
REMARK   12  A    between atoms: O_25  and  C_26
REMARK                            x       y       z     vdW  Elec       q    Type
REMARK                         _______ _______ _______ _____ _____    ______ ____
ROOT
ATOM      1  C   UNL     1       2.737   7.741  18.319  0.00  0.00    +0.000 C 
ATOM      2  O   UNL     1       3.785   7.771  17.677  0.00  0.00    +0.000 OA
ATOM      3  N   UNL     1       2.462   6.757  19.245  0.00  0.00    +0.000 N 
ATOM      4  H   UNL     1       1.536   6.674  19.657  0.00  0.00    +0.000 HD
ENDROOT
BRANCH   1   5
ATOM      5  C   UNL     1       1.704   8.823  18.225  0.00  0.00    +0.000 C 
BRANCH   5   6
ATOM      6  C   UNL     1       1.093   9.062  19.599  0.00  0.00    +0.000 C 
BRANCH   6   9
ATOM      7  C   UNL     1      -0.147  11.190  19.555  0.00  0.00    +0.000 C 
ATOM      8  O   UNL     1      -1.125  10.668  19.031  0.00  0.00    +0.000 OA
ATOM      9  N   UNL     1       0.967  10.468  19.912  0.00  0.00    +0.000 N 
ATOM     10  H   UNL     1       1.781  10.975  20.241  0.00  0.00    +0.000 HD
BRANCH   7  16
ATOM     11  C   UNL     1      -0.033  13.270  21.077  0.00  0.00    +0.000 A 
ATOM     12  C   UNL     1       0.071  14.667  21.156  0.00  0.00    +0.000 A 
ATOM     13  C   UNL     1      -0.008  15.459  20.009  0.00  0.00    +0.000 A 
ATOM     14  C   UNL     1      -0.178  14.867  18.765  0.00  0.00    +0.000 A 
ATOM     15  C   UNL     1      -0.230  13.477  18.667  0.00  0.00    +0.000 A 
ATOM     16  C   UNL     1      -0.132  12.664  19.812  0.00  0.00    +0.000 A 
BRANCH  11  18
ATOM     17  C   UNL     1      -1.229  12.428  22.932  0.00  0.00    +0.000 C 
ATOM     18  O   UNL     1      -0.003  12.481  22.200  0.00  0.00    +0.000 OA
ENDBRANCH  11  18
ENDBRANCH   7  16
ENDBRANCH   6   9
ENDBRANCH   5   6
ENDBRANCH   1   5
BRANCH   3  19
ATOM     19  C   UNL     1       3.475   5.762  19.475  0.00  0.00    +0.000 C 
BRANCH  19  20
ATOM     20  C   UNL     1       3.542   4.538  18.516  0.00  0.00    +0.000 C 
BRANCH  20  21
ATOM     21  C   UNL     1       4.789   4.528  17.606  0.00  0.00    +0.000 A 
ATOM     22  C   UNL     1       4.575   4.295  16.220  0.00  0.00    +0.000 A 
ATOM     23  C   UNL     1       5.613   4.163  15.297  0.00  0.00    +0.000 A 
ATOM     24  C   UNL     1       6.918   4.290  15.724  0.00  0.00    +0.000 A 
ATOM     25  C   UNL     1       7.165   4.558  17.067  0.00  0.00    +0.000 A 
ATOM     26  C   UNL     1       6.128   4.680  18.021  0.00  0.00    +0.000 A 
BRANCH  26  27
ATOM     27  O   UNL     1       6.691   4.914  19.243  0.00  0.00    +0.000 OA
ATOM     28  C   UNL     1       7.842   5.706  19.428  0.00  0.00    +0.000 C 
ENDBRANCH  26  27
ENDBRANCH  20  21
BRANCH  20  29
ATOM     29  N   UNL     1       3.293   3.230  19.193  0.00  0.00    +0.000 NA
ATOM     30  C   UNL     1       2.384   2.337  18.448  0.00  0.00    +0.000 C 
ATOM     31  C   UNL     1       0.977   2.604  18.961  0.00  0.00    +0.000 C 
ATOM     32  C   UNL     1       1.184   3.078  20.389  0.00  0.00    +0.000 C 
ATOM     33  C   UNL     1       2.690   3.297  20.534  0.00  0.00    +0.000 C 
ENDBRANCH  20  29
ENDBRANCH  19  20
ENDBRANCH   3  19
TORSDOF 10
ENDMDL
