MODEL 1
REMARK VINA RESULT:      -6.4      0.000      0.000
REMARK  Name = 
REMARK  5 active torsions:
REMARK  status: ('A' for Active; 'I' for Inactive)
REMARK    1  A    between atoms: C_1  and  C_2
REMARK    2  A    between atoms: C_2  and  S_4
REMARK    3  A    between atoms: S_4  and  C_5
REMARK    4  A    between atoms: C_13  and  C_14
REMARK    5  A    between atoms: C_18  and  C_19
REMARK                            x       y       z     vdW  Elec       q    Type
REMARK                         _______ _______ _______ _____ _____    ______ ____
ROOT
ATOM      1  C   UNL     1      -4.725  12.616  20.326  0.00  0.00    +0.000 C 
ATOM      2  C   UNL     1      -4.518  12.632  18.796  0.00  0.00    +0.000 C 
ATOM      3  C   UNL     1      -3.361  11.756  18.344  0.00  0.00    +0.000 C 
ATOM      4  C   UNL     1      -3.610  10.862  17.366  0.00  0.00    +0.000 C 
ATOM      5  C   UNL     1      -2.606   9.866  16.925  0.00  0.00    +0.000 C 
ATOM      6  O   UNL     1      -2.933   8.987  16.132  0.00  0.00    +0.000 OA
ATOM      7  C   UNL     1      -1.214  10.005  17.467  0.00  0.00    +0.000 C 
ATOM      8  C   UNL     1      -1.261  10.493  18.908  0.00  0.00    +0.000 C 
ATOM      9  C   UNL     1      -2.000  11.870  19.056  0.00  0.00    +0.000 C 
ATOM     10  C   UNL     1      -1.091  12.931  18.377  0.00  0.00    +0.000 C 
ATOM     11  C   UNL     1      -2.181  12.195  20.597  0.00  0.00    +0.000 C 
ATOM     12  C   UNL     1      -0.849  12.690  21.287  0.00  0.00    +0.000 C 
ATOM     13  C   UNL     1      -0.939  13.329  22.697  0.00  0.00    +0.000 C 
ATOM     14  C   UNL     1      -2.180  14.263  22.907  0.00  0.00    +0.000 C 
ATOM     15  C   UNL     1      -2.024  15.512  22.020  0.00  0.00    +0.000 C 
ATOM     16  C   UNL     1      -3.314  13.274  22.499  0.00  0.00    +0.000 C 
ATOM     17  C   UNL     1      -4.351  13.449  23.584  0.00  0.00    +0.000 C 
ATOM     18  C   UNL     1      -3.382  13.440  24.816  0.00  0.00    +0.000 C 
ATOM     19  C   UNL     1      -2.429  14.602  24.457  0.00  0.00    +0.000 C 
ATOM     20  C   UNL     1      -3.113  15.768  25.183  0.00  0.00    +0.000 C 
ATOM     21  C   UNL     1      -2.127  16.890  25.254  0.00  0.00    +0.000 C 
ATOM     22  C   UNL     1      -0.862  16.125  25.019  0.00  0.00    +0.000 C 
ATOM     23  O   UNL     1       0.243  16.636  24.864  0.00  0.00    +0.000 OA
ATOM     24  O   UNL     1      -1.124  14.764  25.026  0.00  0.00    +0.000 OA
ATOM     25  C   UNL     1      -3.414  13.128  20.961  0.00  0.00    +0.000 C 
ENDROOT
BRANCH   1  26
ATOM     26  S   UNL     1      -6.106  13.754  20.758  0.00  0.00    +0.000 S 
BRANCH  26  28
ATOM     27  C   UNL     1      -7.491  11.389  20.740  0.00  0.00    +0.000 C 
ATOM     28  C   UNL     1      -7.289  12.673  21.497  0.00  0.00    +0.000 C 
ATOM     29  O   UNL     1      -7.917  12.971  22.504  0.00  0.00    +0.000 OA
ENDBRANCH  26  28
ENDBRANCH   1  26
TORSDOF 2
ENDMDL
MODEL 2
REMARK VINA RESULT:      -6.4      3.757      6.814
REMARK  Name = 
REMARK  5 active torsions:
REMARK  status: ('A' for Active; 'I' for Inactive)
REMARK    1  A    between atoms: C_1  and  C_2
REMARK    2  A    between atoms: C_2  and  S_4
REMARK    3  A    between atoms: S_4  and  C_5
REMARK    4  A    between atoms: C_13  and  C_14
REMARK    5  A    between atoms: C_18  and  C_19
REMARK                            x       y       z     vdW  Elec       q    Type
REMARK                         _______ _______ _______ _____ _____    ______ ____
ROOT
ATOM      1  C   UNL     1      -0.389  11.886  21.392  0.00  0.00    +0.000 C 
ATOM      2  C   UNL     1      -0.983  11.651  22.797  0.00  0.00    +0.000 C 
ATOM      3  C   UNL     1      -2.088  12.634  23.148  0.00  0.00    +0.000 C 
ATOM      4  C   UNL     1      -3.254  12.120  23.587  0.00  0.00    +0.000 C 
ATOM      5  C   UNL     1      -4.448  12.960  23.840  0.00  0.00    +0.000 C 
ATOM      6  O   UNL     1      -5.521  12.423  24.102  0.00  0.00    +0.000 OA
ATOM      7  C   UNL     1      -4.268  14.448  23.781  0.00  0.00    +0.000 C 
ATOM      8  C   UNL     1      -3.264  14.810  22.696  0.00  0.00    +0.000 C 
ATOM      9  C   UNL     1      -1.863  14.141  22.922  0.00  0.00    +0.000 C 
ATOM     10  C   UNL     1      -1.250  14.818  24.177  0.00  0.00    +0.000 C 
ATOM     11  C   UNL     1      -0.955  14.403  21.648  0.00  0.00    +0.000 C 
ATOM     12  C   UNL     1      -0.385  15.875  21.586  0.00  0.00    +0.000 C 
ATOM     13  C   UNL     1       0.750  16.187  20.576  0.00  0.00    +0.000 C 
ATOM     14  C   UNL     1       1.825  15.054  20.441  0.00  0.00    +0.000 C 
ATOM     15  C   UNL     1       2.615  14.950  21.759  0.00  0.00    +0.000 C 
ATOM     16  C   UNL     1       0.888  13.853  20.110  0.00  0.00    +0.000 C 
ATOM     17  C   UNL     1       1.579  13.166  18.955  0.00  0.00    +0.000 C 
ATOM     18  C   UNL     1       1.934  14.444  18.120  0.00  0.00    +0.000 C 
ATOM     19  C   UNL     1       2.757  15.254  19.147  0.00  0.00    +0.000 C 
ATOM     20  C   UNL     1       4.180  14.801  18.795  0.00  0.00    +0.000 C 
ATOM     21  C   UNL     1       5.127  15.765  19.436  0.00  0.00    +0.000 C 
ATOM     22  C   UNL     1       4.194  16.913  19.668  0.00  0.00    +0.000 C 
ATOM     23  O   UNL     1       4.481  17.928  20.295  0.00  0.00    +0.000 OA
ATOM     24  O   UNL     1       2.978  16.666  19.052  0.00  0.00    +0.000 OA
ATOM     25  C   UNL     1       0.177  13.322  21.379  0.00  0.00    +0.000 C 
ENDROOT
BRANCH   1  26
ATOM     26  S   UNL     1       0.973  10.681  21.105  0.00  0.00    +0.000 S 
BRANCH  26  28
ATOM     27  C   UNL     1      -0.898  10.250  19.150  0.00  0.00    +0.000 C 
ATOM     28  C   UNL     1       0.491   9.893  19.602  0.00  0.00    +0.000 C 
ATOM     29  O   UNL     1       1.209   9.094  19.016  0.00  0.00    +0.000 OA
ENDBRANCH  26  28
ENDBRANCH   1  26
TORSDOF 2
ENDMDL
MODEL 3
REMARK VINA RESULT:      -6.4      1.857      2.308
REMARK  Name = 
REMARK  5 active torsions:
REMARK  status: ('A' for Active; 'I' for Inactive)
REMARK    1  A    between atoms: C_1  and  C_2
REMARK    2  A    between atoms: C_2  and  S_4
REMARK    3  A    between atoms: S_4  and  C_5
REMARK    4  A    between atoms: C_13  and  C_14
REMARK    5  A    between atoms: C_18  and  C_19
REMARK                            x       y       z     vdW  Elec       q    Type
REMARK                         _______ _______ _______ _____ _____    ______ ____
ROOT
ATOM      1  C   UNL     1      -3.653  11.881  19.752  0.00  0.00    +0.000 C 
ATOM      2  C   UNL     1      -2.744  11.907  18.504  0.00  0.00    +0.000 C 
ATOM      3  C   UNL     1      -1.340  11.398  18.780  0.00  0.00    +0.000 C 
ATOM      4  C   UNL     1      -0.860  10.439  17.963  0.00  0.00    +0.000 C 
ATOM      5  C   UNL     1       0.440   9.769  18.200  0.00  0.00    +0.000 C 
ATOM      6  O   UNL     1       0.761   8.807  17.506  0.00  0.00    +0.000 OA
ATOM      7  C   UNL     1       1.317  10.329  19.281  0.00  0.00    +0.000 C 
ATOM      8  C   UNL     1       0.463  10.828  20.438  0.00  0.00    +0.000 C 
ATOM      9  C   UNL     1      -0.565  11.930  20.000  0.00  0.00    +0.000 C 
ATOM     10  C   UNL     1       0.268  13.190  19.638  0.00  0.00    +0.000 C 
ATOM     11  C   UNL     1      -1.540  12.237  21.212  0.00  0.00    +0.000 C 
ATOM     12  C   UNL     1      -0.872  13.126  22.335  0.00  0.00    +0.000 C 
ATOM     13  C   UNL     1      -1.783  13.754  23.421  0.00  0.00    +0.000 C 
ATOM     14  C   UNL     1      -3.156  14.288  22.885  0.00  0.00    +0.000 C 
ATOM     15  C   UNL     1      -2.901  15.498  21.967  0.00  0.00    +0.000 C 
ATOM     16  C   UNL     1      -3.673  12.996  22.182  0.00  0.00    +0.000 C 
ATOM     17  C   UNL     1      -5.111  12.892  22.633  0.00  0.00    +0.000 C 
ATOM     18  C   UNL     1      -4.888  13.209  24.152  0.00  0.00    +0.000 C 
ATOM     19  C   UNL     1      -4.196  14.588  24.072  0.00  0.00    +0.000 C 
ATOM     20  C   UNL     1      -5.405  15.524  24.200  0.00  0.00    +0.000 C 
ATOM     21  C   UNL     1      -4.883  16.889  24.519  0.00  0.00    +0.000 C 
ATOM     22  C   UNL     1      -3.518  16.523  25.015  0.00  0.00    +0.000 C 
ATOM     23  O   UNL     1      -2.638  17.332  25.293  0.00  0.00    +0.000 OA
ATOM     24  O   UNL     1      -3.411  15.146  25.133  0.00  0.00    +0.000 OA
ATOM     25  C   UNL     1      -2.980  12.777  20.815  0.00  0.00    +0.000 C 
ENDROOT
BRANCH   1  26
ATOM     26  S   UNL     1      -5.301  12.575  19.313  0.00  0.00    +0.000 S 
BRANCH  26  28
ATOM     27  C   UNL     1      -7.410  11.195  20.388  0.00  0.00    +0.000 C 
ATOM     28  C   UNL     1      -6.343  11.151  19.329  0.00  0.00    +0.000 C 
ATOM     29  O   UNL     1      -6.175  10.202  18.575  0.00  0.00    +0.000 OA
ENDBRANCH  26  28
ENDBRANCH   1  26
TORSDOF 2
ENDMDL
MODEL 4
REMARK VINA RESULT:      -6.4     10.031     12.025
REMARK  Name = 
REMARK  5 active torsions:
REMARK  status: ('A' for Active; 'I' for Inactive)
REMARK    1  A    between atoms: C_1  and  C_2
REMARK    2  A    between atoms: C_2  and  S_4
REMARK    3  A    between atoms: S_4  and  C_5
REMARK    4  A    between atoms: C_13  and  C_14
REMARK    5  A    between atoms: C_18  and  C_19
REMARK                            x       y       z     vdW  Elec       q    Type
REMARK                         _______ _______ _______ _____ _____    ______ ____
ROOT
ATOM      1  C   UNL     1       8.701  15.499  20.306  0.00  0.00    +0.000 C 
ATOM      2  C   UNL     1      10.164  15.452  19.815  0.00  0.00    +0.000 C 
ATOM      3  C   UNL     1      10.523  14.139  19.142  0.00  0.00    +0.000 C 
ATOM      4  C   UNL     1      11.094  14.206  17.923  0.00  0.00    +0.000 C 
ATOM      5  C   UNL     1      11.375  13.001  17.108  0.00  0.00    +0.000 C 
ATOM      6  O   UNL     1      11.764  13.130  15.950  0.00  0.00    +0.000 OA
ATOM      7  C   UNL     1      11.185  11.665  17.765  0.00  0.00    +0.000 C 
ATOM      8  C   UNL     1       9.998  11.716  18.716  0.00  0.00    +0.000 C 
ATOM      9  C   UNL     1      10.162  12.809  19.831  0.00  0.00    +0.000 C 
ATOM     10  C   UNL     1      11.307  12.320  20.759  0.00  0.00    +0.000 C 
ATOM     11  C   UNL     1       8.803  12.930  20.639  0.00  0.00    +0.000 C 
ATOM     12  C   UNL     1       8.579  11.742  21.657  0.00  0.00    +0.000 C 
ATOM     13  C   UNL     1       7.460  11.880  22.721  0.00  0.00    +0.000 C 
ATOM     14  C   UNL     1       7.329  13.315  23.339  0.00  0.00    +0.000 C 
ATOM     15  C   UNL     1       8.583  13.618  24.179  0.00  0.00    +0.000 C 
ATOM     16  C   UNL     1       7.170  14.142  22.027  0.00  0.00    +0.000 C 
ATOM     17  C   UNL     1       6.021  15.077  22.328  0.00  0.00    +0.000 C 
ATOM     18  C   UNL     1       5.062  14.035  23.001  0.00  0.00    +0.000 C 
ATOM     19  C   UNL     1       5.953  13.504  24.146  0.00  0.00    +0.000 C 
ATOM     20  C   UNL     1       5.524  14.427  25.294  0.00  0.00    +0.000 C 
ATOM     21  C   UNL     1       6.009  13.812  26.568  0.00  0.00    +0.000 C 
ATOM     22  C   UNL     1       6.224  12.407  26.099  0.00  0.00    +0.000 C 
ATOM     23  O   UNL     1       6.745  11.520  26.770  0.00  0.00    +0.000 OA
ATOM     24  O   UNL     1       5.729  12.256  24.813  0.00  0.00    +0.000 OA
ATOM     25  C   UNL     1       8.530  14.341  21.314  0.00  0.00    +0.000 C 
ENDROOT
BRANCH   1  26
ATOM     26  S   UNL     1       8.401  17.106  21.154  0.00  0.00    +0.000 S 
BRANCH  26  28
ATOM     27  C   UNL     1       6.091  18.544  20.831  0.00  0.00    +0.000 C 
ATOM     28  C   UNL     1       7.232  17.896  20.096  0.00  0.00    +0.000 C 
ATOM     29  O   UNL     1       7.325  17.873  18.876  0.00  0.00    +0.000 OA
ENDBRANCH  26  28
ENDBRANCH   1  26
TORSDOF 2
ENDMDL
MODEL 5
REMARK VINA RESULT:      -6.3      2.747      6.474
REMARK  Name = 
REMARK  5 active torsions:
REMARK  status: ('A' for Active; 'I' for Inactive)
REMARK    1  A    between atoms: C_1  and  C_2
REMARK    2  A    between atoms: C_2  and  S_4
REMARK    3  A    between atoms: S_4  and  C_5
REMARK    4  A    between atoms: C_13  and  C_14
REMARK    5  A    between atoms: C_18  and  C_19
REMARK                            x       y       z     vdW  Elec       q    Type
REMARK                         _______ _______ _______ _____ _____    ______ ____
ROOT
ATOM      1  C   UNL     1      -4.724  13.822  21.643  0.00  0.00    +0.000 C 
ATOM      2  C   UNL     1      -5.573  14.209  22.873  0.00  0.00    +0.000 C 
ATOM      3  C   UNL     1      -4.963  15.339  23.685  0.00  0.00    +0.000 C 
ATOM      4  C   UNL     1      -5.755  16.392  23.971  0.00  0.00    +0.000 C 
ATOM      5  C   UNL     1      -5.247  17.610  24.642  0.00  0.00    +0.000 C 
ATOM      6  O   UNL     1      -5.978  18.592  24.750  0.00  0.00    +0.000 OA
ATOM      7  C   UNL     1      -3.848  17.566  25.184  0.00  0.00    +0.000 C 
ATOM      8  C   UNL     1      -2.958  16.744  24.263  0.00  0.00    +0.000 C 
ATOM      9  C   UNL     1      -3.475  15.273  24.079  0.00  0.00    +0.000 C 
ATOM     10  C   UNL     1      -3.280  14.564  25.446  0.00  0.00    +0.000 C 
ATOM     11  C   UNL     1      -2.613  14.561  22.954  0.00  0.00    +0.000 C 
ATOM     12  C   UNL     1      -1.177  14.130  23.454  0.00  0.00    +0.000 C 
ATOM     13  C   UNL     1      -0.346  13.164  22.570  0.00  0.00    +0.000 C 
ATOM     14  C   UNL     1      -1.182  12.023  21.894  0.00  0.00    +0.000 C 
ATOM     15  C   UNL     1      -1.699  11.066  22.984  0.00  0.00    +0.000 C 
ATOM     16  C   UNL     1      -2.262  12.890  21.180  0.00  0.00    +0.000 C 
ATOM     17  C   UNL     1      -2.338  12.297  19.791  0.00  0.00    +0.000 C 
ATOM     18  C   UNL     1      -0.799  12.161  19.527  0.00  0.00    +0.000 C 
ATOM     19  C   UNL     1      -0.366  11.285  20.724  0.00  0.00    +0.000 C 
ATOM     20  C   UNL     1      -0.453   9.885  20.102  0.00  0.00    +0.000 C 
ATOM     21  C   UNL     1       0.290   8.949  21.000  0.00  0.00    +0.000 C 
ATOM     22  C   UNL     1       1.120   9.938  21.758  0.00  0.00    +0.000 C 
ATOM     23  O   UNL     1       1.829   9.660  22.720  0.00  0.00    +0.000 OA
ATOM     24  O   UNL     1       0.983  11.198  21.197  0.00  0.00    +0.000 OA
ATOM     25  C   UNL     1      -3.342  13.385  22.173  0.00  0.00    +0.000 C 
ENDROOT
BRANCH   1  26
ATOM     26  S   UNL     1      -5.528  12.410  20.777  0.00  0.00    +0.000 S 
BRANCH  26  28
ATOM     27  C   UNL     1      -6.813  14.306  19.272  0.00  0.00    +0.000 C 
ATOM     28  C   UNL     1      -5.927  13.093  19.200  0.00  0.00    +0.000 C 
ATOM     29  O   UNL     1      -5.552  12.590  18.149  0.00  0.00    +0.000 OA
ENDBRANCH  26  28
ENDBRANCH   1  26
TORSDOF 2
ENDMDL
MODEL 6
REMARK VINA RESULT:      -6.3      3.141      4.811
REMARK  Name = 
REMARK  5 active torsions:
REMARK  status: ('A' for Active; 'I' for Inactive)
REMARK    1  A    between atoms: C_1  and  C_2
REMARK    2  A    between atoms: C_2  and  S_4
REMARK    3  A    between atoms: S_4  and  C_5
REMARK    4  A    between atoms: C_13  and  C_14
REMARK    5  A    between atoms: C_18  and  C_19
REMARK                            x       y       z     vdW  Elec       q    Type
REMARK                         _______ _______ _______ _____ _____    ______ ____
ROOT
ATOM      1  C   UNL     1      -0.504  11.407  18.989  0.00  0.00    +0.000 C 
ATOM      2  C   UNL     1       0.952  10.920  18.834  0.00  0.00    +0.000 C 
ATOM      3  C   UNL     1       1.225   9.617  19.565  0.00  0.00    +0.000 C 
ATOM      4  C   UNL     1       1.799   8.622  18.860  0.00  0.00    +0.000 C 
ATOM      5  C   UNL     1       2.000   7.265  19.418  0.00  0.00    +0.000 C 
ATOM      6  O   UNL     1       2.397   6.361  18.686  0.00  0.00    +0.000 OA
ATOM      7  C   UNL     1       1.722   7.073  20.880  0.00  0.00    +0.000 C 
ATOM      8  C   UNL     1       0.541   7.933  21.304  0.00  0.00    +0.000 C 
ATOM      9  C   UNL     1       0.776   9.461  21.031  0.00  0.00    +0.000 C 
ATOM     10  C   UNL     1       1.887   9.917  22.016  0.00  0.00    +0.000 C 
ATOM     11  C   UNL     1      -0.572  10.248  21.307  0.00  0.00    +0.000 C 
ATOM     12  C   UNL     1      -0.874  10.439  22.847  0.00  0.00    +0.000 C 
ATOM     13  C   UNL     1      -1.981  11.440  23.265  0.00  0.00    +0.000 C 
ATOM     14  C   UNL     1      -2.019  12.756  22.415  0.00  0.00    +0.000 C 
ATOM     15  C   UNL     1      -0.747  13.577  22.702  0.00  0.00    +0.000 C 
ATOM     16  C   UNL     1      -2.122  12.135  20.989  0.00  0.00    +0.000 C 
ATOM     17  C   UNL     1      -3.207  12.947  20.320  0.00  0.00    +0.000 C 
ATOM     18  C   UNL     1      -4.233  12.960  21.506  0.00  0.00    +0.000 C 
ATOM     19  C   UNL     1      -3.379  13.582  22.634  0.00  0.00    +0.000 C 
ATOM     20  C   UNL     1      -3.746  15.065  22.487  0.00  0.00    +0.000 C 
ATOM     21  C   UNL     1      -3.303  15.761  23.734  0.00  0.00    +0.000 C 
ATOM     22  C   UNL     1      -3.181  14.581  24.647  0.00  0.00    +0.000 C 
ATOM     23  O   UNL     1      -2.720  14.624  25.784  0.00  0.00    +0.000 OA
ATOM     24  O   UNL     1      -3.685  13.448  24.027  0.00  0.00    +0.000 OA
ATOM     25  C   UNL     1      -0.752  11.604  20.500  0.00  0.00    +0.000 C 
ENDROOT
BRANCH   1  26
ATOM     26  S   UNL     1      -0.698  13.017  18.116  0.00  0.00    +0.000 S 
BRANCH  26  28
ATOM     27  C   UNL     1      -0.435  15.309  19.595  0.00  0.00    +0.000 C 
ATOM     28  C   UNL     1       0.304  14.107  19.074  0.00  0.00    +0.000 C 
ATOM     29  O   UNL     1       1.500  13.918  19.253  0.00  0.00    +0.000 OA
ENDBRANCH  26  28
ENDBRANCH   1  26
TORSDOF 2
ENDMDL
MODEL 7
REMARK VINA RESULT:      -6.2      2.556      5.347
REMARK  Name = 
REMARK  5 active torsions:
REMARK  status: ('A' for Active; 'I' for Inactive)
REMARK    1  A    between atoms: C_1  and  C_2
REMARK    2  A    between atoms: C_2  and  S_4
REMARK    3  A    between atoms: S_4  and  C_5
REMARK    4  A    between atoms: C_13  and  C_14
REMARK    5  A    between atoms: C_18  and  C_19
REMARK                            x       y       z     vdW  Elec       q    Type
REMARK                         _______ _______ _______ _____ _____    ______ ____
ROOT
ATOM      1  C   UNL     1      -1.426  15.679  21.832  0.00  0.00    +0.000 C 
ATOM      2  C   UNL     1      -0.028  15.039  21.977  0.00  0.00    +0.000 C 
ATOM      3  C   UNL     1       0.301  14.069  20.856  0.00  0.00    +0.000 C 
ATOM      4  C   UNL     1       1.473  14.244  20.212  0.00  0.00    +0.000 C 
ATOM      5  C   UNL     1       1.853  13.449  19.022  0.00  0.00    +0.000 C 
ATOM      6  O   UNL     1       2.865  13.748  18.392  0.00  0.00    +0.000 OA
ATOM      7  C   UNL     1       0.974  12.288  18.659  0.00  0.00    +0.000 C 
ATOM      8  C   UNL     1      -0.481  12.624  18.952  0.00  0.00    +0.000 C 
ATOM      9  C   UNL     1      -0.726  12.992  20.458  0.00  0.00    +0.000 C 
ATOM     10  C   UNL     1      -0.520  11.683  21.269  0.00  0.00    +0.000 C 
ATOM     11  C   UNL     1      -2.211  13.523  20.625  0.00  0.00    +0.000 C 
ATOM     12  C   UNL     1      -3.288  12.367  20.598  0.00  0.00    +0.000 C 
ATOM     13  C   UNL     1      -4.735  12.695  21.050  0.00  0.00    +0.000 C 
ATOM     14  C   UNL     1      -4.826  13.658  22.283  0.00  0.00    +0.000 C 
ATOM     15  C   UNL     1      -4.279  12.933  23.528  0.00  0.00    +0.000 C 
ATOM     16  C   UNL     1      -3.963  14.839  21.747  0.00  0.00    +0.000 C 
ATOM     17  C   UNL     1      -4.778  16.065  22.090  0.00  0.00    +0.000 C 
ATOM     18  C   UNL     1      -6.178  15.533  21.631  0.00  0.00    +0.000 C 
ATOM     19  C   UNL     1      -6.306  14.250  22.483  0.00  0.00    +0.000 C 
ATOM     20  C   UNL     1      -7.069  14.789  23.700  0.00  0.00    +0.000 C 
ATOM     21  C   UNL     1      -7.605  13.612  24.449  0.00  0.00    +0.000 C 
ATOM     22  C   UNL     1      -7.530  12.576  23.371  0.00  0.00    +0.000 C 
ATOM     23  O   UNL     1      -7.755  11.380  23.537  0.00  0.00    +0.000 OA
ATOM     24  O   UNL     1      -7.194  13.171  22.166  0.00  0.00    +0.000 OA
ATOM     25  C   UNL     1      -2.450  14.523  21.835  0.00  0.00    +0.000 C 
ENDROOT
BRANCH   1  26
ATOM     26  S   UNL     1      -1.737  16.783  23.272  0.00  0.00    +0.000 S 
BRANCH  26  28
ATOM     27  C   UNL     1      -3.080  15.613  25.355  0.00  0.00    +0.000 C 
ATOM     28  C   UNL     1      -1.762  15.658  24.631  0.00  0.00    +0.000 C 
ATOM     29  O   UNL     1      -0.779  15.015  24.974  0.00  0.00    +0.000 OA
ENDBRANCH  26  28
ENDBRANCH   1  26
TORSDOF 2
ENDMDL
MODEL 8
REMARK VINA RESULT:      -6.2      3.801      6.729
REMARK  Name = 
REMARK  5 active torsions:
REMARK  status: ('A' for Active; 'I' for Inactive)
REMARK    1  A    between atoms: C_1  and  C_2
REMARK    2  A    between atoms: C_2  and  S_4
REMARK    3  A    between atoms: S_4  and  C_5
REMARK    4  A    between atoms: C_13  and  C_14
REMARK    5  A    between atoms: C_18  and  C_19
REMARK                            x       y       z     vdW  Elec       q    Type
REMARK                         _______ _______ _______ _____ _____    ______ ____
ROOT
ATOM      1  C   UNL     1      -0.577  12.060  21.432  0.00  0.00    +0.000 C 
ATOM      2  C   UNL     1      -1.178  11.808  22.832  0.00  0.00    +0.000 C 
ATOM      3  C   UNL     1      -2.290  12.780  23.186  0.00  0.00    +0.000 C 
ATOM      4  C   UNL     1      -3.456  12.256  23.614  0.00  0.00    +0.000 C 
ATOM      5  C   UNL     1      -4.656  13.086  23.868  0.00  0.00    +0.000 C 
ATOM      6  O   UNL     1      -5.728  12.540  24.119  0.00  0.00    +0.000 OA
ATOM      7  C   UNL     1      -4.485  14.576  23.825  0.00  0.00    +0.000 C 
ATOM      8  C   UNL     1      -3.477  14.954  22.750  0.00  0.00    +0.000 C 
ATOM      9  C   UNL     1      -2.072  14.291  22.976  0.00  0.00    +0.000 C 
ATOM     10  C   UNL     1      -1.470  14.959  24.242  0.00  0.00    +0.000 C 
ATOM     11  C   UNL     1      -1.159  14.571  21.711  0.00  0.00    +0.000 C 
ATOM     12  C   UNL     1      -0.597  16.048  21.667  0.00  0.00    +0.000 C 
ATOM     13  C   UNL     1       0.541  16.376  20.667  0.00  0.00    +0.000 C 
ATOM     14  C   UNL     1       1.624  15.251  20.526  0.00  0.00    +0.000 C 
ATOM     15  C   UNL     1       2.407  15.138  21.847  0.00  0.00    +0.000 C 
ATOM     16  C   UNL     1       0.696  14.048  20.178  0.00  0.00    +0.000 C 
ATOM     17  C   UNL     1       1.397  13.376  19.020  0.00  0.00    +0.000 C 
ATOM     18  C   UNL     1       1.749  14.665  18.200  0.00  0.00    +0.000 C 
ATOM     19  C   UNL     1       2.561  15.469  19.240  0.00  0.00    +0.000 C 
ATOM     20  C   UNL     1       3.989  15.028  18.891  0.00  0.00    +0.000 C 
ATOM     21  C   UNL     1       4.927  15.991  19.547  0.00  0.00    +0.000 C 
ATOM     22  C   UNL     1       3.986  17.131  19.785  0.00  0.00    +0.000 C 
ATOM     23  O   UNL     1       4.264  18.142  20.425  0.00  0.00    +0.000 OA
ATOM     24  O   UNL     1       2.775  16.883  19.159  0.00  0.00    +0.000 OA
ATOM     25  C   UNL     1      -0.019  13.500  21.437  0.00  0.00    +0.000 C 
ENDROOT
BRANCH   1  26
ATOM     26  S   UNL     1       0.794  10.867  21.140  0.00  0.00    +0.000 S 
BRANCH  26  28
ATOM     27  C   UNL     1      -0.417   8.493  21.780  0.00  0.00    +0.000 C 
ATOM     28  C   UNL     1       0.461   9.591  22.313  0.00  0.00    +0.000 C 
ATOM     29  O   UNL     1       0.872   9.631  23.465  0.00  0.00    +0.000 OA
ENDBRANCH  26  28
ENDBRANCH   1  26
TORSDOF 2
ENDMDL
MODEL 9
REMARK VINA RESULT:      -6.1      3.846      6.835
REMARK  Name = 
REMARK  5 active torsions:
REMARK  status: ('A' for Active; 'I' for Inactive)
REMARK    1  A    between atoms: C_1  and  C_2
REMARK    2  A    between atoms: C_2  and  S_4
REMARK    3  A    between atoms: S_4  and  C_5
REMARK    4  A    between atoms: C_13  and  C_14
REMARK    5  A    between atoms: C_18  and  C_19
REMARK                            x       y       z     vdW  Elec       q    Type
REMARK                         _______ _______ _______ _____ _____    ______ ____
ROOT
ATOM      1  C   UNL     1      -0.433  11.520  21.701  0.00  0.00    +0.000 C 
ATOM      2  C   UNL     1      -1.075  11.650  23.099  0.00  0.00    +0.000 C 
ATOM      3  C   UNL     1      -2.282  12.572  23.116  0.00  0.00    +0.000 C 
ATOM      4  C   UNL     1      -3.418  12.094  23.662  0.00  0.00    +0.000 C 
ATOM      5  C   UNL     1      -4.695  12.843  23.626  0.00  0.00    +0.000 C 
ATOM      6  O   UNL     1      -5.727  12.299  24.013  0.00  0.00    +0.000 OA
ATOM      7  C   UNL     1      -4.650  14.258  23.131  0.00  0.00    +0.000 C 
ATOM      8  C   UNL     1      -3.628  14.386  22.010  0.00  0.00    +0.000 C 
ATOM      9  C   UNL     1      -2.185  13.961  22.457  0.00  0.00    +0.000 C 
ATOM     10  C   UNL     1      -1.703  15.038  23.467  0.00  0.00    +0.000 C 
ATOM     11  C   UNL     1      -1.240  13.929  21.184  0.00  0.00    +0.000 C 
ATOM     12  C   UNL     1      -0.805  15.369  20.698  0.00  0.00    +0.000 C 
ATOM     13  C   UNL     1       0.348  15.485  19.668  0.00  0.00    +0.000 C 
ATOM     14  C   UNL     1       1.528  14.480  19.900  0.00  0.00    +0.000 C 
ATOM     15  C   UNL     1       2.254  14.850  21.207  0.00  0.00    +0.000 C 
ATOM     16  C   UNL     1       0.724  13.145  19.921  0.00  0.00    +0.000 C 
ATOM     17  C   UNL     1       1.534  12.223  19.039  0.00  0.00    +0.000 C 
ATOM     18  C   UNL     1       1.813  13.229  17.869  0.00  0.00    +0.000 C 
ATOM     19  C   UNL     1       2.503  14.385  18.627  0.00  0.00    +0.000 C 
ATOM     20  C   UNL     1       3.979  13.998  18.458  0.00  0.00    +0.000 C 
ATOM     21  C   UNL     1       4.799  15.200  18.803  0.00  0.00    +0.000 C 
ATOM     22  C   UNL     1       3.754  16.263  18.662  0.00  0.00    +0.000 C 
ATOM     23  O   UNL     1       3.913  17.442  18.965  0.00  0.00    +0.000 OA
ATOM     24  O   UNL     1       2.599  15.721  18.120  0.00  0.00    +0.000 OA
ATOM     25  C   UNL     1      -0.001  12.940  21.274  0.00  0.00    +0.000 C 
ENDROOT
BRANCH   1  26
ATOM     26  S   UNL     1       1.048  10.432  21.817  0.00  0.00    +0.000 S 
BRANCH  26  28
ATOM     27  C   UNL     1       1.357   7.949  20.699  0.00  0.00    +0.000 C 
ATOM     28  C   UNL     1       0.394   8.838  21.438  0.00  0.00    +0.000 C 
ATOM     29  O   UNL     1      -0.753   8.513  21.713  0.00  0.00    +0.000 OA
ENDBRANCH  26  28
ENDBRANCH   1  26
TORSDOF 2
ENDMDL
