MODEL 1
REMARK VINA RESULT:      -7.5      0.000      0.000
REMARK  Name = 
REMARK  1 active torsions:
REMARK  status: ('A' for Active; 'I' for Inactive)
REMARK    1  A    between atoms: C_6  and  C_7
REMARK                            x       y       z     vdW  Elec       q    Type
REMARK                         _______ _______ _______ _____ _____    ______ ____
ROOT
ATOM      1  O   UNL     1       8.211   4.308  17.526  0.00  0.00    +0.000 OA
ATOM      2  C   UNL     1       7.088   4.708  17.782  0.00  0.00    +0.000 C 
ATOM      3  N   UNL     1       6.201   4.173  18.711  0.00  0.00    +0.000 NA
ATOM      4  C   UNL     1       5.160   4.913  18.528  0.00  0.00    +0.000 C 
ATOM      5  S   UNL     1       3.685   5.046  19.402  0.00  0.00    +0.000 S 
ATOM      6  C   UNL     1       3.406   6.542  18.507  0.00  0.00    +0.000 C 
ATOM      7  N   UNL     1       4.248   6.794  17.547  0.00  0.00    +0.000 NA
ATOM      8  N   UNL     1       5.193   5.835  17.544  0.00  0.00    +0.000 N 
ATOM      9  C   UNL     1       6.458   5.951  17.086  0.00  0.00    +0.000 C 
ATOM     10  O   UNL     1       7.041   6.844  16.508  0.00  0.00    +0.000 OA
ENDROOT
BRANCH   6  11
ATOM     11  C   UNL     1       2.375   7.530  18.882  0.00  0.00    +0.000 A 
ATOM     12  C   UNL     1       1.884   7.694  20.181  0.00  0.00    +0.000 A 
ATOM     13  C   UNL     1       1.052   8.784  20.473  0.00  0.00    +0.000 A 
ATOM     14  C   UNL     1       0.710   9.697  19.474  0.00  0.00    +0.000 A 
ATOM     15 CL   UNL     1      -0.274  11.056  19.846  0.00  0.00    +0.000 Cl
ATOM     16  C   UNL     1       1.177   9.528  18.175  0.00  0.00    +0.000 A 
ATOM     17  C   UNL     1       2.000   8.445  17.881  0.00  0.00    +0.000 A 
ENDBRANCH   6  11
TORSDOF 1
ENDMDL
MODEL 2
REMARK VINA RESULT:      -7.4      4.246      5.033
REMARK  Name = 
REMARK  1 active torsions:
REMARK  status: ('A' for Active; 'I' for Inactive)
REMARK    1  A    between atoms: C_6  and  C_7
REMARK                            x       y       z     vdW  Elec       q    Type
REMARK                         _______ _______ _______ _____ _____    ______ ____
ROOT
ATOM      1  O   UNL     1       7.891   5.448  12.751  0.00  0.00    +0.000 OA
ATOM      2  C   UNL     1       7.376   5.121  13.806  0.00  0.00    +0.000 C 
ATOM      3  N   UNL     1       7.650   5.644  15.068  0.00  0.00    +0.000 NA
ATOM      4  C   UNL     1       6.899   4.910  15.818  0.00  0.00    +0.000 C 
ATOM      5  S   UNL     1       6.494   5.021  17.486  0.00  0.00    +0.000 S 
ATOM      6  C   UNL     1       5.201   3.868  17.145  0.00  0.00    +0.000 C 
ATOM      7  N   UNL     1       5.207   3.344  15.953  0.00  0.00    +0.000 NA
ATOM      8  N   UNL     1       6.204   3.906  15.244  0.00  0.00    +0.000 N 
ATOM      9  C   UNL     1       6.266   4.033  13.902  0.00  0.00    +0.000 C 
ATOM     10  O   UNL     1       5.551   3.633  13.007  0.00  0.00    +0.000 OA
ENDROOT
BRANCH   6  11
ATOM     11  C   UNL     1       4.093   3.594  18.081  0.00  0.00    +0.000 A 
ATOM     12  C   UNL     1       3.385   2.389  18.124  0.00  0.00    +0.000 A 
ATOM     13  C   UNL     1       2.482   2.153  19.171  0.00  0.00    +0.000 A 
ATOM     14  C   UNL     1       2.287   3.117  20.162  0.00  0.00    +0.000 A 
ATOM     15 CL   UNL     1       1.213   2.807  21.468  0.00  0.00    +0.000 Cl
ATOM     16  C   UNL     1       2.971   4.326  20.113  0.00  0.00    +0.000 A 
ATOM     17  C   UNL     1       3.864   4.565  19.073  0.00  0.00    +0.000 A 
ENDBRANCH   6  11
TORSDOF 1
ENDMDL
MODEL 3
REMARK VINA RESULT:      -7.3      4.529      4.938
REMARK  Name = 
REMARK  1 active torsions:
REMARK  status: ('A' for Active; 'I' for Inactive)
REMARK    1  A    between atoms: C_6  and  C_7
REMARK                            x       y       z     vdW  Elec       q    Type
REMARK                         _______ _______ _______ _____ _____    ______ ____
ROOT
ATOM      1  O   UNL     1       8.003   5.487  12.639  0.00  0.00    +0.000 OA
ATOM      2  C   UNL     1       7.478   5.132  13.680  0.00  0.00    +0.000 C 
ATOM      3  N   UNL     1       7.744   5.617  14.958  0.00  0.00    +0.000 NA
ATOM      4  C   UNL     1       6.984   4.865  15.681  0.00  0.00    +0.000 C 
ATOM      5  S   UNL     1       6.566   4.928  17.348  0.00  0.00    +0.000 S 
ATOM      6  C   UNL     1       5.272   3.790  16.964  0.00  0.00    +0.000 C 
ATOM      7  N   UNL     1       5.286   3.301  15.757  0.00  0.00    +0.000 NA
ATOM      8  N   UNL     1       6.291   3.880  15.073  0.00  0.00    +0.000 N 
ATOM      9  C   UNL     1       6.364   4.045  13.735  0.00  0.00    +0.000 C 
ATOM     10  O   UNL     1       5.655   3.673  12.824  0.00  0.00    +0.000 OA
ENDROOT
BRANCH   6  11
ATOM     11  C   UNL     1       4.155   3.493  17.882  0.00  0.00    +0.000 A 
ATOM     12  C   UNL     1       4.300   3.331  19.264  0.00  0.00    +0.000 A 
ATOM     13  C   UNL     1       3.159   3.243  20.074  0.00  0.00    +0.000 A 
ATOM     14  C   UNL     1       1.886   3.311  19.505  0.00  0.00    +0.000 A 
ATOM     15 CL   UNL     1       0.490   3.248  20.506  0.00  0.00    +0.000 Cl
ATOM     16  C   UNL     1       1.734   3.450  18.131  0.00  0.00    +0.000 A 
ATOM     17  C   UNL     1       2.865   3.533  17.324  0.00  0.00    +0.000 A 
ENDBRANCH   6  11
TORSDOF 1
ENDMDL
MODEL 4
REMARK VINA RESULT:      -7.1      0.344      1.222
REMARK  Name = 
REMARK  1 active torsions:
REMARK  status: ('A' for Active; 'I' for Inactive)
REMARK    1  A    between atoms: C_6  and  C_7
REMARK                            x       y       z     vdW  Elec       q    Type
REMARK                         _______ _______ _______ _____ _____    ______ ____
ROOT
ATOM      1  O   UNL     1       8.076   4.150  17.345  0.00  0.00    +0.000 OA
ATOM      2  C   UNL     1       7.001   4.641  17.642  0.00  0.00    +0.000 C 
ATOM      3  N   UNL     1       6.213   4.323  18.746  0.00  0.00    +0.000 NA
ATOM      4  C   UNL     1       5.177   5.065  18.544  0.00  0.00    +0.000 C 
ATOM      5  S   UNL     1       3.816   5.421  19.533  0.00  0.00    +0.000 S 
ATOM      6  C   UNL     1       3.473   6.741  18.413  0.00  0.00    +0.000 C 
ATOM      7  N   UNL     1       4.205   6.777  17.337  0.00  0.00    +0.000 NA
ATOM      8  N   UNL     1       5.120   5.791  17.409  0.00  0.00    +0.000 N 
ATOM      9  C   UNL     1       6.326   5.765  16.802  0.00  0.00    +0.000 C 
ATOM     10  O   UNL     1       6.860   6.511  16.010  0.00  0.00    +0.000 OA
ENDROOT
BRANCH   6  11
ATOM     11  C   UNL     1       2.518   7.827  18.709  0.00  0.00    +0.000 A 
ATOM     12  C   UNL     1       2.007   8.704  17.746  0.00  0.00    +0.000 A 
ATOM     13  C   UNL     1       0.963   9.574  18.088  0.00  0.00    +0.000 A 
ATOM     14  C   UNL     1       0.440   9.572  19.382  0.00  0.00    +0.000 A 
ATOM     15 CL   UNL     1      -0.871  10.609  19.785  0.00  0.00    +0.000 Cl
ATOM     16  C   UNL     1       0.957   8.718  20.350  0.00  0.00    +0.000 A 
ATOM     17  C   UNL     1       1.996   7.855  20.015  0.00  0.00    +0.000 A 
ENDBRANCH   6  11
TORSDOF 1
ENDMDL
MODEL 5
REMARK VINA RESULT:      -6.9      2.286      2.858
REMARK  Name = 
REMARK  1 active torsions:
REMARK  status: ('A' for Active; 'I' for Inactive)
REMARK    1  A    between atoms: C_6  and  C_7
REMARK                            x       y       z     vdW  Elec       q    Type
REMARK                         _______ _______ _______ _____ _____    ______ ____
ROOT
ATOM      1  O   UNL     1       5.173   1.523  20.392  0.00  0.00    +0.000 OA
ATOM      2  C   UNL     1       4.456   2.491  20.202  0.00  0.00    +0.000 C 
ATOM      3  N   UNL     1       3.203   2.727  20.763  0.00  0.00    +0.000 NA
ATOM      4  C   UNL     1       2.866   3.828  20.181  0.00  0.00    +0.000 C 
ATOM      5  S   UNL     1       1.551   4.904  20.448  0.00  0.00    +0.000 S 
ATOM      6  C   UNL     1       2.431   6.067  19.453  0.00  0.00    +0.000 C 
ATOM      7  N   UNL     1       3.497   5.613  18.859  0.00  0.00    +0.000 NA
ATOM      8  N   UNL     1       3.689   4.336  19.242  0.00  0.00    +0.000 N 
ATOM      9  C   UNL     1       4.864   3.673  19.274  0.00  0.00    +0.000 C 
ATOM     10  O   UNL     1       5.984   3.971  18.914  0.00  0.00    +0.000 OA
ENDROOT
BRANCH   6  11
ATOM     11  C   UNL     1       2.085   7.500  19.384  0.00  0.00    +0.000 A 
ATOM     12  C   UNL     1       2.178   8.273  18.222  0.00  0.00    +0.000 A 
ATOM     13  C   UNL     1       1.646   9.570  18.209  0.00  0.00    +0.000 A 
ATOM     14  C   UNL     1       1.032  10.090  19.350  0.00  0.00    +0.000 A 
ATOM     15 CL   UNL     1       0.341  11.664  19.316  0.00  0.00    +0.000 Cl
ATOM     16  C   UNL     1       0.956   9.336  20.515  0.00  0.00    +0.000 A 
ATOM     17  C   UNL     1       1.487   8.050  20.532  0.00  0.00    +0.000 A 
ENDBRANCH   6  11
TORSDOF 1
ENDMDL
MODEL 6
REMARK VINA RESULT:      -6.8      2.802      3.374
REMARK  Name = 
REMARK  1 active torsions:
REMARK  status: ('A' for Active; 'I' for Inactive)
REMARK    1  A    between atoms: C_6  and  C_7
REMARK                            x       y       z     vdW  Elec       q    Type
REMARK                         _______ _______ _______ _____ _____    ______ ____
ROOT
ATOM      1  O   UNL     1       3.711   1.075  18.558  0.00  0.00    +0.000 OA
ATOM      2  C   UNL     1       3.628   2.291  18.597  0.00  0.00    +0.000 C 
ATOM      3  N   UNL     1       4.139   3.194  17.669  0.00  0.00    +0.000 NA
ATOM      4  C   UNL     1       3.840   4.323  18.218  0.00  0.00    +0.000 C 
ATOM      5  S   UNL     1       3.941   5.938  17.636  0.00  0.00    +0.000 S 
ATOM      6  C   UNL     1       2.911   6.387  18.998  0.00  0.00    +0.000 C 
ATOM      7  N   UNL     1       2.680   5.446  19.868  0.00  0.00    +0.000 NA
ATOM      8  N   UNL     1       3.258   4.310  19.434  0.00  0.00    +0.000 N 
ATOM      9  C   UNL     1       2.882   3.049  19.735  0.00  0.00    +0.000 C 
ATOM     10  O   UNL     1       2.046   2.601  20.490  0.00  0.00    +0.000 OA
ENDROOT
BRANCH   6  11
ATOM     11  C   UNL     1       2.231   7.692  19.104  0.00  0.00    +0.000 A 
ATOM     12  C   UNL     1       1.989   8.539  18.017  0.00  0.00    +0.000 A 
ATOM     13  C   UNL     1       1.169   9.664  18.186  0.00  0.00    +0.000 A 
ATOM     14  C   UNL     1       0.602   9.941  19.432  0.00  0.00    +0.000 A 
ATOM     15 CL   UNL     1      -0.438  11.296  19.623  0.00  0.00    +0.000 Cl
ATOM     16  C   UNL     1       0.857   9.116  20.521  0.00  0.00    +0.000 A 
ATOM     17  C   UNL     1       1.673   8.001  20.358  0.00  0.00    +0.000 A 
ENDBRANCH   6  11
TORSDOF 1
ENDMDL
MODEL 7
REMARK VINA RESULT:      -6.8      5.076      6.502
REMARK  Name = 
REMARK  1 active torsions:
REMARK  status: ('A' for Active; 'I' for Inactive)
REMARK    1  A    between atoms: C_6  and  C_7
REMARK                            x       y       z     vdW  Elec       q    Type
REMARK                         _______ _______ _______ _____ _____    ______ ____
ROOT
ATOM      1  O   UNL     1       1.451   2.631  22.375  0.00  0.00    +0.000 OA
ATOM      2  C   UNL     1       1.881   2.939  21.277  0.00  0.00    +0.000 C 
ATOM      3  N   UNL     1       1.270   3.770  20.341  0.00  0.00    +0.000 NA
ATOM      4  C   UNL     1       2.097   3.698  19.354  0.00  0.00    +0.000 C 
ATOM      5  S   UNL     1       2.193   4.574  17.877  0.00  0.00    +0.000 S 
ATOM      6  C   UNL     1       3.824   3.919  17.711  0.00  0.00    +0.000 C 
ATOM      7  N   UNL     1       4.164   3.014  18.583  0.00  0.00    +0.000 NA
ATOM      8  N   UNL     1       3.155   2.868  19.463  0.00  0.00    +0.000 N 
ATOM      9  C   UNL     1       3.256   2.441  20.740  0.00  0.00    +0.000 C 
ATOM     10  O   UNL     1       4.185   2.011  21.389  0.00  0.00    +0.000 OA
ENDROOT
BRANCH   6  11
ATOM     11  C   UNL     1       4.809   4.436  16.741  0.00  0.00    +0.000 A 
ATOM     12  C   UNL     1       5.977   5.117  17.100  0.00  0.00    +0.000 A 
ATOM     13  C   UNL     1       6.942   5.398  16.123  0.00  0.00    +0.000 A 
ATOM     14  C   UNL     1       6.737   5.007  14.798  0.00  0.00    +0.000 A 
ATOM     15 CL   UNL     1       7.943   5.314  13.612  0.00  0.00    +0.000 Cl
ATOM     16  C   UNL     1       5.569   4.350  14.430  0.00  0.00    +0.000 A 
ATOM     17  C   UNL     1       4.608   4.073  15.398  0.00  0.00    +0.000 A 
ENDBRANCH   6  11
TORSDOF 1
ENDMDL
MODEL 8
REMARK VINA RESULT:      -6.7      3.511      4.440
REMARK  Name = 
REMARK  1 active torsions:
REMARK  status: ('A' for Active; 'I' for Inactive)
REMARK    1  A    between atoms: C_6  and  C_7
REMARK                            x       y       z     vdW  Elec       q    Type
REMARK                         _______ _______ _______ _____ _____    ______ ____
ROOT
ATOM      1  O   UNL     1       7.855   5.482  14.448  0.00  0.00    +0.000 OA
ATOM      2  C   UNL     1       7.032   5.486  15.347  0.00  0.00    +0.000 C 
ATOM      3  N   UNL     1       5.729   5.975  15.286  0.00  0.00    +0.000 NA
ATOM      4  C   UNL     1       5.334   5.803  16.502  0.00  0.00    +0.000 C 
ATOM      5  S   UNL     1       3.786   5.963  17.234  0.00  0.00    +0.000 S 
ATOM      6  C   UNL     1       4.458   5.089  18.612  0.00  0.00    +0.000 C 
ATOM      7  N   UNL     1       5.741   4.872  18.576  0.00  0.00    +0.000 NA
ATOM      8  N   UNL     1       6.219   5.331  17.404  0.00  0.00    +0.000 N 
ATOM      9  C   UNL     1       7.323   4.897  16.759  0.00  0.00    +0.000 C 
ATOM     10  O   UNL     1       8.188   4.102  17.058  0.00  0.00    +0.000 OA
ENDROOT
BRANCH   6  11
ATOM     11  C   UNL     1       3.628   4.512  19.688  0.00  0.00    +0.000 A 
ATOM     12  C   UNL     1       2.524   5.155  20.256  0.00  0.00    +0.000 A 
ATOM     13  C   UNL     1       1.687   4.450  21.132  0.00  0.00    +0.000 A 
ATOM     14  C   UNL     1       1.957   3.116  21.442  0.00  0.00    +0.000 A 
ATOM     15 CL   UNL     1       0.904   2.241  22.481  0.00  0.00    +0.000 Cl
ATOM     16  C   UNL     1       3.066   2.477  20.899  0.00  0.00    +0.000 A 
ATOM     17  C   UNL     1       3.900   3.175  20.032  0.00  0.00    +0.000 A 
ENDBRANCH   6  11
TORSDOF 1
ENDMDL
MODEL 9
REMARK VINA RESULT:      -6.7      3.991      4.890
REMARK  Name = 
REMARK  1 active torsions:
REMARK  status: ('A' for Active; 'I' for Inactive)
REMARK    1  A    between atoms: C_6  and  C_7
REMARK                            x       y       z     vdW  Elec       q    Type
REMARK                         _______ _______ _______ _____ _____    ______ ____
ROOT
ATOM      1  O   UNL     1       7.828   4.855  11.782  0.00  0.00    +0.000 OA
ATOM      2  C   UNL     1       7.287   4.765  12.871  0.00  0.00    +0.000 C 
ATOM      3  N   UNL     1       7.601   5.481  14.023  0.00  0.00    +0.000 NA
ATOM      4  C   UNL     1       6.792   4.955  14.880  0.00  0.00    +0.000 C 
ATOM      5  S   UNL     1       6.395   5.394  16.495  0.00  0.00    +0.000 S 
ATOM      6  C   UNL     1       5.015   4.304  16.346  0.00  0.00    +0.000 C 
ATOM      7  N   UNL     1       4.980   3.576  15.266  0.00  0.00    +0.000 NA
ATOM      8  N   UNL     1       6.020   3.922  14.484  0.00  0.00    +0.000 N 
ATOM      9  C   UNL     1       6.094   3.801  13.141  0.00  0.00    +0.000 C 
ATOM     10  O   UNL     1       5.351   3.305  12.322  0.00  0.00    +0.000 OA
ENDROOT
BRANCH   6  11
ATOM     11  C   UNL     1       3.887   4.289  17.298  0.00  0.00    +0.000 A 
ATOM     12  C   UNL     1       2.956   3.250  17.392  0.00  0.00    +0.000 A 
ATOM     13  C   UNL     1       2.039   3.237  18.453  0.00  0.00    +0.000 A 
ATOM     14  C   UNL     1       2.051   4.257  19.406  0.00  0.00    +0.000 A 
ATOM     15 CL   UNL     1       0.955   4.214  20.730  0.00  0.00    +0.000 Cl
ATOM     16  C   UNL     1       2.959   5.304  19.306  0.00  0.00    +0.000 A 
ATOM     17  C   UNL     1       3.868   5.322  18.252  0.00  0.00    +0.000 A 
ENDBRANCH   6  11
TORSDOF 1
ENDMDL
