MODEL 1
REMARK VINA RESULT:      -8.6      0.000      0.000
REMARK  Name = 
REMARK  8 active torsions:
REMARK  status: ('A' for Active; 'I' for Inactive)
REMARK    1  A    between atoms: C_1  and  C_2
REMARK    2  A    between atoms: C_3  and  C_4
REMARK    3  A    between atoms: N_6  and  C_7
REMARK    4  A    between atoms: C_7  and  C_8
REMARK    5  A    between atoms: C_8  and  C_9
REMARK    6  A    between atoms: N_12  and  C_13
REMARK    7  A    between atoms: C_23  and  N_24
REMARK    8  A    between atoms: C_25  and  C_27
REMARK                            x       y       z     vdW  Elec       q    Type
REMARK                         _______ _______ _______ _____ _____    ______ ____
ROOT
ATOM      1  C   UNL     1       7.341   5.615  19.793  0.00  0.00    +0.000 C 
ATOM      2  C   UNL     1       7.442   6.215  18.438  0.00  0.00    +0.000 A 
ATOM      3  C   UNL     1       6.921   5.713  17.198  0.00  0.00    +0.000 A 
ATOM      4  N   UNL     1       7.219   6.535  16.170  0.00  0.00    +0.000 NA
ATOM      5  N   UNL     1       7.889   7.541  16.746  0.00  0.00    +0.000 N 
ATOM      6  C   UNL     1       8.058   7.402  18.098  0.00  0.00    +0.000 A 
ATOM      7  H   UNL     1       8.225   8.317  16.181  0.00  0.00    +0.000 HD
ENDROOT
BRANCH   3   8
ATOM      8  C   UNL     1       6.142   4.484  16.954  0.00  0.00    +0.000 C 
ATOM      9  O   UNL     1       6.528   3.568  16.234  0.00  0.00    +0.000 OA
ATOM     10  N   UNL     1       4.939   4.471  17.629  0.00  0.00    +0.000 N 
ATOM     11  H   UNL     1       4.769   5.284  18.216  0.00  0.00    +0.000 HD
BRANCH  10  12
ATOM     12  C   UNL     1       4.053   3.333  17.648  0.00  0.00    +0.000 C 
BRANCH  12  13
ATOM     13  C   UNL     1       2.719   3.696  18.289  0.00  0.00    +0.000 C 
BRANCH  13  14
ATOM     14  C   UNL     1       2.704   5.029  19.045  0.00  0.00    +0.000 C 
ATOM     15  C   UNL     1       2.369   6.219  18.134  0.00  0.00    +0.000 C 
ATOM     16  C   UNL     1       2.545   7.531  18.893  0.00  0.00    +0.000 C 
ATOM     17  N   UNL     1       1.690   7.499  20.080  0.00  0.00    +0.000 N 
ATOM     18  C   UNL     1       1.918   6.383  21.010  0.00  0.00    +0.000 C 
ATOM     19  C   UNL     1       1.757   5.056  20.256  0.00  0.00    +0.000 C 
BRANCH  17  20
ATOM     20  C   UNL     1       1.073   8.662  20.523  0.00  0.00    +0.000 A 
ATOM     21  C   UNL     1       0.778   8.844  21.877  0.00  0.00    +0.000 A 
ATOM     22  C   UNL     1       0.068   9.965  22.284  0.00  0.00    +0.000 A 
ATOM     23  N   UNL     1      -0.367  10.927  21.447  0.00  0.00    +0.000 NA
ATOM     24  C   UNL     1      -0.073  10.751  20.146  0.00  0.00    +0.000 A 
ATOM     25  C   UNL     1       0.633   9.663  19.652  0.00  0.00    +0.000 A 
ENDBRANCH  17  20
ENDBRANCH  13  14
ENDBRANCH  12  13
ENDBRANCH  10  12
ENDBRANCH   3   8
BRANCH   6  26
ATOM     26  N   UNL     1       8.732   8.326  18.878  0.00  0.00    +0.000 N 
ATOM     27  C   UNL     1       8.683   9.679  18.584  0.00  0.00    +0.000 C 
ATOM     28  O   UNL     1       7.997  10.155  17.680  0.00  0.00    +0.000 OA
ATOM     29  H   UNL     1       9.300   7.986  19.646  0.00  0.00    +0.000 HD
BRANCH  27  30
ATOM     30  C   UNL     1       9.476  10.613  19.429  0.00  0.00    +0.000 A 
ATOM     31  C   UNL     1       9.036  10.754  20.759  0.00  0.00    +0.000 A 
ATOM     32  C   UNL     1       9.629  11.677  21.621  0.00  0.00    +0.000 A 
ATOM     33  C   UNL     1      10.672  12.475  21.164  0.00  0.00    +0.000 A 
ATOM     34  C   UNL     1      11.132  12.334  19.854  0.00  0.00    +0.000 A 
ATOM     35  C   UNL     1      10.542  11.407  18.983  0.00  0.00    +0.000 A 
ATOM     36 CL   UNL     1      11.165  11.356  17.372  0.00  0.00    +0.000 Cl
ENDBRANCH  27  30
ENDBRANCH   6  26
TORSDOF 7
ENDMDL
MODEL 2
REMARK VINA RESULT:      -8.0      4.678      7.874
REMARK  Name = 
REMARK  8 active torsions:
REMARK  status: ('A' for Active; 'I' for Inactive)
REMARK    1  A    between atoms: C_1  and  C_2
REMARK    2  A    between atoms: C_3  and  C_4
REMARK    3  A    between atoms: N_6  and  C_7
REMARK    4  A    between atoms: C_7  and  C_8
REMARK    5  A    between atoms: C_8  and  C_9
REMARK    6  A    between atoms: N_12  and  C_13
REMARK    7  A    between atoms: C_23  and  N_24
REMARK    8  A    between atoms: C_25  and  C_27
REMARK                            x       y       z     vdW  Elec       q    Type
REMARK                         _______ _______ _______ _____ _____    ______ ____
ROOT
ATOM      1  C   UNL     1       2.521   7.923  18.325  0.00  0.00    +0.000 C 
ATOM      2  C   UNL     1       1.747   8.048  19.587  0.00  0.00    +0.000 A 
ATOM      3  C   UNL     1       1.484   7.042  20.577  0.00  0.00    +0.000 A 
ATOM      4  N   UNL     1       0.736   7.530  21.589  0.00  0.00    +0.000 NA
ATOM      5  N   UNL     1       0.549   8.814  21.260  0.00  0.00    +0.000 N 
ATOM      6  C   UNL     1       1.125   9.180  20.073  0.00  0.00    +0.000 A 
ATOM      7  H   UNL     1       0.014   9.423  21.874  0.00  0.00    +0.000 HD
ENDROOT
BRANCH   3   8
ATOM      8  C   UNL     1       1.927   5.635  20.603  0.00  0.00    +0.000 C 
ATOM      9  O   UNL     1       3.106   5.295  20.603  0.00  0.00    +0.000 OA
ATOM     10  N   UNL     1       0.875   4.743  20.637  0.00  0.00    +0.000 N 
ATOM     11  H   UNL     1      -0.048   5.171  20.668  0.00  0.00    +0.000 HD
BRANCH  10  12
ATOM     12  C   UNL     1       1.047   3.320  20.785  0.00  0.00    +0.000 C 
BRANCH  12  13
ATOM     13  C   UNL     1       0.763   2.599  19.472  0.00  0.00    +0.000 C 
BRANCH  13  14
ATOM     14  C   UNL     1       1.912   2.627  18.457  0.00  0.00    +0.000 C 
ATOM     15  C   UNL     1       1.897   3.890  17.586  0.00  0.00    +0.000 C 
ATOM     16  C   UNL     1       2.944   3.783  16.481  0.00  0.00    +0.000 C 
ATOM     17  N   UNL     1       4.252   3.566  17.100  0.00  0.00    +0.000 N 
ATOM     18  C   UNL     1       4.365   2.388  17.974  0.00  0.00    +0.000 C 
ATOM     19  C   UNL     1       3.308   2.477  19.083  0.00  0.00    +0.000 C 
BRANCH  17  20
ATOM     20  C   UNL     1       5.390   4.128  16.537  0.00  0.00    +0.000 A 
ATOM     21  C   UNL     1       6.135   5.084  17.232  0.00  0.00    +0.000 A 
ATOM     22  C   UNL     1       7.207   5.710  16.611  0.00  0.00    +0.000 A 
ATOM     23  N   UNL     1       7.602   5.452  15.349  0.00  0.00    +0.000 NA
ATOM     24  C   UNL     1       6.887   4.525  14.686  0.00  0.00    +0.000 A 
ATOM     25  C   UNL     1       5.802   3.850  15.230  0.00  0.00    +0.000 A 
ENDBRANCH  17  20
ENDBRANCH  13  14
ENDBRANCH  12  13
ENDBRANCH  10  12
ENDBRANCH   3   8
BRANCH   6  26
ATOM     26  N   UNL     1       1.039  10.459  19.549  0.00  0.00    +0.000 N 
ATOM     27  C   UNL     1       1.013  11.568  20.378  0.00  0.00    +0.000 C 
ATOM     28  O   UNL     1       1.137  11.509  21.601  0.00  0.00    +0.000 OA
ATOM     29  H   UNL     1       0.950  10.564  18.544  0.00  0.00    +0.000 HD
BRANCH  27  30
ATOM     30  C   UNL     1       0.862  12.912  19.752  0.00  0.00    +0.000 A 
ATOM     31  C   UNL     1       2.041  13.474  19.226  0.00  0.00    +0.000 A 
ATOM     32  C   UNL     1       2.053  14.770  18.709  0.00  0.00    +0.000 A 
ATOM     33  C   UNL     1       0.885  15.524  18.712  0.00  0.00    +0.000 A 
ATOM     34  C   UNL     1      -0.296  14.974  19.214  0.00  0.00    +0.000 A 
ATOM     35  C   UNL     1      -0.316  13.671  19.733  0.00  0.00    +0.000 A 
ATOM     36 CL   UNL     1      -1.823  13.116  20.368  0.00  0.00    +0.000 Cl
ENDBRANCH  27  30
ENDBRANCH   6  26
TORSDOF 7
ENDMDL
MODEL 3
REMARK VINA RESULT:      -7.7      4.771      9.682
REMARK  Name = 
REMARK  8 active torsions:
REMARK  status: ('A' for Active; 'I' for Inactive)
REMARK    1  A    between atoms: C_1  and  C_2
REMARK    2  A    between atoms: C_3  and  C_4
REMARK    3  A    between atoms: N_6  and  C_7
REMARK    4  A    between atoms: C_7  and  C_8
REMARK    5  A    between atoms: C_8  and  C_9
REMARK    6  A    between atoms: N_12  and  C_13
REMARK    7  A    between atoms: C_23  and  N_24
REMARK    8  A    between atoms: C_25  and  C_27
REMARK                            x       y       z     vdW  Elec       q    Type
REMARK                         _______ _______ _______ _____ _____    ______ ____
ROOT
ATOM      1  C   UNL     1       0.297   9.206  20.972  0.00  0.00    +0.000 C 
ATOM      2  C   UNL     1       1.127   9.167  19.742  0.00  0.00    +0.000 A 
ATOM      3  C   UNL     1       1.259  10.169  18.721  0.00  0.00    +0.000 A 
ATOM      4  N   UNL     1       2.106   9.771  17.748  0.00  0.00    +0.000 NA
ATOM      5  N   UNL     1       2.516   8.562  18.152  0.00  0.00    +0.000 N 
ATOM      6  C   UNL     1       1.962   8.146  19.333  0.00  0.00    +0.000 A 
ATOM      7  H   UNL     1       3.182   8.038  17.590  0.00  0.00    +0.000 HD
ENDROOT
BRANCH   3   8
ATOM      8  C   UNL     1       0.618  11.495  18.641  0.00  0.00    +0.000 C 
ATOM      9  O   UNL     1      -0.595  11.657  18.551  0.00  0.00    +0.000 OA
ATOM     10  N   UNL     1       1.526  12.532  18.688  0.00  0.00    +0.000 N 
ATOM     11  H   UNL     1       2.497  12.247  18.800  0.00  0.00    +0.000 HD
BRANCH  10  12
ATOM     12  C   UNL     1       1.142  13.920  18.746  0.00  0.00    +0.000 C 
BRANCH  12  13
ATOM     13  C   UNL     1       2.030  14.689  19.718  0.00  0.00    +0.000 C 
BRANCH  13  14
ATOM     14  C   UNL     1       3.534  14.595  19.434  0.00  0.00    +0.000 C 
ATOM     15  C   UNL     1       3.900  15.099  18.031  0.00  0.00    +0.000 C 
ATOM     16  C   UNL     1       5.370  14.817  17.735  0.00  0.00    +0.000 C 
ATOM     17  N   UNL     1       6.183  15.456  18.770  0.00  0.00    +0.000 N 
ATOM     18  C   UNL     1       5.895  15.056  20.155  0.00  0.00    +0.000 C 
ATOM     19  C   UNL     1       4.415  15.323  20.462  0.00  0.00    +0.000 C 
BRANCH  17  20
ATOM     20  C   UNL     1       7.416  16.007  18.445  0.00  0.00    +0.000 A 
ATOM     21  C   UNL     1       8.477  15.195  18.037  0.00  0.00    +0.000 A 
ATOM     22  C   UNL     1       9.729  15.754  17.817  0.00  0.00    +0.000 A 
ATOM     23  N   UNL     1      10.006  17.064  17.965  0.00  0.00    +0.000 NA
ATOM     24  C   UNL     1       8.978  17.843  18.350  0.00  0.00    +0.000 A 
ATOM     25  C   UNL     1       7.696  17.370  18.589  0.00  0.00    +0.000 A 
ENDBRANCH  17  20
ENDBRANCH  13  14
ENDBRANCH  12  13
ENDBRANCH  10  12
ENDBRANCH   3   8
BRANCH   6  26
ATOM     26  N   UNL     1       2.245   6.924  19.916  0.00  0.00    +0.000 N 
ATOM     27  C   UNL     1       2.257   5.761  19.163  0.00  0.00    +0.000 C 
ATOM     28  O   UNL     1       2.096   5.736  17.943  0.00  0.00    +0.000 OA
ATOM     29  H   UNL     1       2.401   6.891  20.917  0.00  0.00    +0.000 HD
BRANCH  27  30
ATOM     30  C   UNL     1       2.514   4.471  19.863  0.00  0.00    +0.000 A 
ATOM     31  C   UNL     1       1.534   4.079  20.796  0.00  0.00    +0.000 A 
ATOM     32  C   UNL     1       1.708   2.946  21.591  0.00  0.00    +0.000 A 
ATOM     33  C   UNL     1       2.867   2.188  21.466  0.00  0.00    +0.000 A 
ATOM     34  C   UNL     1       3.839   2.553  20.533  0.00  0.00    +0.000 A 
ATOM     35  C   UNL     1       3.669   3.690  19.728  0.00  0.00    +0.000 A 
ATOM     36 CL   UNL     1       4.960   4.067  18.644  0.00  0.00    +0.000 Cl
ENDBRANCH  27  30
ENDBRANCH   6  26
TORSDOF 7
ENDMDL
MODEL 4
REMARK VINA RESULT:      -7.7      4.720      8.528
REMARK  Name = 
REMARK  8 active torsions:
REMARK  status: ('A' for Active; 'I' for Inactive)
REMARK    1  A    between atoms: C_1  and  C_2
REMARK    2  A    between atoms: C_3  and  C_4
REMARK    3  A    between atoms: N_6  and  C_7
REMARK    4  A    between atoms: C_7  and  C_8
REMARK    5  A    between atoms: C_8  and  C_9
REMARK    6  A    between atoms: N_12  and  C_13
REMARK    7  A    between atoms: C_23  and  N_24
REMARK    8  A    between atoms: C_25  and  C_27
REMARK                            x       y       z     vdW  Elec       q    Type
REMARK                         _______ _______ _______ _____ _____    ______ ____
ROOT
ATOM      1  C   UNL     1       1.851   9.515  17.872  0.00  0.00    +0.000 C 
ATOM      2  C   UNL     1       1.853   8.539  18.991  0.00  0.00    +0.000 A 
ATOM      3  C   UNL     1       1.297   8.688  20.306  0.00  0.00    +0.000 A 
ATOM      4  N   UNL     1       1.500   7.582  21.054  0.00  0.00    +0.000 NA
ATOM      5  N   UNL     1       2.146   6.750  20.229  0.00  0.00    +0.000 N 
ATOM      6  C   UNL     1       2.389   7.267  18.985  0.00  0.00    +0.000 A 
ATOM      7  H   UNL     1       2.413   5.822  20.550  0.00  0.00    +0.000 HD
ENDROOT
BRANCH   3   8
ATOM      8  C   UNL     1       0.570   9.838  20.877  0.00  0.00    +0.000 C 
ATOM      9  O   UNL     1       0.823  10.323  21.975  0.00  0.00    +0.000 OA
ATOM     10  N   UNL     1      -0.418  10.315  20.039  0.00  0.00    +0.000 N 
ATOM     11  H   UNL     1      -0.489   9.835  19.145  0.00  0.00    +0.000 HD
BRANCH  10  12
ATOM     12  C   UNL     1      -1.186  11.502  20.317  0.00  0.00    +0.000 C 
BRANCH  12  13
ATOM     13  C   UNL     1      -0.752  12.652  19.415  0.00  0.00    +0.000 C 
BRANCH  13  14
ATOM     14  C   UNL     1       0.311  13.580  20.015  0.00  0.00    +0.000 C 
ATOM     15  C   UNL     1       1.739  13.080  19.762  0.00  0.00    +0.000 C 
ATOM     16  C   UNL     1       2.743  13.936  20.529  0.00  0.00    +0.000 C 
ATOM     17  N   UNL     1       2.575  15.330  20.117  0.00  0.00    +0.000 N 
ATOM     18  C   UNL     1       1.232  15.899  20.300  0.00  0.00    +0.000 C 
ATOM     19  C   UNL     1       0.210  15.040  19.544  0.00  0.00    +0.000 C 
BRANCH  17  20
ATOM     20  C   UNL     1       3.681  16.165  20.024  0.00  0.00    +0.000 A 
ATOM     21  C   UNL     1       3.866  17.210  20.933  0.00  0.00    +0.000 A 
ATOM     22  C   UNL     1       4.921  18.096  20.760  0.00  0.00    +0.000 A 
ATOM     23  N   UNL     1       5.813  18.019  19.754  0.00  0.00    +0.000 NA
ATOM     24  C   UNL     1       5.635  17.006  18.886  0.00  0.00    +0.000 A 
ATOM     25  C   UNL     1       4.610  16.075  18.983  0.00  0.00    +0.000 A 
ENDBRANCH  17  20
ENDBRANCH  13  14
ENDBRANCH  12  13
ENDBRANCH  10  12
ENDBRANCH   3   8
BRANCH   6  26
ATOM     26  N   UNL     1       3.054   6.572  17.990  0.00  0.00    +0.000 N 
ATOM     27  C   UNL     1       4.206   5.855  18.269  0.00  0.00    +0.000 C 
ATOM     28  O   UNL     1       4.670   5.723  19.401  0.00  0.00    +0.000 OA
ATOM     29  H   UNL     1       2.703   6.635  17.041  0.00  0.00    +0.000 HD
BRANCH  27  30
ATOM     30  C   UNL     1       4.904   5.176  17.141  0.00  0.00    +0.000 A 
ATOM     31  C   UNL     1       5.666   6.014  16.304  0.00  0.00    +0.000 A 
ATOM     32  C   UNL     1       6.281   5.518  15.155  0.00  0.00    +0.000 A 
ATOM     33  C   UNL     1       6.143   4.174  14.824  0.00  0.00    +0.000 A 
ATOM     34  C   UNL     1       5.405   3.327  15.654  0.00  0.00    +0.000 A 
ATOM     35  C   UNL     1       4.786   3.819  16.812  0.00  0.00    +0.000 A 
ATOM     36 CL   UNL     1       3.863   2.687  17.734  0.00  0.00    +0.000 Cl
ENDBRANCH  27  30
ENDBRANCH   6  26
TORSDOF 7
ENDMDL
MODEL 5
REMARK VINA RESULT:      -7.7      4.693      9.657
REMARK  Name = 
REMARK  8 active torsions:
REMARK  status: ('A' for Active; 'I' for Inactive)
REMARK    1  A    between atoms: C_1  and  C_2
REMARK    2  A    between atoms: C_3  and  C_4
REMARK    3  A    between atoms: N_6  and  C_7
REMARK    4  A    between atoms: C_7  and  C_8
REMARK    5  A    between atoms: C_8  and  C_9
REMARK    6  A    between atoms: N_12  and  C_13
REMARK    7  A    between atoms: C_23  and  N_24
REMARK    8  A    between atoms: C_25  and  C_27
REMARK                            x       y       z     vdW  Elec       q    Type
REMARK                         _______ _______ _______ _____ _____    ______ ____
ROOT
ATOM      1  C   UNL     1       1.026   9.597  18.254  0.00  0.00    +0.000 C 
ATOM      2  C   UNL     1       1.229   9.177  19.664  0.00  0.00    +0.000 A 
ATOM      3  C   UNL     1       0.906   9.895  20.865  0.00  0.00    +0.000 A 
ATOM      4  N   UNL     1       1.244   9.190  21.966  0.00  0.00    +0.000 NA
ATOM      5  N   UNL     1       1.745   8.049  21.476  0.00  0.00    +0.000 N 
ATOM      6  C   UNL     1       1.766   7.986  20.109  0.00  0.00    +0.000 A 
ATOM      7  H   UNL     1       2.071   7.324  22.111  0.00  0.00    +0.000 HD
ENDROOT
BRANCH   3   8
ATOM      8  C   UNL     1       0.279  11.223  21.006  0.00  0.00    +0.000 C 
ATOM      9  O   UNL     1      -0.917  11.387  21.229  0.00  0.00    +0.000 OA
ATOM     10  N   UNL     1       1.181  12.258  20.870  0.00  0.00    +0.000 N 
ATOM     11  H   UNL     1       2.145  11.968  20.722  0.00  0.00    +0.000 HD
BRANCH  10  12
ATOM     12  C   UNL     1       0.837  13.641  21.083  0.00  0.00    +0.000 C 
BRANCH  12  13
ATOM     13  C   UNL     1       0.625  14.358  19.754  0.00  0.00    +0.000 C 
BRANCH  13  14
ATOM     14  C   UNL     1       1.840  15.137  19.237  0.00  0.00    +0.000 C 
ATOM     15  C   UNL     1       2.825  15.501  20.357  0.00  0.00    +0.000 C 
ATOM     16  C   UNL     1       3.916  16.424  19.822  0.00  0.00    +0.000 C 
ATOM     17  N   UNL     1       4.585  15.755  18.706  0.00  0.00    +0.000 N 
ATOM     18  C   UNL     1       3.723  15.346  17.588  0.00  0.00    +0.000 C 
ATOM     19  C   UNL     1       2.613  14.426  18.115  0.00  0.00    +0.000 C 
BRANCH  17  20
ATOM     20  C   UNL     1       5.949  15.929  18.509  0.00  0.00    +0.000 A 
ATOM     21  C   UNL     1       6.741  14.884  18.028  0.00  0.00    +0.000 A 
ATOM     22  C   UNL     1       8.117  15.045  17.936  0.00  0.00    +0.000 A 
ATOM     23  N   UNL     1       8.768  16.174  18.281  0.00  0.00    +0.000 NA
ATOM     24  C   UNL     1       8.000  17.180  18.737  0.00  0.00    +0.000 A 
ATOM     25  C   UNL     1       6.619  17.106  18.859  0.00  0.00    +0.000 A 
ENDBRANCH  17  20
ENDBRANCH  13  14
ENDBRANCH  12  13
ENDBRANCH  10  12
ENDBRANCH   3   8
BRANCH   6  26
ATOM     26  N   UNL     1       2.255   6.898  19.407  0.00  0.00    +0.000 N 
ATOM     27  C   UNL     1       1.997   5.603  19.827  0.00  0.00    +0.000 C 
ATOM     28  O   UNL     1       1.273   5.329  20.783  0.00  0.00    +0.000 OA
ATOM     29  H   UNL     1       2.846   7.069  18.600  0.00  0.00    +0.000 HD
BRANCH  27  30
ATOM     30  C   UNL     1       2.600   4.479  19.058  0.00  0.00    +0.000 A 
ATOM     31  C   UNL     1       1.695   3.506  18.591  0.00  0.00    +0.000 A 
ATOM     32  C   UNL     1       2.145   2.351  17.951  0.00  0.00    +0.000 A 
ATOM     33  C   UNL     1       3.508   2.152  17.768  0.00  0.00    +0.000 A 
ATOM     34  C   UNL     1       4.417   3.115  18.209  0.00  0.00    +0.000 A 
ATOM     35  C   UNL     1       3.972   4.280  18.852  0.00  0.00    +0.000 A 
ATOM     36 CL   UNL     1       5.191   5.376  19.395  0.00  0.00    +0.000 Cl
ENDBRANCH  27  30
ENDBRANCH   6  26
TORSDOF 7
ENDMDL
MODEL 6
REMARK VINA RESULT:      -7.7      4.738      7.151
REMARK  Name = 
REMARK  8 active torsions:
REMARK  status: ('A' for Active; 'I' for Inactive)
REMARK    1  A    between atoms: C_1  and  C_2
REMARK    2  A    between atoms: C_3  and  C_4
REMARK    3  A    between atoms: N_6  and  C_7
REMARK    4  A    between atoms: C_7  and  C_8
REMARK    5  A    between atoms: C_8  and  C_9
REMARK    6  A    between atoms: N_12  and  C_13
REMARK    7  A    between atoms: C_23  and  N_24
REMARK    8  A    between atoms: C_25  and  C_27
REMARK                            x       y       z     vdW  Elec       q    Type
REMARK                         _______ _______ _______ _____ _____    ______ ____
ROOT
ATOM      1  C   UNL     1       2.505   3.795  17.159  0.00  0.00    +0.000 C 
ATOM      2  C   UNL     1       3.745   4.394  17.715  0.00  0.00    +0.000 A 
ATOM      3  C   UNL     1       3.933   5.043  18.982  0.00  0.00    +0.000 A 
ATOM      4  N   UNL     1       5.205   5.466  19.135  0.00  0.00    +0.000 NA
ATOM      5  N   UNL     1       5.812   5.076  18.007  0.00  0.00    +0.000 N 
ATOM      6  C   UNL     1       4.990   4.435  17.120  0.00  0.00    +0.000 A 
ATOM      7  H   UNL     1       6.802   5.267  17.870  0.00  0.00    +0.000 HD
ENDROOT
BRANCH   3   8
ATOM      8  C   UNL     1       2.949   5.268  20.059  0.00  0.00    +0.000 C 
ATOM      9  O   UNL     1       2.810   4.516  21.018  0.00  0.00    +0.000 OA
ATOM     10  N   UNL     1       2.210   6.419  19.876  0.00  0.00    +0.000 N 
ATOM     11  H   UNL     1       2.460   6.962  19.053  0.00  0.00    +0.000 HD
BRANCH  10  12
ATOM     12  C   UNL     1       1.270   6.919  20.848  0.00  0.00    +0.000 C 
BRANCH  12  13
ATOM     13  C   UNL     1       1.611   8.351  21.244  0.00  0.00    +0.000 C 
BRANCH  13  14
ATOM     14  C   UNL     1       0.401   9.249  21.530  0.00  0.00    +0.000 C 
ATOM     15  C   UNL     1       0.205   9.512  23.030  0.00  0.00    +0.000 C 
ATOM     16  C   UNL     1      -1.106  10.255  23.269  0.00  0.00    +0.000 C 
ATOM     17  N   UNL     1      -1.082  11.498  22.498  0.00  0.00    +0.000 N 
ATOM     18  C   UNL     1      -0.878  11.356  21.049  0.00  0.00    +0.000 C 
ATOM     19  C   UNL     1       0.432  10.599  20.795  0.00  0.00    +0.000 C 
BRANCH  17  20
ATOM     20  C   UNL     1      -1.677  12.645  23.010  0.00  0.00    +0.000 A 
ATOM     21  C   UNL     1      -0.918  13.788  23.272  0.00  0.00    +0.000 A 
ATOM     22  C   UNL     1      -1.511  14.886  23.880  0.00  0.00    +0.000 A 
ATOM     23  N   UNL     1      -2.808  14.938  24.243  0.00  0.00    +0.000 NA
ATOM     24  C   UNL     1      -3.536  13.837  23.982  0.00  0.00    +0.000 A 
ATOM     25  C   UNL     1      -3.026  12.697  23.376  0.00  0.00    +0.000 A 
ENDBRANCH  17  20
ENDBRANCH  13  14
ENDBRANCH  12  13
ENDBRANCH  10  12
ENDBRANCH   3   8
BRANCH   6  26
ATOM     26  N   UNL     1       5.419   3.963  15.891  0.00  0.00    +0.000 N 
ATOM     27  C   UNL     1       5.592   4.822  14.818  0.00  0.00    +0.000 C 
ATOM     28  O   UNL     1       5.454   6.043  14.893  0.00  0.00    +0.000 OA
ATOM     29  H   UNL     1       5.562   2.965  15.781  0.00  0.00    +0.000 HD
BRANCH  27  30
ATOM     30  C   UNL     1       6.001   4.241  13.509  0.00  0.00    +0.000 A 
ATOM     31  C   UNL     1       5.129   3.274  12.973  0.00  0.00    +0.000 A 
ATOM     32  C   UNL     1       5.451   2.581  11.806  0.00  0.00    +0.000 A 
ATOM     33  C   UNL     1       6.653   2.844  11.158  0.00  0.00    +0.000 A 
ATOM     34  C   UNL     1       7.519   3.813  11.667  0.00  0.00    +0.000 A 
ATOM     35  C   UNL     1       7.200   4.515  12.838  0.00  0.00    +0.000 A 
ATOM     36 CL   UNL     1       8.371   5.656  13.397  0.00  0.00    +0.000 Cl
ENDBRANCH  27  30
ENDBRANCH   6  26
TORSDOF 7
ENDMDL
MODEL 7
REMARK VINA RESULT:      -7.7      4.708      7.178
REMARK  Name = 
REMARK  8 active torsions:
REMARK  status: ('A' for Active; 'I' for Inactive)
REMARK    1  A    between atoms: C_1  and  C_2
REMARK    2  A    between atoms: C_3  and  C_4
REMARK    3  A    between atoms: N_6  and  C_7
REMARK    4  A    between atoms: C_7  and  C_8
REMARK    5  A    between atoms: C_8  and  C_9
REMARK    6  A    between atoms: N_12  and  C_13
REMARK    7  A    between atoms: C_23  and  N_24
REMARK    8  A    between atoms: C_25  and  C_27
REMARK                            x       y       z     vdW  Elec       q    Type
REMARK                         _______ _______ _______ _____ _____    ______ ____
ROOT
ATOM      1  C   UNL     1       2.482   3.936  17.149  0.00  0.00    +0.000 C 
ATOM      2  C   UNL     1       3.746   4.550  17.628  0.00  0.00    +0.000 A 
ATOM      3  C   UNL     1       3.983   5.274  18.846  0.00  0.00    +0.000 A 
ATOM      4  N   UNL     1       5.265   5.688  18.932  0.00  0.00    +0.000 NA
ATOM      5  N   UNL     1       5.829   5.220  17.811  0.00  0.00    +0.000 N 
ATOM      6  C   UNL     1       4.971   4.538  16.992  0.00  0.00    +0.000 A 
ATOM      7  H   UNL     1       6.816   5.389  17.631  0.00  0.00    +0.000 HD
ENDROOT
BRANCH   3   8
ATOM      8  C   UNL     1       3.038   5.578  19.937  0.00  0.00    +0.000 C 
ATOM      9  O   UNL     1       2.739   4.777  20.818  0.00  0.00    +0.000 OA
ATOM     10  N   UNL     1       2.534   6.860  19.867  0.00  0.00    +0.000 N 
ATOM     11  H   UNL     1       2.899   7.422  19.101  0.00  0.00    +0.000 HD
BRANCH  10  12
ATOM     12  C   UNL     1       1.686   7.435  20.881  0.00  0.00    +0.000 C 
BRANCH  12  13
ATOM     13  C   UNL     1       0.852   8.575  20.308  0.00  0.00    +0.000 C 
BRANCH  13  14
ATOM     14  C   UNL     1       0.500   9.685  21.305  0.00  0.00    +0.000 C 
ATOM     15  C   UNL     1       0.073  10.986  20.611  0.00  0.00    +0.000 C 
ATOM     16  C   UNL     1      -0.090  12.104  21.638  0.00  0.00    +0.000 C 
ATOM     17  N   UNL     1      -1.068  11.676  22.638  0.00  0.00    +0.000 N 
ATOM     18  C   UNL     1      -0.762  10.425  23.347  0.00  0.00    +0.000 C 
ATOM     19  C   UNL     1      -0.582   9.295  22.325  0.00  0.00    +0.000 C 
BRANCH  17  20
ATOM     20  C   UNL     1      -1.937  12.602  23.200  0.00  0.00    +0.000 A 
ATOM     21  C   UNL     1      -1.488  13.873  23.569  0.00  0.00    +0.000 A 
ATOM     22  C   UNL     1      -2.346  14.745  24.224  0.00  0.00    +0.000 A 
ATOM     23  N   UNL     1      -3.625  14.454  24.535  0.00  0.00    +0.000 NA
ATOM     24  C   UNL     1      -4.055  13.232  24.171  0.00  0.00    +0.000 A 
ATOM     25  C   UNL     1      -3.266  12.298  23.512  0.00  0.00    +0.000 A 
ENDBRANCH  17  20
ENDBRANCH  13  14
ENDBRANCH  12  13
ENDBRANCH  10  12
ENDBRANCH   3   8
BRANCH   6  26
ATOM     26  N   UNL     1       5.354   3.985  15.782  0.00  0.00    +0.000 N 
ATOM     27  C   UNL     1       5.809   4.784  14.745  0.00  0.00    +0.000 C 
ATOM     28  O   UNL     1       5.973   6.000  14.843  0.00  0.00    +0.000 OA
ATOM     29  H   UNL     1       5.253   2.984  15.654  0.00  0.00    +0.000 HD
BRANCH  27  30
ATOM     30  C   UNL     1       6.151   4.132  13.450  0.00  0.00    +0.000 A 
ATOM     31  C   UNL     1       5.305   3.077  13.058  0.00  0.00    +0.000 A 
ATOM     32  C   UNL     1       5.580   2.319  11.920  0.00  0.00    +0.000 A 
ATOM     33  C   UNL     1       6.707   2.604  11.157  0.00  0.00    +0.000 A 
ATOM     34  C   UNL     1       7.545   3.658  11.524  0.00  0.00    +0.000 A 
ATOM     35  C   UNL     1       7.274   4.426  12.665  0.00  0.00    +0.000 A 
ATOM     36 CL   UNL     1       8.407   5.674  13.043  0.00  0.00    +0.000 Cl
ENDBRANCH  27  30
ENDBRANCH   6  26
TORSDOF 7
ENDMDL
MODEL 8
REMARK VINA RESULT:      -7.6      4.657      9.659
REMARK  Name = 
REMARK  8 active torsions:
REMARK  status: ('A' for Active; 'I' for Inactive)
REMARK    1  A    between atoms: C_1  and  C_2
REMARK    2  A    between atoms: C_3  and  C_4
REMARK    3  A    between atoms: N_6  and  C_7
REMARK    4  A    between atoms: C_7  and  C_8
REMARK    5  A    between atoms: C_8  and  C_9
REMARK    6  A    between atoms: N_12  and  C_13
REMARK    7  A    between atoms: C_23  and  N_24
REMARK    8  A    between atoms: C_25  and  C_27
REMARK                            x       y       z     vdW  Elec       q    Type
REMARK                         _______ _______ _______ _____ _____    ______ ____
ROOT
ATOM      1  C   UNL     1       1.612   9.317  17.990  0.00  0.00    +0.000 C 
ATOM      2  C   UNL     1       1.487   8.935  19.420  0.00  0.00    +0.000 A 
ATOM      3  C   UNL     1       0.973   9.715  20.511  0.00  0.00    +0.000 A 
ATOM      4  N   UNL     1       1.024   9.029  21.673  0.00  0.00    +0.000 NA
ATOM      5  N   UNL     1       1.533   7.841  21.323  0.00  0.00    +0.000 N 
ATOM      6  C   UNL     1       1.833   7.728  19.993  0.00  0.00    +0.000 A 
ATOM      7  H   UNL     1       1.667   7.119  22.027  0.00  0.00    +0.000 HD
ENDROOT
BRANCH   3   8
ATOM      8  C   UNL     1       0.427  11.085  20.490  0.00  0.00    +0.000 C 
ATOM      9  O   UNL     1      -0.760  11.339  20.315  0.00  0.00    +0.000 OA
ATOM     10  N   UNL     1       1.393  12.049  20.696  0.00  0.00    +0.000 N 
ATOM     11  H   UNL     1       2.329  11.688  20.862  0.00  0.00    +0.000 HD
BRANCH  10  12
ATOM     12  C   UNL     1       1.094  13.452  20.838  0.00  0.00    +0.000 C 
BRANCH  12  13
ATOM     13  C   UNL     1       1.239  14.175  19.503  0.00  0.00    +0.000 C 
BRANCH  13  14
ATOM     14  C   UNL     1       2.620  14.787  19.246  0.00  0.00    +0.000 C 
ATOM     15  C   UNL     1       3.518  14.759  20.490  0.00  0.00    +0.000 C 
ATOM     16  C   UNL     1       4.805  15.538  20.231  0.00  0.00    +0.000 C 
ATOM     17  N   UNL     1       5.473  14.956  19.067  0.00  0.00    +0.000 N 
ATOM     18  C   UNL     1       4.688  14.917  17.825  0.00  0.00    +0.000 C 
ATOM     19  C   UNL     1       3.384  14.147  18.074  0.00  0.00    +0.000 C 
BRANCH  17  20
ATOM     20  C   UNL     1       6.860  14.900  19.018  0.00  0.00    +0.000 A 
ATOM     21  C   UNL     1       7.610  14.711  20.181  0.00  0.00    +0.000 A 
ATOM     22  C   UNL     1       8.996  14.762  20.125  0.00  0.00    +0.000 A 
ATOM     23  N   UNL     1       9.698  14.981  18.995  0.00  0.00    +0.000 NA
ATOM     24  C   UNL     1       8.971  15.155  17.876  0.00  0.00    +0.000 A 
ATOM     25  C   UNL     1       7.584  15.118  17.841  0.00  0.00    +0.000 A 
ENDBRANCH  17  20
ENDBRANCH  13  14
ENDBRANCH  12  13
ENDBRANCH  10  12
ENDBRANCH   3   8
BRANCH   6  26
ATOM     26  N   UNL     1       2.378   6.586  19.431  0.00  0.00    +0.000 N 
ATOM     27  C   UNL     1       1.979   5.327  19.847  0.00  0.00    +0.000 C 
ATOM     28  O   UNL     1       1.083   5.132  20.669  0.00  0.00    +0.000 OA
ATOM     29  H   UNL     1       3.110   6.691  18.737  0.00  0.00    +0.000 HD
BRANCH  27  30
ATOM     30  C   UNL     1       2.646   4.140  19.243  0.00  0.00    +0.000 A 
ATOM     31  C   UNL     1       2.941   4.241  17.870  0.00  0.00    +0.000 A 
ATOM     32  C   UNL     1       3.469   3.159  17.164  0.00  0.00    +0.000 A 
ATOM     33  C   UNL     1       3.709   1.958  17.822  0.00  0.00    +0.000 A 
ATOM     34  C   UNL     1       3.438   1.848  19.187  0.00  0.00    +0.000 A 
ATOM     35  C   UNL     1       2.909   2.932  19.904  0.00  0.00    +0.000 A 
ATOM     36 CL   UNL     1       2.573   2.662  21.576  0.00  0.00    +0.000 Cl
ENDBRANCH  27  30
ENDBRANCH   6  26
TORSDOF 7
ENDMDL
MODEL 9
REMARK VINA RESULT:      -7.6      4.556      9.470
REMARK  Name = 
REMARK  8 active torsions:
REMARK  status: ('A' for Active; 'I' for Inactive)
REMARK    1  A    between atoms: C_1  and  C_2
REMARK    2  A    between atoms: C_3  and  C_4
REMARK    3  A    between atoms: N_6  and  C_7
REMARK    4  A    between atoms: C_7  and  C_8
REMARK    5  A    between atoms: C_8  and  C_9
REMARK    6  A    between atoms: N_12  and  C_13
REMARK    7  A    between atoms: C_23  and  N_24
REMARK    8  A    between atoms: C_25  and  C_27
REMARK                            x       y       z     vdW  Elec       q    Type
REMARK                         _______ _______ _______ _____ _____    ______ ____
ROOT
ATOM      1  C   UNL     1       0.699   9.047  20.983  0.00  0.00    +0.000 C 
ATOM      2  C   UNL     1       1.355   8.994  19.652  0.00  0.00    +0.000 A 
ATOM      3  C   UNL     1       1.329   9.975  18.603  0.00  0.00    +0.000 A 
ATOM      4  N   UNL     1       2.042   9.569  17.532  0.00  0.00    +0.000 NA
ATOM      5  N   UNL     1       2.526   8.376  17.900  0.00  0.00    +0.000 N 
ATOM      6  C   UNL     1       2.146   7.978  19.153  0.00  0.00    +0.000 A 
ATOM      7  H   UNL     1       3.119   7.850  17.263  0.00  0.00    +0.000 HD
ENDROOT
BRANCH   3   8
ATOM      8  C   UNL     1       0.658  11.289  18.585  0.00  0.00    +0.000 C 
ATOM      9  O   UNL     1      -0.558  11.430  18.667  0.00  0.00    +0.000 OA
ATOM     10  N   UNL     1       1.544  12.340  18.477  0.00  0.00    +0.000 N 
ATOM     11  H   UNL     1       2.525  12.073  18.454  0.00  0.00    +0.000 HD
BRANCH  10  12
ATOM     12  C   UNL     1       1.146  13.724  18.556  0.00  0.00    +0.000 C 
BRANCH  12  13
ATOM     13  C   UNL     1       1.759  14.395  19.780  0.00  0.00    +0.000 C 
BRANCH  13  14
ATOM     14  C   UNL     1       3.121  15.057  19.541  0.00  0.00    +0.000 C 
ATOM     15  C   UNL     1       4.198  14.554  20.512  0.00  0.00    +0.000 C 
ATOM     16  C   UNL     1       5.477  15.370  20.351  0.00  0.00    +0.000 C 
ATOM     17  N   UNL     1       5.916  15.276  18.959  0.00  0.00    +0.000 N 
ATOM     18  C   UNL     1       4.945  15.715  17.945  0.00  0.00    +0.000 C 
ATOM     19  C   UNL     1       3.648  14.911  18.104  0.00  0.00    +0.000 C 
BRANCH  17  20
ATOM     20  C   UNL     1       7.271  15.240  18.658  0.00  0.00    +0.000 A 
ATOM     21  C   UNL     1       7.945  16.396  18.253  0.00  0.00    +0.000 A 
ATOM     22  C   UNL     1       9.273  16.318  17.857  0.00  0.00    +0.000 A 
ATOM     23  N   UNL     1       9.989  15.176  17.839  0.00  0.00    +0.000 NA
ATOM     24  C   UNL     1       9.337  14.067  18.237  0.00  0.00    +0.000 A 
ATOM     25  C   UNL     1       8.012  14.054  18.650  0.00  0.00    +0.000 A 
ENDBRANCH  17  20
ENDBRANCH  13  14
ENDBRANCH  12  13
ENDBRANCH  10  12
ENDBRANCH   3   8
BRANCH   6  26
ATOM     26  N   UNL     1       2.529   6.773  19.717  0.00  0.00    +0.000 N 
ATOM     27  C   UNL     1       2.343   5.579  19.040  0.00  0.00    +0.000 C 
ATOM     28  O   UNL     1       1.906   5.507  17.891  0.00  0.00    +0.000 OA
ATOM     29  H   UNL     1       2.909   6.779  20.657  0.00  0.00    +0.000 HD
BRANCH  27  30
ATOM     30  C   UNL     1       2.725   4.313  19.726  0.00  0.00    +0.000 A 
ATOM     31  C   UNL     1       1.929   3.956  20.831  0.00  0.00    +0.000 A 
ATOM     32  C   UNL     1       2.247   2.850  21.621  0.00  0.00    +0.000 A 
ATOM     33  C   UNL     1       3.367   2.085  21.316  0.00  0.00    +0.000 A 
ATOM     34  C   UNL     1       4.155   2.416  20.213  0.00  0.00    +0.000 A 
ATOM     35  C   UNL     1       3.841   3.525  19.413  0.00  0.00    +0.000 A 
ATOM     36 CL   UNL     1       4.915   3.862  18.104  0.00  0.00    +0.000 Cl
ENDBRANCH  27  30
ENDBRANCH   6  26
TORSDOF 7
ENDMDL
