MODEL 1
REMARK VINA RESULT:      -6.1      0.000      0.000
REMARK  Name = 
REMARK  1 active torsions:
REMARK  status: ('A' for Active; 'I' for Inactive)
REMARK    1  A    between atoms: N_1  and  C_2
REMARK                            x       y       z     vdW  Elec       q    Type
REMARK                         _______ _______ _______ _____ _____    ______ ____
ROOT
ATOM      1  C   UNL     1       4.711   4.367  18.064  0.00  0.00    +0.000 C 
ATOM      2  C   UNL     1       4.387   4.030  16.636  0.00  0.00    +0.000 C 
ATOM      3  C   UNL     1       3.402   3.678  17.728  0.00  0.00    +0.000 C 
ATOM      4  C   UNL     1       2.128   4.494  17.815  0.00  0.00    +0.000 C 
ATOM      5  C   UNL     1       1.467   4.318  19.180  0.00  0.00    +0.000 C 
ATOM      6  C   UNL     1       1.260   2.846  19.494  0.00  0.00    +0.000 C 
ATOM      7  F   UNL     1       0.727   2.720  20.736  0.00  0.00    +0.000 F 
ATOM      8  F   UNL     1       0.346   2.327  18.633  0.00  0.00    +0.000 F 
ATOM      9  C   UNL     1       2.544   2.039  19.409  0.00  0.00    +0.000 C 
ATOM     10  C   UNL     1       3.194   2.208  18.039  0.00  0.00    +0.000 C 
ENDROOT
BRANCH   1  11
ATOM     11  N   UNL     1       5.781   3.652  18.754  0.00  0.00    +0.000 NA
ATOM     12  H   UNL     1       5.791   3.890  19.746  0.00  0.00    +0.000 HD
ATOM     13  H   UNL     1       6.700   3.921  18.403  0.00  0.00    +0.000 HD
ENDBRANCH   1  11
TORSDOF 1
ENDMDL
MODEL 2
REMARK VINA RESULT:      -5.8      1.209      1.343
REMARK  Name = 
REMARK  1 active torsions:
REMARK  status: ('A' for Active; 'I' for Inactive)
REMARK    1  A    between atoms: N_1  and  C_2
REMARK                            x       y       z     vdW  Elec       q    Type
REMARK                         _______ _______ _______ _____ _____    ______ ____
ROOT
ATOM      1  C   UNL     1       4.736   4.790  18.871  0.00  0.00    +0.000 C 
ATOM      2  C   UNL     1       4.005   5.178  17.618  0.00  0.00    +0.000 C 
ATOM      3  C   UNL     1       3.249   4.516  18.748  0.00  0.00    +0.000 C 
ATOM      4  C   UNL     1       2.301   5.376  19.559  0.00  0.00    +0.000 C 
ATOM      5  C   UNL     1       1.961   4.701  20.885  0.00  0.00    +0.000 C 
ATOM      6  C   UNL     1       1.446   3.290  20.658  0.00  0.00    +0.000 C 
ATOM      7  F   UNL     1       1.210   2.698  21.855  0.00  0.00    +0.000 F 
ATOM      8  F   UNL     1       0.249   3.346  20.018  0.00  0.00    +0.000 F 
ATOM      9  C   UNL     1       2.408   2.436  19.849  0.00  0.00    +0.000 C 
ATOM     10  C   UNL     1       2.734   3.108  18.520  0.00  0.00    +0.000 C 
ENDROOT
BRANCH   1  11
ATOM     11  N   UNL     1       5.707   3.700  18.837  0.00  0.00    +0.000 NA
ATOM     12  H   UNL     1       5.651   3.197  17.950  0.00  0.00    +0.000 HD
ATOM     13  H   UNL     1       5.515   3.002  19.556  0.00  0.00    +0.000 HD
ENDBRANCH   1  11
TORSDOF 1
ENDMDL
MODEL 3
REMARK VINA RESULT:      -5.7      1.505      1.802
REMARK  Name = 
REMARK  1 active torsions:
REMARK  status: ('A' for Active; 'I' for Inactive)
REMARK    1  A    between atoms: N_1  and  C_2
REMARK                            x       y       z     vdW  Elec       q    Type
REMARK                         _______ _______ _______ _____ _____    ______ ____
ROOT
ATOM      1  C   UNL     1       4.449   4.351  18.080  0.00  0.00    +0.000 C 
ATOM      2  C   UNL     1       3.842   5.572  17.453  0.00  0.00    +0.000 C 
ATOM      3  C   UNL     1       3.059   4.799  18.490  0.00  0.00    +0.000 C 
ATOM      4  C   UNL     1       2.893   5.429  19.859  0.00  0.00    +0.000 C 
ATOM      5  C   UNL     1       2.478   4.381  20.887  0.00  0.00    +0.000 C 
ATOM      6  C   UNL     1       1.247   3.623  20.421  0.00  0.00    +0.000 C 
ATOM      7  F   UNL     1       0.939   2.661  21.327  0.00  0.00    +0.000 F 
ATOM      8  F   UNL     1       0.183   4.469  20.389  0.00  0.00    +0.000 F 
ATOM      9  C   UNL     1       1.427   2.991  19.052  0.00  0.00    +0.000 C 
ATOM     10  C   UNL     1       1.829   4.044  18.024  0.00  0.00    +0.000 C 
ENDROOT
BRANCH   1  11
ATOM     11  N   UNL     1       4.645   3.144  17.280  0.00  0.00    +0.000 NA
ATOM     12  H   UNL     1       4.545   2.309  17.859  0.00  0.00    +0.000 HD
ATOM     13  H   UNL     1       5.588   3.096  16.897  0.00  0.00    +0.000 HD
ENDBRANCH   1  11
TORSDOF 1
ENDMDL
MODEL 4
REMARK VINA RESULT:      -5.6      1.346      1.909
REMARK  Name = 
REMARK  1 active torsions:
REMARK  status: ('A' for Active; 'I' for Inactive)
REMARK    1  A    between atoms: N_1  and  C_2
REMARK                            x       y       z     vdW  Elec       q    Type
REMARK                         _______ _______ _______ _____ _____    ______ ____
ROOT
ATOM      1  C   UNL     1       5.312   5.144  18.834  0.00  0.00    +0.000 C 
ATOM      2  C   UNL     1       5.279   6.164  17.732  0.00  0.00    +0.000 C 
ATOM      3  C   UNL     1       4.068   5.291  17.978  0.00  0.00    +0.000 C 
ATOM      4  C   UNL     1       2.850   5.940  18.604  0.00  0.00    +0.000 C 
ATOM      5  C   UNL     1       1.908   4.882  19.173  0.00  0.00    +0.000 C 
ATOM      6  C   UNL     1       1.562   3.843  18.120  0.00  0.00    +0.000 C 
ATOM      7  F   UNL     1       0.773   2.887  18.672  0.00  0.00    +0.000 F 
ATOM      8  F   UNL     1       0.823   4.426  17.140  0.00  0.00    +0.000 F 
ATOM      9  C   UNL     1       2.791   3.196  17.504  0.00  0.00    +0.000 C 
ATOM     10  C   UNL     1       3.722   4.256  16.925  0.00  0.00    +0.000 C 
ENDROOT
BRANCH   1  11
ATOM     11  N   UNL     1       6.174   3.972  18.713  0.00  0.00    +0.000 NA
ATOM     12  H   UNL     1       5.990   3.480  17.838  0.00  0.00    +0.000 HD
ATOM     13  H   UNL     1       5.988   3.291  19.449  0.00  0.00    +0.000 HD
ENDBRANCH   1  11
TORSDOF 1
ENDMDL
MODEL 5
REMARK VINA RESULT:      -5.6      1.874      2.510
REMARK  Name = 
REMARK  1 active torsions:
REMARK  status: ('A' for Active; 'I' for Inactive)
REMARK    1  A    between atoms: N_1  and  C_2
REMARK                            x       y       z     vdW  Elec       q    Type
REMARK                         _______ _______ _______ _____ _____    ______ ____
ROOT
ATOM      1  C   UNL     1       4.258   2.442  18.995  0.00  0.00    +0.000 C 
ATOM      2  C   UNL     1       3.210   1.506  18.465  0.00  0.00    +0.000 C 
ATOM      3  C   UNL     1       2.789   2.758  19.200  0.00  0.00    +0.000 C 
ATOM      4  C   UNL     1       2.185   3.883  18.384  0.00  0.00    +0.000 C 
ATOM      5  C   UNL     1       2.217   5.193  19.166  0.00  0.00    +0.000 C 
ATOM      6  C   UNL     1       1.568   5.026  20.529  0.00  0.00    +0.000 C 
ATOM      7  F   UNL     1       1.665   6.189  21.221  0.00  0.00    +0.000 F 
ATOM      8  F   UNL     1       0.240   4.788  20.369  0.00  0.00    +0.000 F 
ATOM      9  C   UNL     1       2.185   3.899  21.340  0.00  0.00    +0.000 C 
ATOM     10  C   UNL     1       2.139   2.589  20.560  0.00  0.00    +0.000 C 
ENDROOT
BRANCH   1  11
ATOM     11  N   UNL     1       5.102   2.029  20.114  0.00  0.00    +0.000 NA
ATOM     12  H   UNL     1       6.089   2.126  19.874  0.00  0.00    +0.000 HD
ATOM     13  H   UNL     1       4.974   1.042  20.337  0.00  0.00    +0.000 HD
ENDBRANCH   1  11
TORSDOF 1
ENDMDL
MODEL 6
REMARK VINA RESULT:      -5.6      2.733      3.869
REMARK  Name = 
REMARK  1 active torsions:
REMARK  status: ('A' for Active; 'I' for Inactive)
REMARK    1  A    between atoms: N_1  and  C_2
REMARK                            x       y       z     vdW  Elec       q    Type
REMARK                         _______ _______ _______ _____ _____    ______ ____
ROOT
ATOM      1  C   UNL     1       1.742   2.914  20.687  0.00  0.00    +0.000 C 
ATOM      2  C   UNL     1       1.004   4.221  20.679  0.00  0.00    +0.000 C 
ATOM      3  C   UNL     1       2.063   3.956  19.633  0.00  0.00    +0.000 C 
ATOM      4  C   UNL     1       1.599   3.694  18.214  0.00  0.00    +0.000 C 
ATOM      5  C   UNL     1       2.707   3.035  17.397  0.00  0.00    +0.000 C 
ATOM      6  C   UNL     1       3.989   3.846  17.470  0.00  0.00    +0.000 C 
ATOM      7  F   UNL     1       4.969   3.204  16.785  0.00  0.00    +0.000 F 
ATOM      8  F   UNL     1       3.803   5.037  16.842  0.00  0.00    +0.000 F 
ATOM      9  C   UNL     1       4.447   4.097  18.897  0.00  0.00    +0.000 C 
ATOM     10  C   UNL     1       3.341   4.769  19.705  0.00  0.00    +0.000 C 
ENDROOT
BRANCH   1  11
ATOM     11  N   UNL     1       2.684   2.619  21.763  0.00  0.00    +0.000 NA
ATOM     12  H   UNL     1       2.288   1.937  22.412  0.00  0.00    +0.000 HD
ATOM     13  H   UNL     1       2.881   3.445  22.328  0.00  0.00    +0.000 HD
ENDBRANCH   1  11
TORSDOF 1
ENDMDL
MODEL 7
REMARK VINA RESULT:      -5.5      1.275      2.221
REMARK  Name = 
REMARK  1 active torsions:
REMARK  status: ('A' for Active; 'I' for Inactive)
REMARK    1  A    between atoms: N_1  and  C_2
REMARK                            x       y       z     vdW  Elec       q    Type
REMARK                         _______ _______ _______ _____ _____    ______ ____
ROOT
ATOM      1  C   UNL     1       4.913   4.054  18.102  0.00  0.00    +0.000 C 
ATOM      2  C   UNL     1       4.995   5.148  19.127  0.00  0.00    +0.000 C 
ATOM      3  C   UNL     1       3.715   4.356  18.983  0.00  0.00    +0.000 C 
ATOM      4  C   UNL     1       3.375   3.365  20.079  0.00  0.00    +0.000 C 
ATOM      5  C   UNL     1       2.326   2.367  19.596  0.00  0.00    +0.000 C 
ATOM      6  C   UNL     1       1.110   3.086  19.037  0.00  0.00    +0.000 C 
ATOM      7  F   UNL     1       0.225   2.174  18.563  0.00  0.00    +0.000 F 
ATOM      8  F   UNL     1       0.476   3.745  20.042  0.00  0.00    +0.000 F 
ATOM      9  C   UNL     1       1.464   4.071  17.936  0.00  0.00    +0.000 C 
ATOM     10  C   UNL     1       2.501   5.075  18.427  0.00  0.00    +0.000 C 
ENDROOT
BRANCH   1  11
ATOM     11  N   UNL     1       4.903   4.390  16.680  0.00  0.00    +0.000 NA
ATOM     12  H   UNL     1       3.982   4.219  16.277  0.00  0.00    +0.000 HD
ATOM     13  H   UNL     1       5.544   3.800  16.150  0.00  0.00    +0.000 HD
ENDBRANCH   1  11
TORSDOF 1
ENDMDL
MODEL 8
REMARK VINA RESULT:      -5.5      3.140      3.773
REMARK  Name = 
REMARK  1 active torsions:
REMARK  status: ('A' for Active; 'I' for Inactive)
REMARK    1  A    between atoms: N_1  and  C_2
REMARK                            x       y       z     vdW  Elec       q    Type
REMARK                         _______ _______ _______ _____ _____    ______ ____
ROOT
ATOM      1  C   UNL     1       7.531   5.771  18.664  0.00  0.00    +0.000 C 
ATOM      2  C   UNL     1       7.647   4.602  17.728  0.00  0.00    +0.000 C 
ATOM      3  C   UNL     1       6.287   5.199  18.010  0.00  0.00    +0.000 C 
ATOM      4  C   UNL     1       5.631   6.006  16.907  0.00  0.00    +0.000 C 
ATOM      5  C   UNL     1       4.511   6.876  17.468  0.00  0.00    +0.000 C 
ATOM      6  C   UNL     1       3.526   6.041  18.268  0.00  0.00    +0.000 C 
ATOM      7  F   UNL     1       2.577   6.851  18.803  0.00  0.00    +0.000 F 
ATOM      8  F   UNL     1       2.873   5.192  17.431  0.00  0.00    +0.000 F 
ATOM      9  C   UNL     1       4.193   5.242  19.374  0.00  0.00    +0.000 C 
ATOM     10  C   UNL     1       5.303   4.363  18.806  0.00  0.00    +0.000 C 
ENDROOT
BRANCH   1  11
ATOM     11  N   UNL     1       7.782   5.587  20.090  0.00  0.00    +0.000 NA
ATOM     12  H   UNL     1       8.604   5.000  20.238  0.00  0.00    +0.000 HD
ATOM     13  H   UNL     1       7.014   5.095  20.547  0.00  0.00    +0.000 HD
ENDBRANCH   1  11
TORSDOF 1
ENDMDL
MODEL 9
REMARK VINA RESULT:      -5.5      3.032      4.096
REMARK  Name = 
REMARK  1 active torsions:
REMARK  status: ('A' for Active; 'I' for Inactive)
REMARK    1  A    between atoms: N_1  and  C_2
REMARK                            x       y       z     vdW  Elec       q    Type
REMARK                         _______ _______ _______ _____ _____    ______ ____
ROOT
ATOM      1  C   UNL     1       1.408   2.943  19.837  0.00  0.00    +0.000 C 
ATOM      2  C   UNL     1       0.857   2.211  18.647  0.00  0.00    +0.000 C 
ATOM      3  C   UNL     1       2.005   3.179  18.462  0.00  0.00    +0.000 C 
ATOM      4  C   UNL     1       3.375   2.598  18.176  0.00  0.00    +0.000 C 
ATOM      5  C   UNL     1       4.465   3.632  18.442  0.00  0.00    +0.000 C 
ATOM      6  C   UNL     1       4.188   4.919  17.684  0.00  0.00    +0.000 C 
ATOM      7  F   UNL     1       5.140   5.836  17.987  0.00  0.00    +0.000 F 
ATOM      8  F   UNL     1       4.295   4.686  16.349  0.00  0.00    +0.000 F 
ATOM      9  C   UNL     1       2.814   5.495  17.984  0.00  0.00    +0.000 C 
ATOM     10  C   UNL     1       1.727   4.462  17.703  0.00  0.00    +0.000 C 
ENDROOT
BRANCH   1  11
ATOM     11  N   UNL     1       0.603   3.970  20.494  0.00  0.00    +0.000 NA
ATOM     12  H   UNL     1       0.935   4.902  20.241  0.00  0.00    +0.000 HD
ATOM     13  H   UNL     1       0.686   3.920  21.509  0.00  0.00    +0.000 HD
ENDBRANCH   1  11
TORSDOF 1
ENDMDL
