MODEL 1
REMARK VINA RESULT:      -8.1      0.000      0.000
REMARK  Name = 
REMARK  5 active torsions:
REMARK  status: ('A' for Active; 'I' for Inactive)
REMARK    1  A    between atoms: C_2  and  C_3
REMARK    2  A    between atoms: C_2  and  C_8
REMARK    3  A    between atoms: N_11  and  C_12
REMARK    4  A    between atoms: C_21  and  N_22
REMARK    5  A    between atoms: N_22  and  C_23
REMARK                            x       y       z     vdW  Elec       q    Type
REMARK                         _______ _______ _______ _____ _____    ______ ____
ROOT
ATOM      1  C   UNL     1       3.053   6.521  19.312  0.00  0.00    +0.000 A 
ATOM      2  N   UNL     1       2.907   7.660  18.574  0.00  0.00    +0.000 NA
ATOM      3  C   UNL     1       1.963   8.569  18.921  0.00  0.00    +0.000 A 
ATOM      4  C   UNL     1       1.734   9.714  18.175  0.00  0.00    +0.000 A 
ATOM      5  N   UNL     1       0.758  10.639  18.391  0.00  0.00    +0.000 NA
ATOM      6  C   UNL     1      -0.036  10.406  19.443  0.00  0.00    +0.000 A 
ATOM      7  C   UNL     1       0.120   9.314  20.283  0.00  0.00    +0.000 A 
ATOM      8  C   UNL     1       1.135   8.391  20.035  0.00  0.00    +0.000 A 
ATOM      9  N   UNL     1       1.317   7.329  20.839  0.00  0.00    +0.000 NA
ATOM     10  C   UNL     1       2.256   6.387  20.501  0.00  0.00    +0.000 A 
ENDROOT
BRANCH   1  14
ATOM     11  C   UNL     1       5.988   4.280  16.838  0.00  0.00    +0.000 C 
ATOM     12  C   UNL     1       4.468   4.343  16.594  0.00  0.00    +0.000 C 
ATOM     13  C   UNL     1       3.751   5.510  17.266  0.00  0.00    +0.000 C 
ATOM     14  N   UNL     1       3.876   5.474  18.740  0.00  0.00    +0.000 N 
ATOM     15  C   UNL     1       5.278   5.431  19.213  0.00  0.00    +0.000 C 
ATOM     16  C   UNL     1       6.245   4.529  18.349  0.00  0.00    +0.000 C 
BRANCH  11  18
ATOM     17  O   UNL     1       7.438   6.034  15.978  0.00  0.00    +0.000 OA
ATOM     18  C   UNL     1       6.794   5.015  15.689  0.00  0.00    +0.000 C 
BRANCH  18  19
ATOM     19  C   UNL     1       6.780   4.613  14.249  0.00  0.00    +0.000 A 
ATOM     20  C   UNL     1       7.613   5.216  13.210  0.00  0.00    +0.000 A 
ATOM     21  C   UNL     1       7.470   4.645  11.970  0.00  0.00    +0.000 A 
ATOM     22  S   UNL     1       6.321   3.390  11.991  0.00  0.00    +0.000 S 
ATOM     23  C   UNL     1       6.022   3.618  13.668  0.00  0.00    +0.000 A 
ENDBRANCH  18  19
ENDBRANCH  11  18
ENDBRANCH   1  14
BRANCH  10  24
ATOM     24  N   UNL     1       2.394   5.292  21.397  0.00  0.00    +0.000 N 
ATOM     25  H   UNL     1       3.213   5.476  21.966  0.00  0.00    +0.000 HD
BRANCH  24  26
ATOM     26  C   UNL     1       2.244   3.917  20.856  0.00  0.00    +0.000 C 
ATOM     27  C   UNL     1       1.528   2.812  21.591  0.00  0.00    +0.000 C 
ATOM     28  C   UNL     1       0.907   3.423  20.370  0.00  0.00    +0.000 C 
ENDBRANCH  24  26
ENDBRANCH  10  24
TORSDOF 5
ENDMDL
MODEL 2
REMARK VINA RESULT:      -8.0      4.241      8.457
REMARK  Name = 
REMARK  5 active torsions:
REMARK  status: ('A' for Active; 'I' for Inactive)
REMARK    1  A    between atoms: C_2  and  C_3
REMARK    2  A    between atoms: C_2  and  C_8
REMARK    3  A    between atoms: N_11  and  C_12
REMARK    4  A    between atoms: C_21  and  N_22
REMARK    5  A    between atoms: N_22  and  C_23
REMARK                            x       y       z     vdW  Elec       q    Type
REMARK                         _______ _______ _______ _____ _____    ______ ____
ROOT
ATOM      1  C   UNL     1       2.930   6.545  18.866  0.00  0.00    +0.000 A 
ATOM      2  N   UNL     1       2.174   5.570  19.451  0.00  0.00    +0.000 NA
ATOM      3  C   UNL     1       2.357   4.275  19.096  0.00  0.00    +0.000 A 
ATOM      4  C   UNL     1       1.578   3.252  19.615  0.00  0.00    +0.000 A 
ATOM      5  N   UNL     1       1.627   1.939  19.259  0.00  0.00    +0.000 NA
ATOM      6  C   UNL     1       2.533   1.625  18.326  0.00  0.00    +0.000 A 
ATOM      7  C   UNL     1       3.392   2.556  17.761  0.00  0.00    +0.000 A 
ATOM      8  C   UNL     1       3.318   3.892  18.155  0.00  0.00    +0.000 A 
ATOM      9  N   UNL     1       4.145   4.814  17.632  0.00  0.00    +0.000 NA
ATOM     10  C   UNL     1       3.971   6.134  17.964  0.00  0.00    +0.000 A 
ENDROOT
BRANCH   1  14
ATOM     11  C   UNL     1       0.565  10.308  18.971  0.00  0.00    +0.000 C 
ATOM     12  C   UNL     1       1.625   9.940  17.915  0.00  0.00    +0.000 C 
ATOM     13  C   UNL     1       1.955   8.453  17.817  0.00  0.00    +0.000 C 
ATOM     14  N   UNL     1       2.506   7.914  19.079  0.00  0.00    +0.000 N 
ATOM     15  C   UNL     1       1.628   8.138  20.250  0.00  0.00    +0.000 C 
ATOM     16  C   UNL     1       0.901   9.540  20.279  0.00  0.00    +0.000 C 
BRANCH  11  18
ATOM     17  O   UNL     1      -1.112   9.702  17.317  0.00  0.00    +0.000 OA
ATOM     18  C   UNL     1      -0.889  10.357  18.344  0.00  0.00    +0.000 C 
BRANCH  18  19
ATOM     19  C   UNL     1      -2.010  11.200  18.862  0.00  0.00    +0.000 A 
ATOM     20  C   UNL     1      -3.356  11.234  18.291  0.00  0.00    +0.000 A 
ATOM     21  C   UNL     1      -4.235  12.041  18.968  0.00  0.00    +0.000 A 
ATOM     22  S   UNL     1      -3.487  12.807  20.291  0.00  0.00    +0.000 S 
ATOM     23  C   UNL     1      -1.983  12.048  19.949  0.00  0.00    +0.000 A 
ENDBRANCH  18  19
ENDBRANCH  11  18
ENDBRANCH   1  14
BRANCH  10  24
ATOM     24  N   UNL     1       4.881   7.053  17.374  0.00  0.00    +0.000 N 
ATOM     25  H   UNL     1       4.399   7.488  16.594  0.00  0.00    +0.000 HD
BRANCH  24  26
ATOM     26  C   UNL     1       6.278   6.608  17.140  0.00  0.00    +0.000 C 
ATOM     27  C   UNL     1       7.483   7.448  17.483  0.00  0.00    +0.000 C 
ATOM     28  C   UNL     1       7.168   6.226  18.294  0.00  0.00    +0.000 C 
ENDBRANCH  24  26
ENDBRANCH  10  24
TORSDOF 5
ENDMDL
MODEL 3
REMARK VINA RESULT:      -7.8      3.978      7.568
REMARK  Name = 
REMARK  5 active torsions:
REMARK  status: ('A' for Active; 'I' for Inactive)
REMARK    1  A    between atoms: C_2  and  C_3
REMARK    2  A    between atoms: C_2  and  C_8
REMARK    3  A    between atoms: N_11  and  C_12
REMARK    4  A    between atoms: C_21  and  N_22
REMARK    5  A    between atoms: N_22  and  C_23
REMARK                            x       y       z     vdW  Elec       q    Type
REMARK                         _______ _______ _______ _____ _____    ______ ____
ROOT
ATOM      1  C   UNL     1       2.967   6.728  18.679  0.00  0.00    +0.000 A 
ATOM      2  N   UNL     1       3.833   7.001  17.658  0.00  0.00    +0.000 NA
ATOM      3  C   UNL     1       5.026   6.362  17.602  0.00  0.00    +0.000 A 
ATOM      4  C   UNL     1       5.966   6.642  16.621  0.00  0.00    +0.000 A 
ATOM      5  N   UNL     1       7.220   6.119  16.530  0.00  0.00    +0.000 NA
ATOM      6  C   UNL     1       7.550   5.238  17.481  0.00  0.00    +0.000 A 
ATOM      7  C   UNL     1       6.681   4.851  18.490  0.00  0.00    +0.000 A 
ATOM      8  C   UNL     1       5.402   5.403  18.549  0.00  0.00    +0.000 A 
ATOM      9  N   UNL     1       4.535   5.040  19.510  0.00  0.00    +0.000 NA
ATOM     10  C   UNL     1       3.325   5.683  19.598  0.00  0.00    +0.000 A 
ENDROOT
BRANCH   1  14
ATOM     11  C   UNL     1       0.426  10.237  19.673  0.00  0.00    +0.000 C 
ATOM     12  C   UNL     1       0.574   8.962  20.526  0.00  0.00    +0.000 C 
ATOM     13  C   UNL     1       1.815   8.125  20.232  0.00  0.00    +0.000 C 
ATOM     14  N   UNL     1       1.844   7.629  18.839  0.00  0.00    +0.000 N 
ATOM     15  C   UNL     1       1.736   8.704  17.827  0.00  0.00    +0.000 C 
ATOM     16  C   UNL     1       0.733   9.868  18.196  0.00  0.00    +0.000 C 
BRANCH  11  18
ATOM     17  O   UNL     1       1.256  11.437  21.619  0.00  0.00    +0.000 OA
ATOM     18  C   UNL     1       1.052  11.499  20.399  0.00  0.00    +0.000 C 
BRANCH  18  19
ATOM     19  C   UNL     1       1.352  12.802  19.731  0.00  0.00    +0.000 A 
ATOM     20  C   UNL     1       2.483  13.035  18.834  0.00  0.00    +0.000 A 
ATOM     21  C   UNL     1       2.524  14.296  18.294  0.00  0.00    +0.000 A 
ATOM     22  S   UNL     1       1.236  15.256  18.854  0.00  0.00    +0.000 S 
ATOM     23  C   UNL     1       0.626  13.971  19.818  0.00  0.00    +0.000 A 
ENDBRANCH  18  19
ENDBRANCH  11  18
ENDBRANCH   1  14
BRANCH  10  24
ATOM     24  N   UNL     1       2.459   5.247  20.638  0.00  0.00    +0.000 N 
ATOM     25  H   UNL     1       2.543   5.917  21.394  0.00  0.00    +0.000 HD
BRANCH  24  26
ATOM     26  C   UNL     1       2.472   3.808  21.008  0.00  0.00    +0.000 C 
ATOM     27  C   UNL     1       1.220   3.013  21.280  0.00  0.00    +0.000 C 
ATOM     28  C   UNL     1       2.010   2.759  20.031  0.00  0.00    +0.000 C 
ENDBRANCH  24  26
ENDBRANCH  10  24
TORSDOF 5
ENDMDL
MODEL 4
REMARK VINA RESULT:      -7.3      4.318      8.381
REMARK  Name = 
REMARK  5 active torsions:
REMARK  status: ('A' for Active; 'I' for Inactive)
REMARK    1  A    between atoms: C_2  and  C_3
REMARK    2  A    between atoms: C_2  and  C_8
REMARK    3  A    between atoms: N_11  and  C_12
REMARK    4  A    between atoms: C_21  and  N_22
REMARK    5  A    between atoms: N_22  and  C_23
REMARK                            x       y       z     vdW  Elec       q    Type
REMARK                         _______ _______ _______ _____ _____    ______ ____
ROOT
ATOM      1  C   UNL     1       2.812   6.869  18.833  0.00  0.00    +0.000 A 
ATOM      2  N   UNL     1       3.660   7.273  17.841  0.00  0.00    +0.000 NA
ATOM      3  C   UNL     1       4.873   6.683  17.715  0.00  0.00    +0.000 A 
ATOM      4  C   UNL     1       5.795   7.092  16.764  0.00  0.00    +0.000 A 
ATOM      5  N   UNL     1       7.065   6.623  16.614  0.00  0.00    +0.000 NA
ATOM      6  C   UNL     1       7.432   5.663  17.471  0.00  0.00    +0.000 A 
ATOM      7  C   UNL     1       6.584   5.149  18.440  0.00  0.00    +0.000 A 
ATOM      8  C   UNL     1       5.288   5.648  18.560  0.00  0.00    +0.000 A 
ATOM      9  N   UNL     1       4.441   5.161  19.483  0.00  0.00    +0.000 NA
ATOM     10  C   UNL     1       3.212   5.751  19.641  0.00  0.00    +0.000 A 
ENDROOT
BRANCH   1  14
ATOM     11  C   UNL     1       0.171  10.198  20.140  0.00  0.00    +0.000 C 
ATOM     12  C   UNL     1       0.396   8.876  20.899  0.00  0.00    +0.000 C 
ATOM     13  C   UNL     1       1.658   8.112  20.512  0.00  0.00    +0.000 C 
ATOM     14  N   UNL     1       1.660   7.712  19.088  0.00  0.00    +0.000 N 
ATOM     15  C   UNL     1       1.477   8.846  18.155  0.00  0.00    +0.000 C 
ATOM     16  C   UNL     1       0.443   9.941  18.633  0.00  0.00    +0.000 C 
BRANCH  11  18
ATOM     17  O   UNL     1       2.000  11.585  20.943  0.00  0.00    +0.000 OA
ATOM     18  C   UNL     1       0.771  11.433  20.931  0.00  0.00    +0.000 C 
BRANCH  18  19
ATOM     19  C   UNL     1      -0.036  12.401  21.735  0.00  0.00    +0.000 A 
ATOM     20  C   UNL     1      -1.070  12.023  22.697  0.00  0.00    +0.000 A 
ATOM     21  C   UNL     1      -1.639  13.083  23.359  0.00  0.00    +0.000 A 
ATOM     22  S   UNL     1      -0.982  14.565  22.842  0.00  0.00    +0.000 S 
ATOM     23  C   UNL     1       0.066  13.776  21.732  0.00  0.00    +0.000 A 
ENDBRANCH  18  19
ENDBRANCH  11  18
ENDBRANCH   1  14
BRANCH  10  24
ATOM     24  N   UNL     1       2.369   5.183  20.636  0.00  0.00    +0.000 N 
ATOM     25  H   UNL     1       2.556   5.679  21.501  0.00  0.00    +0.000 HD
BRANCH  24  26
ATOM     26  C   UNL     1       2.270   3.704  20.715  0.00  0.00    +0.000 C 
ATOM     27  C   UNL     1       1.335   2.986  21.655  0.00  0.00    +0.000 C 
ATOM     28  C   UNL     1       1.061   2.984  20.180  0.00  0.00    +0.000 C 
ENDBRANCH  24  26
ENDBRANCH  10  24
TORSDOF 5
ENDMDL
MODEL 5
REMARK VINA RESULT:      -7.3      1.130      1.408
REMARK  Name = 
REMARK  5 active torsions:
REMARK  status: ('A' for Active; 'I' for Inactive)
REMARK    1  A    between atoms: C_2  and  C_3
REMARK    2  A    between atoms: C_2  and  C_8
REMARK    3  A    between atoms: N_11  and  C_12
REMARK    4  A    between atoms: C_21  and  N_22
REMARK    5  A    between atoms: N_22  and  C_23
REMARK                            x       y       z     vdW  Elec       q    Type
REMARK                         _______ _______ _______ _____ _____    ______ ____
ROOT
ATOM      1  C   UNL     1       3.754   6.177  18.753  0.00  0.00    +0.000 A 
ATOM      2  N   UNL     1       3.553   7.331  18.051  0.00  0.00    +0.000 NA
ATOM      3  C   UNL     1       2.564   8.179  18.424  0.00  0.00    +0.000 A 
ATOM      4  C   UNL     1       2.278   9.335  17.714  0.00  0.00    +0.000 A 
ATOM      5  N   UNL     1       1.256  10.202  17.956  0.00  0.00    +0.000 NA
ATOM      6  C   UNL     1       0.473   9.896  18.998  0.00  0.00    +0.000 A 
ATOM      7  C   UNL     1       0.683   8.787  19.803  0.00  0.00    +0.000 A 
ATOM      8  C   UNL     1       1.744   7.924  19.528  0.00  0.00    +0.000 A 
ATOM      9  N   UNL     1       1.978   6.848  20.298  0.00  0.00    +0.000 NA
ATOM     10  C   UNL     1       2.964   5.965  19.934  0.00  0.00    +0.000 A 
ENDROOT
BRANCH   1  14
ATOM     11  C   UNL     1       6.309   3.925  15.895  0.00  0.00    +0.000 C 
ATOM     12  C   UNL     1       4.839   3.608  16.231  0.00  0.00    +0.000 C 
ATOM     13  C   UNL     1       4.055   4.757  16.859  0.00  0.00    +0.000 C 
ATOM     14  N   UNL     1       4.630   5.193  18.150  0.00  0.00    +0.000 N 
ATOM     15  C   UNL     1       6.058   5.575  18.061  0.00  0.00    +0.000 C 
ATOM     16  C   UNL     1       6.933   4.666  17.110  0.00  0.00    +0.000 C 
BRANCH  11  18
ATOM     17  O   UNL     1       6.980   5.536  14.200  0.00  0.00    +0.000 OA
ATOM     18  C   UNL     1       6.470   4.424  14.400  0.00  0.00    +0.000 C 
BRANCH  18  19
ATOM     19  C   UNL     1       5.983   3.680  13.198  0.00  0.00    +0.000 A 
ATOM     20  C   UNL     1       4.665   3.858  12.589  0.00  0.00    +0.000 A 
ATOM     21  C   UNL     1       4.462   3.107  11.458  0.00  0.00    +0.000 A 
ATOM     22  S   UNL     1       5.818   2.145  11.095  0.00  0.00    +0.000 S 
ATOM     23  C   UNL     1       6.675   2.745  12.459  0.00  0.00    +0.000 A 
ENDBRANCH  18  19
ENDBRANCH  11  18
ENDBRANCH   1  14
BRANCH  10  24
ATOM     24  N   UNL     1       3.155   4.850  20.794  0.00  0.00    +0.000 N 
ATOM     25  H   UNL     1       4.150   4.788  20.982  0.00  0.00    +0.000 HD
BRANCH  24  26
ATOM     26  C   UNL     1       2.450   3.583  20.473  0.00  0.00    +0.000 C 
ATOM     27  C   UNL     1       1.727   2.754  21.504  0.00  0.00    +0.000 C 
ATOM     28  C   UNL     1       0.945   3.518  20.477  0.00  0.00    +0.000 C 
ENDBRANCH  24  26
ENDBRANCH  10  24
TORSDOF 5
ENDMDL
MODEL 6
REMARK VINA RESULT:      -7.3      3.956      6.532
REMARK  Name = 
REMARK  5 active torsions:
REMARK  status: ('A' for Active; 'I' for Inactive)
REMARK    1  A    between atoms: C_2  and  C_3
REMARK    2  A    between atoms: C_2  and  C_8
REMARK    3  A    between atoms: N_11  and  C_12
REMARK    4  A    between atoms: C_21  and  N_22
REMARK    5  A    between atoms: N_22  and  C_23
REMARK                            x       y       z     vdW  Elec       q    Type
REMARK                         _______ _______ _______ _____ _____    ______ ____
ROOT
ATOM      1  C   UNL     1      -0.343  10.394  18.731  0.00  0.00    +0.000 A 
ATOM      2  N   UNL     1      -0.873  10.136  17.499  0.00  0.00    +0.000 NA
ATOM      3  C   UNL     1      -2.109  10.598  17.191  0.00  0.00    +0.000 A 
ATOM      4  C   UNL     1      -2.717  10.318  15.977  0.00  0.00    +0.000 A 
ATOM      5  N   UNL     1      -3.983  10.662  15.608  0.00  0.00    +0.000 NA
ATOM      6  C   UNL     1      -4.683  11.351  16.517  0.00  0.00    +0.000 A 
ATOM      7  C   UNL     1      -4.167  11.721  17.749  0.00  0.00    +0.000 A 
ATOM      8  C   UNL     1      -2.864  11.357  18.091  0.00  0.00    +0.000 A 
ATOM      9  N   UNL     1      -2.334  11.711  19.274  0.00  0.00    +0.000 NA
ATOM     10  C   UNL     1      -1.090  11.244  19.617  0.00  0.00    +0.000 A 
ENDROOT
BRANCH   1  14
ATOM     11  C   UNL     1       2.495   7.136  19.776  0.00  0.00    +0.000 C 
ATOM     12  C   UNL     1       1.768   8.052  20.779  0.00  0.00    +0.000 C 
ATOM     13  C   UNL     1       0.531   8.758  20.234  0.00  0.00    +0.000 C 
ATOM     14  N   UNL     1       0.847   9.651  19.097  0.00  0.00    +0.000 N 
ATOM     15  C   UNL     1       1.542   8.967  17.984  0.00  0.00    +0.000 C 
ATOM     16  C   UNL     1       2.616   7.896  18.427  0.00  0.00    +0.000 C 
BRANCH  11  18
ATOM     17  O   UNL     1       1.172   5.353  20.769  0.00  0.00    +0.000 OA
ATOM     18  C   UNL     1       1.990   5.638  19.884  0.00  0.00    +0.000 C 
BRANCH  18  19
ATOM     19  C   UNL     1       2.485   4.510  19.036  0.00  0.00    +0.000 A 
ATOM     20  C   UNL     1       1.708   3.863  17.979  0.00  0.00    +0.000 A 
ATOM     21  C   UNL     1       2.390   2.888  17.295  0.00  0.00    +0.000 A 
ATOM     22  S   UNL     1       3.967   2.689  17.901  0.00  0.00    +0.000 S 
ATOM     23  C   UNL     1       3.728   3.917  19.079  0.00  0.00    +0.000 A 
ENDBRANCH  18  19
ENDBRANCH  11  18
ENDBRANCH   1  14
BRANCH  10  24
ATOM     24  N   UNL     1      -0.593  11.659  20.883  0.00  0.00    +0.000 N 
ATOM     25  H   UNL     1      -0.211  10.835  21.335  0.00  0.00    +0.000 HD
BRANCH  24  26
ATOM     26  C   UNL     1      -1.439  12.553  21.713  0.00  0.00    +0.000 C 
ATOM     27  C   UNL     1      -1.767  12.275  23.159  0.00  0.00    +0.000 C 
ATOM     28  C   UNL     1      -0.830  13.392  22.805  0.00  0.00    +0.000 C 
ENDBRANCH  24  26
ENDBRANCH  10  24
TORSDOF 5
ENDMDL
MODEL 7
REMARK VINA RESULT:      -7.2      2.315      3.024
REMARK  Name = 
REMARK  5 active torsions:
REMARK  status: ('A' for Active; 'I' for Inactive)
REMARK    1  A    between atoms: C_2  and  C_3
REMARK    2  A    between atoms: C_2  and  C_8
REMARK    3  A    between atoms: N_11  and  C_12
REMARK    4  A    between atoms: C_21  and  N_22
REMARK    5  A    between atoms: N_22  and  C_23
REMARK                            x       y       z     vdW  Elec       q    Type
REMARK                         _______ _______ _______ _____ _____    ______ ____
ROOT
ATOM      1  C   UNL     1       2.440   7.276  18.781  0.00  0.00    +0.000 A 
ATOM      2  N   UNL     1       1.968   8.542  18.582  0.00  0.00    +0.000 NA
ATOM      3  C   UNL     1       1.241   9.147  19.552  0.00  0.00    +0.000 A 
ATOM      4  C   UNL     1       0.690  10.408  19.381  0.00  0.00    +0.000 A 
ATOM      5  N   UNL     1      -0.124  11.061  20.258  0.00  0.00    +0.000 NA
ATOM      6  C   UNL     1      -0.390  10.409  21.395  0.00  0.00    +0.000 A 
ATOM      7  C   UNL     1       0.134   9.160  21.693  0.00  0.00    +0.000 A 
ATOM      8  C   UNL     1       0.968   8.524  20.775  0.00  0.00    +0.000 A 
ATOM      9  N   UNL     1       1.499   7.318  21.041  0.00  0.00    +0.000 NA
ATOM     10  C   UNL     1       2.227   6.677  20.070  0.00  0.00    +0.000 A 
ENDROOT
BRANCH   1  14
ATOM     11  C   UNL     1       5.143   5.285  15.867  0.00  0.00    +0.000 C 
ATOM     12  C   UNL     1       4.664   6.748  15.797  0.00  0.00    +0.000 C 
ATOM     13  C   UNL     1       4.142   7.324  17.110  0.00  0.00    +0.000 C 
ATOM     14  N   UNL     1       2.966   6.587  17.620  0.00  0.00    +0.000 N 
ATOM     15  C   UNL     1       3.206   5.136  17.790  0.00  0.00    +0.000 C 
ATOM     16  C   UNL     1       4.086   4.469  16.660  0.00  0.00    +0.000 C 
BRANCH  11  18
ATOM     17  O   UNL     1       7.428   4.687  15.287  0.00  0.00    +0.000 OA
ATOM     18  C   UNL     1       6.699   5.194  16.151  0.00  0.00    +0.000 C 
BRANCH  18  19
ATOM     19  C   UNL     1       7.356   5.612  17.427  0.00  0.00    +0.000 A 
ATOM     20  C   UNL     1       7.796   6.974  17.729  0.00  0.00    +0.000 A 
ATOM     21  C   UNL     1       8.322   7.131  18.986  0.00  0.00    +0.000 A 
ATOM     22  S   UNL     1       8.338   5.662  19.844  0.00  0.00    +0.000 S 
ATOM     23  C   UNL     1       7.633   4.820  18.522  0.00  0.00    +0.000 A 
ENDBRANCH  18  19
ENDBRANCH  11  18
ENDBRANCH   1  14
BRANCH  10  24
ATOM     24  N   UNL     1       2.758   5.406  20.422  0.00  0.00    +0.000 N 
ATOM     25  H   UNL     1       3.240   5.050  19.603  0.00  0.00    +0.000 HD
BRANCH  24  26
ATOM     26  C   UNL     1       1.883   4.457  21.156  0.00  0.00    +0.000 C 
ATOM     27  C   UNL     1       1.172   3.304  20.492  0.00  0.00    +0.000 C 
ATOM     28  C   UNL     1       2.329   3.041  21.411  0.00  0.00    +0.000 C 
ENDBRANCH  24  26
ENDBRANCH  10  24
TORSDOF 5
ENDMDL
MODEL 8
REMARK VINA RESULT:      -7.2      3.913      6.482
REMARK  Name = 
REMARK  5 active torsions:
REMARK  status: ('A' for Active; 'I' for Inactive)
REMARK    1  A    between atoms: C_2  and  C_3
REMARK    2  A    between atoms: C_2  and  C_8
REMARK    3  A    between atoms: N_11  and  C_12
REMARK    4  A    between atoms: C_21  and  N_22
REMARK    5  A    between atoms: N_22  and  C_23
REMARK                            x       y       z     vdW  Elec       q    Type
REMARK                         _______ _______ _______ _____ _____    ______ ____
ROOT
ATOM      1  C   UNL     1      -0.162  10.309  18.708  0.00  0.00    +0.000 A 
ATOM      2  N   UNL     1      -0.817   9.969  17.559  0.00  0.00    +0.000 NA
ATOM      3  C   UNL     1      -2.036  10.500  17.299  0.00  0.00    +0.000 A 
ATOM      4  C   UNL     1      -2.769  10.146  16.176  0.00  0.00    +0.000 A 
ATOM      5  N   UNL     1      -4.031  10.556  15.872  0.00  0.00    +0.000 NA
ATOM      6  C   UNL     1      -4.594  11.395  16.750  0.00  0.00    +0.000 A 
ATOM      7  C   UNL     1      -3.944  11.848  17.888  0.00  0.00    +0.000 A 
ATOM      8  C   UNL     1      -2.649  11.412  18.164  0.00  0.00    +0.000 A 
ATOM      9  N   UNL     1      -1.991  11.842  19.255  0.00  0.00    +0.000 NA
ATOM     10  C   UNL     1      -0.761  11.309  19.549  0.00  0.00    +0.000 A 
ENDROOT
BRANCH   1  14
ATOM     11  C   UNL     1       2.522   6.921  19.748  0.00  0.00    +0.000 C 
ATOM     12  C   UNL     1       1.870   7.893  20.750  0.00  0.00    +0.000 C 
ATOM     13  C   UNL     1       0.659   8.655  20.220  0.00  0.00    +0.000 C 
ATOM     14  N   UNL     1       0.994   9.510  19.061  0.00  0.00    +0.000 N 
ATOM     15  C   UNL     1       1.625   8.769  17.944  0.00  0.00    +0.000 C 
ATOM     16  C   UNL     1       2.651   7.651  18.382  0.00  0.00    +0.000 C 
BRANCH  11  18
ATOM     17  O   UNL     1       1.107   5.237  20.786  0.00  0.00    +0.000 OA
ATOM     18  C   UNL     1       1.941   5.455  19.896  0.00  0.00    +0.000 C 
BRANCH  18  19
ATOM     19  C   UNL     1       2.378   4.280  19.081  0.00  0.00    +0.000 A 
ATOM     20  C   UNL     1       2.184   4.152  17.637  0.00  0.00    +0.000 A 
ATOM     21  C   UNL     1       2.719   3.010  17.095  0.00  0.00    +0.000 A 
ATOM     22  S   UNL     1       3.448   2.038  18.286  0.00  0.00    +0.000 S 
ATOM     23  C   UNL     1       3.044   3.158  19.526  0.00  0.00    +0.000 A 
ENDBRANCH  18  19
ENDBRANCH  11  18
ENDBRANCH   1  14
BRANCH  10  24
ATOM     24  N   UNL     1      -0.125  11.811  20.716  0.00  0.00    +0.000 N 
ATOM     25  H   UNL     1      -0.767  11.670  21.489  0.00  0.00    +0.000 HD
BRANCH  24  26
ATOM     26  C   UNL     1       0.553  13.130  20.637  0.00  0.00    +0.000 C 
ATOM     27  C   UNL     1       2.053  13.291  20.642  0.00  0.00    +0.000 C 
ATOM     28  C   UNL     1       1.277  13.548  19.384  0.00  0.00    +0.000 C 
ENDBRANCH  24  26
ENDBRANCH  10  24
TORSDOF 5
ENDMDL
MODEL 9
REMARK VINA RESULT:      -7.2      4.200      8.166
REMARK  Name = 
REMARK  5 active torsions:
REMARK  status: ('A' for Active; 'I' for Inactive)
REMARK    1  A    between atoms: C_2  and  C_3
REMARK    2  A    between atoms: C_2  and  C_8
REMARK    3  A    between atoms: N_11  and  C_12
REMARK    4  A    between atoms: C_21  and  N_22
REMARK    5  A    between atoms: N_22  and  C_23
REMARK                            x       y       z     vdW  Elec       q    Type
REMARK                         _______ _______ _______ _____ _____    ______ ____
ROOT
ATOM      1  C   UNL     1       2.936   6.787  18.732  0.00  0.00    +0.000 A 
ATOM      2  N   UNL     1       3.787   7.060  17.698  0.00  0.00    +0.000 NA
ATOM      3  C   UNL     1       4.998   6.455  17.649  0.00  0.00    +0.000 A 
ATOM      4  C   UNL     1       5.922   6.738  16.655  0.00  0.00    +0.000 A 
ATOM      5  N   UNL     1       7.191   6.250  16.567  0.00  0.00    +0.000 NA
ATOM      6  C   UNL     1       7.553   5.403  17.538  0.00  0.00    +0.000 A 
ATOM      7  C   UNL     1       6.702   5.017  18.563  0.00  0.00    +0.000 A 
ATOM      8  C   UNL     1       5.408   5.533  18.618  0.00  0.00    +0.000 A 
ATOM      9  N   UNL     1       4.558   5.168  19.593  0.00  0.00    +0.000 NA
ATOM     10  C   UNL     1       3.331   5.777  19.675  0.00  0.00    +0.000 A 
ENDROOT
BRANCH   1  14
ATOM     11  C   UNL     1       0.318  10.293  19.515  0.00  0.00    +0.000 C 
ATOM     12  C   UNL     1       0.591   9.137  20.495  0.00  0.00    +0.000 C 
ATOM     13  C   UNL     1       1.844   8.318  20.201  0.00  0.00    +0.000 C 
ATOM     14  N   UNL     1       1.788   7.659  18.878  0.00  0.00    +0.000 N 
ATOM     15  C   UNL     1       1.551   8.599  17.759  0.00  0.00    +0.000 C 
ATOM     16  C   UNL     1       0.526   9.761  18.070  0.00  0.00    +0.000 C 
BRANCH  11  18
ATOM     17  O   UNL     1       2.032  12.018  19.579  0.00  0.00    +0.000 OA
ATOM     18  C   UNL     1       0.938  11.656  20.034  0.00  0.00    +0.000 C 
BRANCH  18  19
ATOM     19  C   UNL     1       0.333  12.515  21.098  0.00  0.00    +0.000 A 
ATOM     20  C   UNL     1       0.776  13.870  21.423  0.00  0.00    +0.000 A 
ATOM     21  C   UNL     1       0.033  14.487  22.398  0.00  0.00    +0.000 A 
ATOM     22  S   UNL     1      -1.199  13.469  22.981  0.00  0.00    +0.000 S 
ATOM     23  C   UNL     1      -0.731  12.203  21.917  0.00  0.00    +0.000 A 
ENDBRANCH  18  19
ENDBRANCH  11  18
ENDBRANCH   1  14
BRANCH  10  24
ATOM     24  N   UNL     1       2.485   5.342  20.731  0.00  0.00    +0.000 N 
ATOM     25  H   UNL     1       2.863   5.726  21.591  0.00  0.00    +0.000 HD
BRANCH  24  26
ATOM     26  C   UNL     1       2.066   3.918  20.757  0.00  0.00    +0.000 C 
ATOM     27  C   UNL     1       0.717   3.443  20.278  0.00  0.00    +0.000 C 
ATOM     28  C   UNL     1       1.948   3.128  19.480  0.00  0.00    +0.000 C 
ENDBRANCH  24  26
ENDBRANCH  10  24
TORSDOF 5
ENDMDL
