MODEL 1
REMARK VINA RESULT:      -8.0      0.000      0.000
REMARK  Name = 
REMARK  12 active torsions:
REMARK  status: ('A' for Active; 'I' for Inactive)
REMARK    1  A    between atoms: C_1  and  C_2
REMARK    2  A    between atoms: C_2  and  C_3
REMARK    3  A    between atoms: C_7  and  C_8
REMARK    4  A    between atoms: C_8  and  O_10
REMARK    5  A    between atoms: O_10  and  C_11
REMARK    6  A    between atoms: C_11  and  C_12
REMARK    7  A    between atoms: C_15  and  C_16
REMARK    8  A    between atoms: C_16  and  O_18
REMARK    9  A    between atoms: C_21  and  C_22
REMARK   10  A    between atoms: C_22  and  O_23
REMARK   11  A    between atoms: O_23  and  C_24
REMARK   12  A    between atoms: C_24  and  C_25
REMARK                            x       y       z     vdW  Elec       q    Type
REMARK                         _______ _______ _______ _____ _____    ______ ____
ROOT
ATOM      1  C   UNL     1       7.524   6.794  17.510  0.00  0.00    +0.000 C 
ATOM      2  C   UNL     1       7.109   5.995  18.766  0.00  0.00    +0.000 C 
ATOM      3  O   UNL     1       7.535   5.936  19.892  0.00  0.00    +0.000 OA
ATOM      4  N   UNL     1       6.165   5.327  18.057  0.00  0.00    +0.000 N 
ATOM      5  C   UNL     1       5.251   4.315  18.214  0.00  0.00    +0.000 C 
ATOM      6  C   UNL     1       4.717   3.708  17.115  0.00  0.00    +0.000 C 
ATOM      7  C   UNL     1       5.060   4.069  15.669  0.00  0.00    +0.000 C 
ATOM      8  S   UNL     1       6.526   5.055  15.517  0.00  0.00    +0.000 S 
ATOM      9  O   UNL     1       7.669   4.197  15.770  0.00  0.00    +0.000 OA
ATOM     10  O   UNL     1       6.430   5.793  14.270  0.00  0.00    +0.000 OA
ATOM     11  C   UNL     1       6.268   6.168  16.866  0.00  0.00    +0.000 C 
ENDROOT
BRANCH   1  13
ATOM     12  C   UNL     1       8.706   8.710  18.577  0.00  0.00    +0.000 C 
ATOM     13  C   UNL     1       7.558   8.307  17.663  0.00  0.00    +0.000 C 
ENDBRANCH   1  13
BRANCH   5  14
ATOM     14  C   UNL     1       4.818   3.904  19.616  0.00  0.00    +0.000 C 
ATOM     15  O   UNL     1       4.890   2.758  20.034  0.00  0.00    +0.000 OA
BRANCH  14  16
ATOM     16  O   UNL     1       4.246   4.925  20.284  0.00  0.00    +0.000 OA
BRANCH  16  17
ATOM     17  C   UNL     1       2.812   5.018  20.256  0.00  0.00    +0.000 C 
BRANCH  17  18
ATOM     18  C   UNL     1       2.330   6.365  19.766  0.00  0.00    +0.000 A 
ATOM     19  C   UNL     1       1.710   7.278  20.630  0.00  0.00    +0.000 A 
ATOM     20  C   UNL     1       1.342   8.552  20.181  0.00  0.00    +0.000 A 
ATOM     21  C   UNL     1       1.596   8.928  18.856  0.00  0.00    +0.000 A 
ATOM     22  C   UNL     1       2.243   8.035  17.996  0.00  0.00    +0.000 A 
ATOM     23  C   UNL     1       2.607   6.764  18.449  0.00  0.00    +0.000 A 
BRANCH  21  24
ATOM     24  C   UNL     1       1.257  10.279  18.339  0.00  0.00    +0.000 C 
ATOM     25  O   UNL     1       0.294  10.914  18.727  0.00  0.00    +0.000 OA
BRANCH  24  26
ATOM     26  O   UNL     1       2.139  10.754  17.434  0.00  0.00    +0.000 OA
ATOM     27  H   UNL     1       1.918  10.560  16.504  0.00  0.00    +0.000 HD
ENDBRANCH  24  26
ENDBRANCH  21  24
ENDBRANCH  17  18
ENDBRANCH  16  17
ENDBRANCH  14  16
ENDBRANCH   5  14
BRANCH   6  28
ATOM     28  C   UNL     1       3.783   2.507  17.117  0.00  0.00    +0.000 C 
BRANCH  28  29
ATOM     29  O   UNL     1       2.434   2.968  17.316  0.00  0.00    +0.000 OA
BRANCH  29  30
ATOM     30  C   UNL     1       1.750   2.408  18.349  0.00  0.00    +0.000 C 
ATOM     31  C   UNL     1       0.437   3.101  18.568  0.00  0.00    +0.000 C 
ATOM     32  O   UNL     1       2.129   1.457  19.021  0.00  0.00    +0.000 OA
ENDBRANCH  29  30
ENDBRANCH  28  29
ENDBRANCH   6  28
TORSDOF 10
ENDMDL
MODEL 2
REMARK VINA RESULT:      -7.7      0.724      1.181
REMARK  Name = 
REMARK  12 active torsions:
REMARK  status: ('A' for Active; 'I' for Inactive)
REMARK    1  A    between atoms: C_1  and  C_2
REMARK    2  A    between atoms: C_2  and  C_3
REMARK    3  A    between atoms: C_7  and  C_8
REMARK    4  A    between atoms: C_8  and  O_10
REMARK    5  A    between atoms: O_10  and  C_11
REMARK    6  A    between atoms: C_11  and  C_12
REMARK    7  A    between atoms: C_15  and  C_16
REMARK    8  A    between atoms: C_16  and  O_18
REMARK    9  A    between atoms: C_21  and  C_22
REMARK   10  A    between atoms: C_22  and  O_23
REMARK   11  A    between atoms: O_23  and  C_24
REMARK   12  A    between atoms: C_24  and  C_25
REMARK                            x       y       z     vdW  Elec       q    Type
REMARK                         _______ _______ _______ _____ _____    ______ ____
ROOT
ATOM      1  C   UNL     1       7.587   6.800  17.506  0.00  0.00    +0.000 C 
ATOM      2  C   UNL     1       7.149   6.028  18.771  0.00  0.00    +0.000 C 
ATOM      3  O   UNL     1       7.563   5.983  19.903  0.00  0.00    +0.000 OA
ATOM      4  N   UNL     1       6.204   5.360  18.063  0.00  0.00    +0.000 N 
ATOM      5  C   UNL     1       5.276   4.362  18.227  0.00  0.00    +0.000 C 
ATOM      6  C   UNL     1       4.747   3.742  17.133  0.00  0.00    +0.000 C 
ATOM      7  C   UNL     1       5.109   4.075  15.685  0.00  0.00    +0.000 C 
ATOM      8  S   UNL     1       6.590   5.040  15.532  0.00  0.00    +0.000 S 
ATOM      9  O   UNL     1       7.719   4.173  15.812  0.00  0.00    +0.000 OA
ATOM     10  O   UNL     1       6.516   5.758  14.272  0.00  0.00    +0.000 OA
ATOM     11  C   UNL     1       6.330   6.179  16.859  0.00  0.00    +0.000 C 
ENDROOT
BRANCH   1  13
ATOM     12  C   UNL     1       8.726   8.717  18.619  0.00  0.00    +0.000 C 
ATOM     13  C   UNL     1       7.638   8.316  17.634  0.00  0.00    +0.000 C 
ENDBRANCH   1  13
BRANCH   5  14
ATOM     14  C   UNL     1       4.823   3.979  19.632  0.00  0.00    +0.000 C 
ATOM     15  O   UNL     1       4.891   2.843  20.074  0.00  0.00    +0.000 OA
BRANCH  14  16
ATOM     16  O   UNL     1       4.241   5.014  20.268  0.00  0.00    +0.000 OA
BRANCH  16  17
ATOM     17  C   UNL     1       2.810   5.128  20.182  0.00  0.00    +0.000 C 
BRANCH  17  18
ATOM     18  C   UNL     1       2.362   6.536  19.863  0.00  0.00    +0.000 A 
ATOM     19  C   UNL     1       2.502   7.073  18.576  0.00  0.00    +0.000 A 
ATOM     20  C   UNL     1       2.010   8.348  18.275  0.00  0.00    +0.000 A 
ATOM     21  C   UNL     1       1.364   9.101  19.263  0.00  0.00    +0.000 A 
ATOM     22  C   UNL     1       1.191   8.560  20.541  0.00  0.00    +0.000 A 
ATOM     23  C   UNL     1       1.686   7.287  20.837  0.00  0.00    +0.000 A 
BRANCH  21  24
ATOM     24  C   UNL     1       0.793  10.445  18.987  0.00  0.00    +0.000 C 
ATOM     25  O   UNL     1       0.825  11.356  19.794  0.00  0.00    +0.000 OA
BRANCH  24  26
ATOM     26  O   UNL     1       0.279  10.575  17.746  0.00  0.00    +0.000 OA
ATOM     27  H   UNL     1      -0.609  10.190  17.628  0.00  0.00    +0.000 HD
ENDBRANCH  24  26
ENDBRANCH  21  24
ENDBRANCH  17  18
ENDBRANCH  16  17
ENDBRANCH  14  16
ENDBRANCH   5  14
BRANCH   6  28
ATOM     28  C   UNL     1       3.799   2.553  17.145  0.00  0.00    +0.000 C 
BRANCH  28  29
ATOM     29  O   UNL     1       2.477   3.010  16.806  0.00  0.00    +0.000 OA
BRANCH  29  30
ATOM     30  C   UNL     1       1.559   3.004  17.810  0.00  0.00    +0.000 C 
ATOM     31  C   UNL     1       1.827   1.891  18.782  0.00  0.00    +0.000 C 
ATOM     32  O   UNL     1       0.634   3.796  17.934  0.00  0.00    +0.000 OA
ENDBRANCH  29  30
ENDBRANCH  28  29
ENDBRANCH   6  28
TORSDOF 10
ENDMDL
MODEL 3
REMARK VINA RESULT:      -7.2      2.377      5.297
REMARK  Name = 
REMARK  12 active torsions:
REMARK  status: ('A' for Active; 'I' for Inactive)
REMARK    1  A    between atoms: C_1  and  C_2
REMARK    2  A    between atoms: C_2  and  C_3
REMARK    3  A    between atoms: C_7  and  C_8
REMARK    4  A    between atoms: C_8  and  O_10
REMARK    5  A    between atoms: O_10  and  C_11
REMARK    6  A    between atoms: C_11  and  C_12
REMARK    7  A    between atoms: C_15  and  C_16
REMARK    8  A    between atoms: C_16  and  O_18
REMARK    9  A    between atoms: C_21  and  C_22
REMARK   10  A    between atoms: C_22  and  O_23
REMARK   11  A    between atoms: O_23  and  C_24
REMARK   12  A    between atoms: C_24  and  C_25
REMARK                            x       y       z     vdW  Elec       q    Type
REMARK                         _______ _______ _______ _____ _____    ______ ____
ROOT
ATOM      1  C   UNL     1       1.853   3.452  18.997  0.00  0.00    +0.000 C 
ATOM      2  C   UNL     1       1.791   4.698  18.084  0.00  0.00    +0.000 C 
ATOM      3  O   UNL     1       0.948   5.149  17.349  0.00  0.00    +0.000 OA
ATOM      4  N   UNL     1       3.085   4.995  18.364  0.00  0.00    +0.000 N 
ATOM      5  C   UNL     1       4.058   5.895  18.007  0.00  0.00    +0.000 C 
ATOM      6  C   UNL     1       5.366   5.623  18.286  0.00  0.00    +0.000 C 
ATOM      7  C   UNL     1       5.861   4.358  18.987  0.00  0.00    +0.000 C 
ATOM      8  S   UNL     1       4.652   3.061  19.039  0.00  0.00    +0.000 S 
ATOM      9  O   UNL     1       4.540   2.501  17.704  0.00  0.00    +0.000 OA
ATOM     10  O   UNL     1       4.979   2.203  20.164  0.00  0.00    +0.000 OA
ATOM     11  C   UNL     1       3.220   4.016  19.440  0.00  0.00    +0.000 C 
ENDROOT
BRANCH   1  13
ATOM     12  C   UNL     1       1.371   2.959  21.391  0.00  0.00    +0.000 C 
ATOM     13  C   UNL     1       0.761   3.341  20.050  0.00  0.00    +0.000 C 
ENDBRANCH   1  13
BRANCH   5  14
ATOM     14  C   UNL     1       3.663   7.203  17.333  0.00  0.00    +0.000 C 
ATOM     15  O   UNL     1       3.879   7.446  16.156  0.00  0.00    +0.000 OA
BRANCH  14  16
ATOM     16  O   UNL     1       3.159   8.089  18.215  0.00  0.00    +0.000 OA
BRANCH  16  17
ATOM     17  C   UNL     1       1.964   8.795  17.839  0.00  0.00    +0.000 C 
BRANCH  17  18
ATOM     18  C   UNL     1       1.241   9.380  19.032  0.00  0.00    +0.000 A 
ATOM     19  C   UNL     1       1.268   8.749  20.283  0.00  0.00    +0.000 A 
ATOM     20  C   UNL     1       0.662   9.343  21.397  0.00  0.00    +0.000 A 
ATOM     21  C   UNL     1       0.022  10.582  21.268  0.00  0.00    +0.000 A 
ATOM     22  C   UNL     1       0.018  11.233  20.031  0.00  0.00    +0.000 A 
ATOM     23  C   UNL     1       0.624  10.636  18.922  0.00  0.00    +0.000 A 
BRANCH  21  24
ATOM     24  C   UNL     1      -0.607  11.271  22.425  0.00  0.00    +0.000 C 
ATOM     25  O   UNL     1      -0.943  12.440  22.397  0.00  0.00    +0.000 OA
BRANCH  24  26
ATOM     26  O   UNL     1      -0.812  10.469  23.492  0.00  0.00    +0.000 OA
ATOM     27  H   UNL     1      -1.421   9.724  23.333  0.00  0.00    +0.000 HD
ENDBRANCH  24  26
ENDBRANCH  21  24
ENDBRANCH  17  18
ENDBRANCH  16  17
ENDBRANCH  14  16
ENDBRANCH   5  14
BRANCH   6  28
ATOM     28  C   UNL     1       6.566   6.457  17.863  0.00  0.00    +0.000 C 
BRANCH  28  29
ATOM     29  O   UNL     1       6.688   6.400  16.429  0.00  0.00    +0.000 OA
BRANCH  29  30
ATOM     30  C   UNL     1       6.972   5.182  15.896  0.00  0.00    +0.000 C 
ATOM     31  C   UNL     1       5.992   4.820  14.818  0.00  0.00    +0.000 C 
ATOM     32  O   UNL     1       7.905   4.460  16.226  0.00  0.00    +0.000 OA
ENDBRANCH  29  30
ENDBRANCH  28  29
ENDBRANCH   6  28
TORSDOF 10
ENDMDL
MODEL 4
REMARK VINA RESULT:      -7.2      2.318      3.869
REMARK  Name = 
REMARK  12 active torsions:
REMARK  status: ('A' for Active; 'I' for Inactive)
REMARK    1  A    between atoms: C_1  and  C_2
REMARK    2  A    between atoms: C_2  and  C_3
REMARK    3  A    between atoms: C_7  and  C_8
REMARK    4  A    between atoms: C_8  and  O_10
REMARK    5  A    between atoms: O_10  and  C_11
REMARK    6  A    between atoms: C_11  and  C_12
REMARK    7  A    between atoms: C_15  and  C_16
REMARK    8  A    between atoms: C_16  and  O_18
REMARK    9  A    between atoms: C_21  and  C_22
REMARK   10  A    between atoms: C_22  and  O_23
REMARK   11  A    between atoms: O_23  and  C_24
REMARK   12  A    between atoms: C_24  and  C_25
REMARK                            x       y       z     vdW  Elec       q    Type
REMARK                         _______ _______ _______ _____ _____    ______ ____
ROOT
ATOM      1  C   UNL     1       6.846   5.664  15.309  0.00  0.00    +0.000 C 
ATOM      2  C   UNL     1       5.490   6.357  15.568  0.00  0.00    +0.000 C 
ATOM      3  O   UNL     1       4.880   7.229  15.000  0.00  0.00    +0.000 OA
ATOM      4  N   UNL     1       5.335   5.671  16.728  0.00  0.00    +0.000 N 
ATOM      5  C   UNL     1       4.475   5.589  17.795  0.00  0.00    +0.000 C 
ATOM      6  C   UNL     1       4.884   4.985  18.948  0.00  0.00    +0.000 C 
ATOM      7  C   UNL     1       6.266   4.369  19.165  0.00  0.00    +0.000 C 
ATOM      8  S   UNL     1       7.459   4.868  17.951  0.00  0.00    +0.000 S 
ATOM      9  O   UNL     1       7.825   6.246  18.224  0.00  0.00    +0.000 OA
ATOM     10  O   UNL     1       8.482   3.839  17.895  0.00  0.00    +0.000 OA
ATOM     11  C   UNL     1       6.456   4.762  16.500  0.00  0.00    +0.000 C 
ENDROOT
BRANCH   1  13
ATOM     12  C   UNL     1       5.974   3.903  13.778  0.00  0.00    +0.000 C 
ATOM     13  C   UNL     1       7.010   5.004  13.948  0.00  0.00    +0.000 C 
ENDBRANCH   1  13
BRANCH   5  14
ATOM     14  C   UNL     1       3.061   6.144  17.666  0.00  0.00    +0.000 C 
ATOM     15  O   UNL     1       2.085   5.450  17.426  0.00  0.00    +0.000 OA
BRANCH  14  16
ATOM     16  O   UNL     1       3.044   7.489  17.734  0.00  0.00    +0.000 OA
BRANCH  16  17
ATOM     17  C   UNL     1       1.761   8.137  17.779  0.00  0.00    +0.000 C 
BRANCH  17  18
ATOM     18  C   UNL     1       1.382   8.570  19.177  0.00  0.00    +0.000 A 
ATOM     19  C   UNL     1       0.657   9.748  19.405  0.00  0.00    +0.000 A 
ATOM     20  C   UNL     1       0.244  10.095  20.697  0.00  0.00    +0.000 A 
ATOM     21  C   UNL     1       0.549   9.259  21.778  0.00  0.00    +0.000 A 
ATOM     22  C   UNL     1       1.243   8.066  21.555  0.00  0.00    +0.000 A 
ATOM     23  C   UNL     1       1.656   7.725  20.264  0.00  0.00    +0.000 A 
BRANCH  21  24
ATOM     24  C   UNL     1       0.105   9.564  23.163  0.00  0.00    +0.000 C 
ATOM     25  O   UNL     1       0.867   9.594  24.111  0.00  0.00    +0.000 OA
BRANCH  24  26
ATOM     26  O   UNL     1      -1.211   9.848  23.263  0.00  0.00    +0.000 OA
ATOM     27  H   UNL     1      -1.456  10.755  23.001  0.00  0.00    +0.000 HD
ENDBRANCH  24  26
ENDBRANCH  21  24
ENDBRANCH  17  18
ENDBRANCH  16  17
ENDBRANCH  14  16
ENDBRANCH   5  14
BRANCH   6  28
ATOM     28  C   UNL     1       4.098   4.910  20.249  0.00  0.00    +0.000 C 
BRANCH  28  29
ATOM     29  O   UNL     1       3.306   3.708  20.244  0.00  0.00    +0.000 OA
BRANCH  29  30
ATOM     30  C   UNL     1       2.271   3.663  21.125  0.00  0.00    +0.000 C 
ATOM     31  C   UNL     1       0.993   4.118  20.483  0.00  0.00    +0.000 C 
ATOM     32  O   UNL     1       2.344   3.294  22.290  0.00  0.00    +0.000 OA
ENDBRANCH  29  30
ENDBRANCH  28  29
ENDBRANCH   6  28
TORSDOF 10
ENDMDL
MODEL 5
REMARK VINA RESULT:      -7.1      0.896      1.186
REMARK  Name = 
REMARK  12 active torsions:
REMARK  status: ('A' for Active; 'I' for Inactive)
REMARK    1  A    between atoms: C_1  and  C_2
REMARK    2  A    between atoms: C_2  and  C_3
REMARK    3  A    between atoms: C_7  and  C_8
REMARK    4  A    between atoms: C_8  and  O_10
REMARK    5  A    between atoms: O_10  and  C_11
REMARK    6  A    between atoms: C_11  and  C_12
REMARK    7  A    between atoms: C_15  and  C_16
REMARK    8  A    between atoms: C_16  and  O_18
REMARK    9  A    between atoms: C_21  and  C_22
REMARK   10  A    between atoms: C_22  and  O_23
REMARK   11  A    between atoms: O_23  and  C_24
REMARK   12  A    between atoms: C_24  and  C_25
REMARK                            x       y       z     vdW  Elec       q    Type
REMARK                         _______ _______ _______ _____ _____    ______ ____
ROOT
ATOM      1  C   UNL     1       7.645   6.796  17.557  0.00  0.00    +0.000 C 
ATOM      2  C   UNL     1       7.064   6.092  18.803  0.00  0.00    +0.000 C 
ATOM      3  O   UNL     1       7.357   6.097  19.973  0.00  0.00    +0.000 OA
ATOM      4  N   UNL     1       6.186   5.403  18.032  0.00  0.00    +0.000 N 
ATOM      5  C   UNL     1       5.228   4.426  18.145  0.00  0.00    +0.000 C 
ATOM      6  C   UNL     1       4.805   3.761  17.031  0.00  0.00    +0.000 C 
ATOM      7  C   UNL     1       5.322   4.018  15.615  0.00  0.00    +0.000 C 
ATOM      8  S   UNL     1       6.827   4.956  15.573  0.00  0.00    +0.000 S 
ATOM      9  O   UNL     1       7.906   4.088  16.011  0.00  0.00    +0.000 OA
ATOM     10  O   UNL     1       6.898   5.612  14.281  0.00  0.00    +0.000 OA
ATOM     11  C   UNL     1       6.452   6.160  16.811  0.00  0.00    +0.000 C 
ENDROOT
BRANCH   1  13
ATOM     12  C   UNL     1       8.734   8.749  18.656  0.00  0.00    +0.000 C 
ATOM     13  C   UNL     1       7.710   8.315  17.617  0.00  0.00    +0.000 C 
ENDBRANCH   1  13
BRANCH   5  14
ATOM     14  C   UNL     1       4.625   4.119  19.511  0.00  0.00    +0.000 C 
ATOM     15  O   UNL     1       4.868   3.101  20.140  0.00  0.00    +0.000 OA
BRANCH  14  16
ATOM     16  O   UNL     1       3.714   5.042  19.875  0.00  0.00    +0.000 OA
BRANCH  16  17
ATOM     17  C   UNL     1       3.103   5.822  18.832  0.00  0.00    +0.000 C 
BRANCH  17  18
ATOM     18  C   UNL     1       2.301   6.983  19.374  0.00  0.00    +0.000 A 
ATOM     19  C   UNL     1       1.825   6.989  20.692  0.00  0.00    +0.000 A 
ATOM     20  C   UNL     1       1.153   8.105  21.205  0.00  0.00    +0.000 A 
ATOM     21  C   UNL     1       0.953   9.233  20.400  0.00  0.00    +0.000 A 
ATOM     22  C   UNL     1       1.453   9.248  19.094  0.00  0.00    +0.000 A 
ATOM     23  C   UNL     1       2.122   8.131  18.586  0.00  0.00    +0.000 A 
BRANCH  21  24
ATOM     24  C   UNL     1       0.277  10.456  20.906  0.00  0.00    +0.000 C 
ATOM     25  O   UNL     1      -0.630  10.423  21.716  0.00  0.00    +0.000 OA
BRANCH  24  26
ATOM     26  O   UNL     1       0.792  11.605  20.419  0.00  0.00    +0.000 OA
ATOM     27  H   UNL     1       1.141  12.217  21.093  0.00  0.00    +0.000 HD
ENDBRANCH  24  26
ENDBRANCH  21  24
ENDBRANCH  17  18
ENDBRANCH  16  17
ENDBRANCH  14  16
ENDBRANCH   5  14
BRANCH   6  28
ATOM     28  C   UNL     1       3.839   2.586  17.000  0.00  0.00    +0.000 C 
BRANCH  28  29
ATOM     29  O   UNL     1       2.522   3.060  17.337  0.00  0.00    +0.000 OA
BRANCH  29  30
ATOM     30  C   UNL     1       1.886   2.409  18.349  0.00  0.00    +0.000 C 
ATOM     31  C   UNL     1       0.565   3.050  18.659  0.00  0.00    +0.000 C 
ATOM     32  O   UNL     1       2.310   1.423  18.937  0.00  0.00    +0.000 OA
ENDBRANCH  29  30
ENDBRANCH  28  29
ENDBRANCH   6  28
TORSDOF 10
ENDMDL
MODEL 6
REMARK VINA RESULT:      -7.1      2.349      5.506
REMARK  Name = 
REMARK  12 active torsions:
REMARK  status: ('A' for Active; 'I' for Inactive)
REMARK    1  A    between atoms: C_1  and  C_2
REMARK    2  A    between atoms: C_2  and  C_3
REMARK    3  A    between atoms: C_7  and  C_8
REMARK    4  A    between atoms: C_8  and  O_10
REMARK    5  A    between atoms: O_10  and  C_11
REMARK    6  A    between atoms: C_11  and  C_12
REMARK    7  A    between atoms: C_15  and  C_16
REMARK    8  A    between atoms: C_16  and  O_18
REMARK    9  A    between atoms: C_21  and  C_22
REMARK   10  A    between atoms: C_22  and  O_23
REMARK   11  A    between atoms: O_23  and  C_24
REMARK   12  A    between atoms: C_24  and  C_25
REMARK                            x       y       z     vdW  Elec       q    Type
REMARK                         _______ _______ _______ _____ _____    ______ ____
ROOT
ATOM      1  C   UNL     1       1.945   3.559  19.354  0.00  0.00    +0.000 C 
ATOM      2  C   UNL     1       2.059   4.626  18.242  0.00  0.00    +0.000 C 
ATOM      3  O   UNL     1       1.276   5.089  17.451  0.00  0.00    +0.000 OA
ATOM      4  N   UNL     1       3.395   4.735  18.452  0.00  0.00    +0.000 N 
ATOM      5  C   UNL     1       4.492   5.378  17.935  0.00  0.00    +0.000 C 
ATOM      6  C   UNL     1       5.745   4.931  18.241  0.00  0.00    +0.000 C 
ATOM      7  C   UNL     1       6.045   3.733  19.143  0.00  0.00    +0.000 C 
ATOM      8  S   UNL     1       4.636   2.695  19.431  0.00  0.00    +0.000 S 
ATOM      9  O   UNL     1       4.374   1.950  18.213  0.00  0.00    +0.000 OA
ATOM     10  O   UNL     1       4.857   1.994  20.682  0.00  0.00    +0.000 OA
ATOM     11  C   UNL     1       3.406   3.941  19.679  0.00  0.00    +0.000 C 
ENDROOT
BRANCH   1  13
ATOM     12  C   UNL     1       1.179   2.961  21.648  0.00  0.00    +0.000 C 
ATOM     13  C   UNL     1       0.894   3.819  20.424  0.00  0.00    +0.000 C 
ENDBRANCH   1  13
BRANCH   5  14
ATOM     14  C   UNL     1       4.298   6.604  17.051  0.00  0.00    +0.000 C 
ATOM     15  O   UNL     1       4.553   6.620  15.857  0.00  0.00    +0.000 OA
BRANCH  14  16
ATOM     16  O   UNL     1       3.928   7.683  17.767  0.00  0.00    +0.000 OA
BRANCH  16  17
ATOM     17  C   UNL     1       2.609   8.210  17.542  0.00  0.00    +0.000 C 
BRANCH  17  18
ATOM     18  C   UNL     1       1.907   8.578  18.829  0.00  0.00    +0.000 A 
ATOM     19  C   UNL     1       1.030   9.670  18.897  0.00  0.00    +0.000 A 
ATOM     20  C   UNL     1       0.326   9.950  20.074  0.00  0.00    +0.000 A 
ATOM     21  C   UNL     1       0.490   9.133  21.200  0.00  0.00    +0.000 A 
ATOM     22  C   UNL     1       1.337   8.024  21.131  0.00  0.00    +0.000 A 
ATOM     23  C   UNL     1       2.040   7.749  19.954  0.00  0.00    +0.000 A 
BRANCH  21  24
ATOM     24  C   UNL     1      -0.259   9.366  22.462  0.00  0.00    +0.000 C 
ATOM     25  O   UNL     1      -1.100   8.595  22.885  0.00  0.00    +0.000 OA
BRANCH  24  26
ATOM     26  O   UNL     1       0.111  10.488  23.116  0.00  0.00    +0.000 OA
ATOM     27  H   UNL     1       1.051  10.728  23.020  0.00  0.00    +0.000 HD
ENDBRANCH  24  26
ENDBRANCH  21  24
ENDBRANCH  17  18
ENDBRANCH  16  17
ENDBRANCH  14  16
ENDBRANCH   5  14
BRANCH   6  28
ATOM     28  C   UNL     1       7.051   5.459  17.667  0.00  0.00    +0.000 C 
BRANCH  28  29
ATOM     29  O   UNL     1       7.547   6.503  18.526  0.00  0.00    +0.000 OA
BRANCH  29  30
ATOM     30  C   UNL     1       7.827   7.693  17.930  0.00  0.00    +0.000 C 
ATOM     31  C   UNL     1       8.670   8.558  18.820  0.00  0.00    +0.000 C 
ATOM     32  O   UNL     1       7.460   8.033  16.812  0.00  0.00    +0.000 OA
ENDBRANCH  29  30
ENDBRANCH  28  29
ENDBRANCH   6  28
TORSDOF 10
ENDMDL
MODEL 7
REMARK VINA RESULT:      -6.9      2.135      3.484
REMARK  Name = 
REMARK  12 active torsions:
REMARK  status: ('A' for Active; 'I' for Inactive)
REMARK    1  A    between atoms: C_1  and  C_2
REMARK    2  A    between atoms: C_2  and  C_3
REMARK    3  A    between atoms: C_7  and  C_8
REMARK    4  A    between atoms: C_8  and  O_10
REMARK    5  A    between atoms: O_10  and  C_11
REMARK    6  A    between atoms: C_11  and  C_12
REMARK    7  A    between atoms: C_15  and  C_16
REMARK    8  A    between atoms: C_16  and  O_18
REMARK    9  A    between atoms: C_21  and  C_22
REMARK   10  A    between atoms: C_22  and  O_23
REMARK   11  A    between atoms: O_23  and  C_24
REMARK   12  A    between atoms: C_24  and  C_25
REMARK                            x       y       z     vdW  Elec       q    Type
REMARK                         _______ _______ _______ _____ _____    ______ ____
ROOT
ATOM      1  C   UNL     1       6.800   5.683  15.426  0.00  0.00    +0.000 C 
ATOM      2  C   UNL     1       5.376   6.223  15.686  0.00  0.00    +0.000 C 
ATOM      3  O   UNL     1       4.686   7.047  15.139  0.00  0.00    +0.000 OA
ATOM      4  N   UNL     1       5.279   5.484  16.820  0.00  0.00    +0.000 N 
ATOM      5  C   UNL     1       4.420   5.276  17.870  0.00  0.00    +0.000 C 
ATOM      6  C   UNL     1       4.875   4.678  19.009  0.00  0.00    +0.000 C 
ATOM      7  C   UNL     1       6.311   4.200  19.226  0.00  0.00    +0.000 C 
ATOM      8  S   UNL     1       7.461   4.861  18.048  0.00  0.00    +0.000 S 
ATOM      9  O   UNL     1       7.679   6.259  18.373  0.00  0.00    +0.000 OA
ATOM     10  O   UNL     1       8.585   3.946  17.973  0.00  0.00    +0.000 OA
ATOM     11  C   UNL     1       6.491   4.704  16.579  0.00  0.00    +0.000 C 
ENDROOT
BRANCH   1  13
ATOM     12  C   UNL     1       6.216   3.830  13.866  0.00  0.00    +0.000 C 
ATOM     13  C   UNL     1       7.048   5.092  14.046  0.00  0.00    +0.000 C 
ENDBRANCH   1  13
BRANCH   5  14
ATOM     14  C   UNL     1       2.958   5.687  17.738  0.00  0.00    +0.000 C 
ATOM     15  O   UNL     1       2.067   4.913  17.427  0.00  0.00    +0.000 OA
BRANCH  14  16
ATOM     16  O   UNL     1       2.796   7.016  17.892  0.00  0.00    +0.000 OA
BRANCH  16  17
ATOM     17  C   UNL     1       2.368   7.489  19.180  0.00  0.00    +0.000 C 
BRANCH  17  18
ATOM     18  C   UNL     1       1.467   8.700  19.080  0.00  0.00    +0.000 A 
ATOM     19  C   UNL     1       1.105   9.239  17.838  0.00  0.00    +0.000 A 
ATOM     20  C   UNL     1       0.207  10.310  17.758  0.00  0.00    +0.000 A 
ATOM     21  C   UNL     1      -0.344  10.851  18.926  0.00  0.00    +0.000 A 
ATOM     22  C   UNL     1      -0.013  10.299  20.167  0.00  0.00    +0.000 A 
ATOM     23  C   UNL     1       0.885   9.231  20.242  0.00  0.00    +0.000 A 
BRANCH  21  24
ATOM     24  C   UNL     1      -1.328  11.965  18.895  0.00  0.00    +0.000 C 
ATOM     25  O   UNL     1      -2.052  12.235  19.834  0.00  0.00    +0.000 OA
BRANCH  24  26
ATOM     26  O   UNL     1      -1.311  12.675  17.747  0.00  0.00    +0.000 OA
ATOM     27  H   UNL     1      -1.679  13.575  17.815  0.00  0.00    +0.000 HD
ENDBRANCH  24  26
ENDBRANCH  21  24
ENDBRANCH  17  18
ENDBRANCH  16  17
ENDBRANCH  14  16
ENDBRANCH   5  14
BRANCH   6  28
ATOM     28  C   UNL     1       4.086   4.477  20.293  0.00  0.00    +0.000 C 
BRANCH  28  29
ATOM     29  O   UNL     1       3.570   3.133  20.315  0.00  0.00    +0.000 OA
BRANCH  29  30
ATOM     30  C   UNL     1       2.216   3.005  20.283  0.00  0.00    +0.000 C 
ATOM     31  C   UNL     1       1.544   4.208  20.876  0.00  0.00    +0.000 C 
ATOM     32  O   UNL     1       1.603   2.048  19.827  0.00  0.00    +0.000 OA
ENDBRANCH  29  30
ENDBRANCH  28  29
ENDBRANCH   6  28
TORSDOF 10
ENDMDL
MODEL 8
REMARK VINA RESULT:      -6.8      2.879      6.386
REMARK  Name = 
REMARK  12 active torsions:
REMARK  status: ('A' for Active; 'I' for Inactive)
REMARK    1  A    between atoms: C_1  and  C_2
REMARK    2  A    between atoms: C_2  and  C_3
REMARK    3  A    between atoms: C_7  and  C_8
REMARK    4  A    between atoms: C_8  and  O_10
REMARK    5  A    between atoms: O_10  and  C_11
REMARK    6  A    between atoms: C_11  and  C_12
REMARK    7  A    between atoms: C_15  and  C_16
REMARK    8  A    between atoms: C_16  and  O_18
REMARK    9  A    between atoms: C_21  and  C_22
REMARK   10  A    between atoms: C_22  and  O_23
REMARK   11  A    between atoms: O_23  and  C_24
REMARK   12  A    between atoms: C_24  and  C_25
REMARK                            x       y       z     vdW  Elec       q    Type
REMARK                         _______ _______ _______ _____ _____    ______ ____
ROOT
ATOM      1  C   UNL     1       1.947   6.439  19.516  0.00  0.00    +0.000 C 
ATOM      2  C   UNL     1       2.819   7.287  18.563  0.00  0.00    +0.000 C 
ATOM      3  O   UNL     1       2.744   8.419  18.153  0.00  0.00    +0.000 OA
ATOM      4  N   UNL     1       3.615   6.219  18.304  0.00  0.00    +0.000 N 
ATOM      5  C   UNL     1       4.681   5.869  17.513  0.00  0.00    +0.000 C 
ATOM      6  C   UNL     1       4.968   4.551  17.310  0.00  0.00    +0.000 C 
ATOM      7  C   UNL     1       4.179   3.386  17.908  0.00  0.00    +0.000 C 
ATOM      8  S   UNL     1       2.595   3.863  18.550  0.00  0.00    +0.000 S 
ATOM      9  O   UNL     1       1.717   4.123  17.423  0.00  0.00    +0.000 OA
ATOM     10  O   UNL     1       2.219   2.887  19.557  0.00  0.00    +0.000 OA
ATOM     11  C   UNL     1       3.050   5.371  19.351  0.00  0.00    +0.000 C 
ENDROOT
BRANCH   1  13
ATOM     12  C   UNL     1       0.792   8.214  20.828  0.00  0.00    +0.000 C 
ATOM     13  C   UNL     1       1.725   7.014  20.907  0.00  0.00    +0.000 C 
ENDBRANCH   1  13
BRANCH   5  14
ATOM     14  C   UNL     1       5.552   6.958  16.898  0.00  0.00    +0.000 C 
ATOM     15  O   UNL     1       5.533   7.244  15.711  0.00  0.00    +0.000 OA
BRANCH  14  16
ATOM     16  O   UNL     1       6.414   7.476  17.795  0.00  0.00    +0.000 OA
BRANCH  16  17
ATOM     17  C   UNL     1       7.716   7.860  17.320  0.00  0.00    +0.000 C 
BRANCH  17  18
ATOM     18  C   UNL     1       8.214   9.132  17.970  0.00  0.00    +0.000 A 
ATOM     19  C   UNL     1       9.019   9.099  19.116  0.00  0.00    +0.000 A 
ATOM     20  C   UNL     1       9.539  10.280  19.660  0.00  0.00    +0.000 A 
ATOM     21  C   UNL     1       9.260  11.511  19.055  0.00  0.00    +0.000 A 
ATOM     22  C   UNL     1       8.484  11.550  17.892  0.00  0.00    +0.000 A 
ATOM     23  C   UNL     1       7.966  10.369  17.355  0.00  0.00    +0.000 A 
BRANCH  21  24
ATOM     24  C   UNL     1       9.814  12.790  19.571  0.00  0.00    +0.000 C 
ATOM     25  O   UNL     1      10.473  12.861  20.592  0.00  0.00    +0.000 OA
BRANCH  24  26
ATOM     26  O   UNL     1       9.559  13.854  18.780  0.00  0.00    +0.000 OA
ATOM     27  H   UNL     1      10.266  14.525  18.754  0.00  0.00    +0.000 HD
ENDBRANCH  24  26
ENDBRANCH  21  24
ENDBRANCH  17  18
ENDBRANCH  16  17
ENDBRANCH  14  16
ENDBRANCH   5  14
BRANCH   6  28
ATOM     28  C   UNL     1       6.038   3.998  16.380  0.00  0.00    +0.000 C 
BRANCH  28  29
ATOM     29  O   UNL     1       5.575   4.111  15.022  0.00  0.00    +0.000 OA
BRANCH  29  30
ATOM     30  C   UNL     1       6.520   4.383  14.082  0.00  0.00    +0.000 C 
ATOM     31  C   UNL     1       6.285   3.588  12.832  0.00  0.00    +0.000 C 
ATOM     32  O   UNL     1       7.444   5.176  14.211  0.00  0.00    +0.000 OA
ENDBRANCH  29  30
ENDBRANCH  28  29
ENDBRANCH   6  28
TORSDOF 10
ENDMDL
MODEL 9
REMARK VINA RESULT:      -6.6      2.728      5.608
REMARK  Name = 
REMARK  12 active torsions:
REMARK  status: ('A' for Active; 'I' for Inactive)
REMARK    1  A    between atoms: C_1  and  C_2
REMARK    2  A    between atoms: C_2  and  C_3
REMARK    3  A    between atoms: C_7  and  C_8
REMARK    4  A    between atoms: C_8  and  O_10
REMARK    5  A    between atoms: O_10  and  C_11
REMARK    6  A    between atoms: C_11  and  C_12
REMARK    7  A    between atoms: C_15  and  C_16
REMARK    8  A    between atoms: C_16  and  O_18
REMARK    9  A    between atoms: C_21  and  C_22
REMARK   10  A    between atoms: C_22  and  O_23
REMARK   11  A    between atoms: O_23  and  C_24
REMARK   12  A    between atoms: C_24  and  C_25
REMARK                            x       y       z     vdW  Elec       q    Type
REMARK                         _______ _______ _______ _____ _____    ______ ____
ROOT
ATOM      1  C   UNL     1       1.439   3.076  20.009  0.00  0.00    +0.000 C 
ATOM      2  C   UNL     1       1.101   4.583  19.979  0.00  0.00    +0.000 C 
ATOM      3  O   UNL     1       0.160   5.232  20.365  0.00  0.00    +0.000 OA
ATOM      4  N   UNL     1       2.221   4.844  19.260  0.00  0.00    +0.000 N 
ATOM      5  C   UNL     1       2.851   5.892  18.637  0.00  0.00    +0.000 C 
ATOM      6  C   UNL     1       3.820   5.645  17.709  0.00  0.00    +0.000 C 
ATOM      7  C   UNL     1       4.285   4.250  17.287  0.00  0.00    +0.000 C 
ATOM      8  S   UNL     1       3.175   2.957  17.781  0.00  0.00    +0.000 S 
ATOM      9  O   UNL     1       2.001   3.028  16.931  0.00  0.00    +0.000 OA
ATOM     10  O   UNL     1       3.944   1.729  17.863  0.00  0.00    +0.000 OA
ATOM     11  C   UNL     1       2.798   3.511  19.417  0.00  0.00    +0.000 C 
ENDROOT
BRANCH   1  13
ATOM     12  C   UNL     1       2.878   2.142  21.816  0.00  0.00    +0.000 C 
ATOM     13  C   UNL     1       1.446   2.420  21.382  0.00  0.00    +0.000 C 
ENDBRANCH   1  13
BRANCH   5  14
ATOM     14  C   UNL     1       2.483   7.323  19.014  0.00  0.00    +0.000 C 
ATOM     15  O   UNL     1       2.506   7.744  20.160  0.00  0.00    +0.000 OA
BRANCH  14  16
ATOM     16  O   UNL     1       2.023   8.016  17.954  0.00  0.00    +0.000 OA
BRANCH  16  17
ATOM     17  C   UNL     1       2.053   9.452  18.036  0.00  0.00    +0.000 C 
BRANCH  17  18
ATOM     18  C   UNL     1       0.676  10.047  18.226  0.00  0.00    +0.000 A 
ATOM     19  C   UNL     1       0.483  11.214  18.978  0.00  0.00    +0.000 A 
ATOM     20  C   UNL     1      -0.785  11.798  19.079  0.00  0.00    +0.000 A 
ATOM     21  C   UNL     1      -1.878  11.219  18.422  0.00  0.00    +0.000 A 
ATOM     22  C   UNL     1      -1.688  10.073  17.645  0.00  0.00    +0.000 A 
ATOM     23  C   UNL     1      -0.421   9.493  17.548  0.00  0.00    +0.000 A 
BRANCH  21  24
ATOM     24  C   UNL     1      -3.237  11.818  18.470  0.00  0.00    +0.000 C 
ATOM     25  O   UNL     1      -3.776  12.155  19.507  0.00  0.00    +0.000 OA
BRANCH  24  26
ATOM     26  O   UNL     1      -3.798  11.994  17.254  0.00  0.00    +0.000 OA
ATOM     27  H   UNL     1      -4.666  12.439  17.263  0.00  0.00    +0.000 HD
ENDBRANCH  24  26
ENDBRANCH  21  24
ENDBRANCH  17  18
ENDBRANCH  16  17
ENDBRANCH  14  16
ENDBRANCH   5  14
BRANCH   6  28
ATOM     28  C   UNL     1       4.531   6.683  16.855  0.00  0.00    +0.000 C 
BRANCH  28  29
ATOM     29  O   UNL     1       5.872   6.228  16.591  0.00  0.00    +0.000 OA
BRANCH  29  30
ATOM     30  C   UNL     1       6.868   6.860  17.267  0.00  0.00    +0.000 C 
ATOM     31  C   UNL     1       7.424   5.988  18.354  0.00  0.00    +0.000 C 
ATOM     32  O   UNL     1       7.283   7.989  17.032  0.00  0.00    +0.000 OA
ENDBRANCH  29  30
ENDBRANCH  28  29
ENDBRANCH   6  28
TORSDOF 10
ENDMDL
