MODEL 1
REMARK VINA RESULT:      -8.2      0.000      0.000
REMARK  Name = 
REMARK  5 active torsions:
REMARK  status: ('A' for Active; 'I' for Inactive)
REMARK    1  A    between atoms: C_2  and  C_3
REMARK    2  A    between atoms: C_3  and  N_4
REMARK    3  A    between atoms: C_5  and  C_7
REMARK    4  A    between atoms: C_11  and  N_12
REMARK    5  A    between atoms: N_16  and  C_17
REMARK                            x       y       z     vdW  Elec       q    Type
REMARK                         _______ _______ _______ _____ _____    ______ ____
ROOT
ATOM      1  O   UNL     1       6.092   5.406  19.914  0.00  0.00    +0.000 OA
ATOM      2  C   UNL     1       5.920   5.492  18.700  0.00  0.00    +0.000 C 
ATOM      3  N   UNL     1       4.912   4.810  18.039  0.00  0.00    +0.000 N 
ATOM      4  H   UNL     1       4.833   5.259  17.132  0.00  0.00    +0.000 HD
ENDROOT
BRANCH   3   5
ATOM      5  C   UNL     1       3.552   4.499  18.578  0.00  0.00    +0.000 C 
ATOM      6  C   UNL     1       2.641   4.471  17.319  0.00  0.00    +0.000 C 
ATOM      7  C   UNL     1       1.151   4.415  17.629  0.00  0.00    +0.000 C 
ATOM      8  C   UNL     1       0.864   3.182  18.435  0.00  0.00    +0.000 C 
ATOM      9  C   UNL     1       1.706   3.228  19.677  0.00  0.00    +0.000 A 
ATOM     10  C   UNL     1       1.096   2.990  20.908  0.00  0.00    +0.000 A 
ATOM     11  C   UNL     1       1.864   2.472  21.926  0.00  0.00    +0.000 A 
ATOM     12  C   UNL     1       3.197   2.154  21.652  0.00  0.00    +0.000 A 
ATOM     13  C   UNL     1       3.848   2.644  20.489  0.00  0.00    +0.000 A 
ATOM     14  C   UNL     1       3.117   3.347  19.535  0.00  0.00    +0.000 A 
ENDBRANCH   3   5
BRANCH   2  15
ATOM     15  C   UNL     1       6.968   6.288  17.775  0.00  0.00    +0.000 C 
BRANCH  15  16
ATOM     16  N   UNL     1       7.230   6.097  16.303  0.00  0.00    +0.000 N 
ATOM     17  C   UNL     1       7.183   4.835  15.769  0.00  0.00    +0.000 C 
ATOM     18  O   UNL     1       7.308   3.862  16.502  0.00  0.00    +0.000 OA
ATOM     19  H   UNL     1       6.883   6.853  15.715  0.00  0.00    +0.000 HD
BRANCH  17  20
ATOM     20  C   UNL     1       7.066   4.543  14.268  0.00  0.00    +0.000 A 
ATOM     21  C   UNL     1       7.875   5.353  13.440  0.00  0.00    +0.000 A 
ATOM     22  C   UNL     1       7.863   5.273  12.042  0.00  0.00    +0.000 A 
ATOM     23  C   UNL     1       7.039   4.356  11.415  0.00  0.00    +0.000 A 
ATOM     24  C   UNL     1       6.236   3.515  12.203  0.00  0.00    +0.000 A 
ATOM     25  C   UNL     1       6.248   3.587  13.633  0.00  0.00    +0.000 A 
BRANCH  24  26
ATOM     26  N   UNL     1       5.369   2.555  11.494  0.00  0.00    +0.000 N 
ATOM     27  O   UNL     1       5.839   1.427  11.210  0.00  0.00    +0.000 OA
ATOM     28  O   UNL     1       4.219   2.921  11.217  0.00  0.00    +0.000 OA
ENDBRANCH  24  26
ENDBRANCH  17  20
ENDBRANCH  15  16
ENDBRANCH   2  15
TORSDOF 5
ENDMDL
MODEL 2
REMARK VINA RESULT:      -8.2      5.111      9.324
REMARK  Name = 
REMARK  5 active torsions:
REMARK  status: ('A' for Active; 'I' for Inactive)
REMARK    1  A    between atoms: C_2  and  C_3
REMARK    2  A    between atoms: C_3  and  N_4
REMARK    3  A    between atoms: C_5  and  C_7
REMARK    4  A    between atoms: C_11  and  N_12
REMARK    5  A    between atoms: N_16  and  C_17
REMARK                            x       y       z     vdW  Elec       q    Type
REMARK                         _______ _______ _______ _____ _____    ______ ____
ROOT
ATOM      1  O   UNL     1       8.067   9.123  17.057  0.00  0.00    +0.000 OA
ATOM      2  C   UNL     1       8.283   8.583  18.139  0.00  0.00    +0.000 C 
ATOM      3  N   UNL     1       9.071   9.162  19.119  0.00  0.00    +0.000 N 
ATOM      4  H   UNL     1       8.862   8.651  19.971  0.00  0.00    +0.000 HD
ENDROOT
BRANCH   3   5
ATOM      5  C   UNL     1       9.186  10.624  19.413  0.00  0.00    +0.000 C 
ATOM      6  C   UNL     1       9.215  10.699  20.965  0.00  0.00    +0.000 C 
ATOM      7  C   UNL     1       9.081  12.109  21.524  0.00  0.00    +0.000 C 
ATOM      8  C   UNL     1      10.206  12.953  21.000  0.00  0.00    +0.000 C 
ATOM      9  C   UNL     1      10.153  12.924  19.500  0.00  0.00    +0.000 A 
ATOM     10  C   UNL     1      10.223  14.130  18.804  0.00  0.00    +0.000 A 
ATOM     11  C   UNL     1      10.738  14.117  17.528  0.00  0.00    +0.000 A 
ATOM     12  C   UNL     1      11.222  12.908  17.022  0.00  0.00    +0.000 A 
ATOM     13  C   UNL     1      10.902  11.670  17.641  0.00  0.00    +0.000 A 
ATOM     14  C   UNL     1      10.202  11.661  18.844  0.00  0.00    +0.000 A 
ENDBRANCH   3   5
BRANCH   2  15
ATOM     15  C   UNL     1       7.784   7.079  18.422  0.00  0.00    +0.000 C 
BRANCH  15  16
ATOM     16  N   UNL     1       6.451   6.468  18.076  0.00  0.00    +0.000 N 
ATOM     17  C   UNL     1       6.208   5.157  18.394  0.00  0.00    +0.000 C 
ATOM     18  O   UNL     1       7.148   4.399  18.596  0.00  0.00    +0.000 OA
ATOM     19  H   UNL     1       5.664   7.109  18.156  0.00  0.00    +0.000 HD
BRANCH  17  20
ATOM     20  C   UNL     1       4.810   4.529  18.435  0.00  0.00    +0.000 A 
ATOM     21  C   UNL     1       4.428   3.852  17.255  0.00  0.00    +0.000 A 
ATOM     22  C   UNL     1       3.169   3.264  17.081  0.00  0.00    +0.000 A 
ATOM     23  C   UNL     1       2.239   3.322  18.104  0.00  0.00    +0.000 A 
ATOM     24  C   UNL     1       2.588   3.966  19.303  0.00  0.00    +0.000 A 
ATOM     25  C   UNL     1       3.876   4.562  19.489  0.00  0.00    +0.000 A 
BRANCH  24  26
ATOM     26  N   UNL     1       1.566   4.008  20.365  0.00  0.00    +0.000 N 
ATOM     27  O   UNL     1       1.121   5.127  20.719  0.00  0.00    +0.000 OA
ATOM     28  O   UNL     1       1.204   2.929  20.852  0.00  0.00    +0.000 OA
ENDBRANCH  24  26
ENDBRANCH  17  20
ENDBRANCH  15  16
ENDBRANCH   2  15
TORSDOF 5
ENDMDL
MODEL 3
REMARK VINA RESULT:      -8.0      4.491      7.012
REMARK  Name = 
REMARK  5 active torsions:
REMARK  status: ('A' for Active; 'I' for Inactive)
REMARK    1  A    between atoms: C_2  and  C_3
REMARK    2  A    between atoms: C_3  and  N_4
REMARK    3  A    between atoms: C_5  and  C_7
REMARK    4  A    between atoms: C_11  and  N_12
REMARK    5  A    between atoms: N_16  and  C_17
REMARK                            x       y       z     vdW  Elec       q    Type
REMARK                         _______ _______ _______ _____ _____    ______ ____
ROOT
ATOM      1  O   UNL     1       5.363   7.085  17.878  0.00  0.00    +0.000 OA
ATOM      2  C   UNL     1       6.020   6.196  18.413  0.00  0.00    +0.000 C 
ATOM      3  N   UNL     1       5.437   5.148  19.104  0.00  0.00    +0.000 N 
ATOM      4  H   UNL     1       6.166   4.448  19.198  0.00  0.00    +0.000 HD
ENDROOT
BRANCH   3   5
ATOM      5  C   UNL     1       4.133   4.490  18.779  0.00  0.00    +0.000 C 
ATOM      6  C   UNL     1       4.386   3.801  17.409  0.00  0.00    +0.000 C 
ATOM      7  C   UNL     1       3.128   3.263  16.739  0.00  0.00    +0.000 C 
ATOM      8  C   UNL     1       2.479   2.261  17.649  0.00  0.00    +0.000 C 
ATOM      9  C   UNL     1       2.187   2.937  18.958  0.00  0.00    +0.000 A 
ATOM     10  C   UNL     1       0.914   2.805  19.509  0.00  0.00    +0.000 A 
ATOM     11  C   UNL     1       0.784   2.894  20.877  0.00  0.00    +0.000 A 
ATOM     12  C   UNL     1       1.943   3.048  21.643  0.00  0.00    +0.000 A 
ATOM     13  C   UNL     1       3.173   3.437  21.047  0.00  0.00    +0.000 A 
ATOM     14  C   UNL     1       3.265   3.543  19.663  0.00  0.00    +0.000 A 
ENDBRANCH   3   5
BRANCH   2  15
ATOM     15  C   UNL     1       7.626   6.285  18.478  0.00  0.00    +0.000 C 
BRANCH  15  16
ATOM     16  N   UNL     1       8.469   7.471  18.870  0.00  0.00    +0.000 N 
ATOM     17  C   UNL     1       8.375   8.633  18.148  0.00  0.00    +0.000 C 
ATOM     18  O   UNL     1       7.927   8.604  17.010  0.00  0.00    +0.000 OA
ATOM     19  H   UNL     1       8.611   7.569  19.874  0.00  0.00    +0.000 HD
BRANCH  17  20
ATOM     20  C   UNL     1       8.880   9.993  18.643  0.00  0.00    +0.000 A 
ATOM     21  C   UNL     1       9.154  10.058  20.028  0.00  0.00    +0.000 A 
ATOM     22  C   UNL     1       9.569  11.229  20.674  0.00  0.00    +0.000 A 
ATOM     23  C   UNL     1       9.742  12.390  19.943  0.00  0.00    +0.000 A 
ATOM     24  C   UNL     1       9.504  12.363  18.559  0.00  0.00    +0.000 A 
ATOM     25  C   UNL     1       9.086  11.167  17.891  0.00  0.00    +0.000 A 
BRANCH  24  26
ATOM     26  N   UNL     1       9.696  13.623  17.818  0.00  0.00    +0.000 N 
ATOM     27  O   UNL     1       8.831  14.524  17.943  0.00  0.00    +0.000 OA
ATOM     28  O   UNL     1      10.706  13.721  17.109  0.00  0.00    +0.000 OA
ENDBRANCH  24  26
ENDBRANCH  17  20
ENDBRANCH  15  16
ENDBRANCH   2  15
TORSDOF 5
ENDMDL
MODEL 4
REMARK VINA RESULT:      -8.0      4.954      7.289
REMARK  Name = 
REMARK  5 active torsions:
REMARK  status: ('A' for Active; 'I' for Inactive)
REMARK    1  A    between atoms: C_2  and  C_3
REMARK    2  A    between atoms: C_3  and  N_4
REMARK    3  A    between atoms: C_5  and  C_7
REMARK    4  A    between atoms: C_11  and  N_12
REMARK    5  A    between atoms: N_16  and  C_17
REMARK                            x       y       z     vdW  Elec       q    Type
REMARK                         _______ _______ _______ _____ _____    ______ ____
ROOT
ATOM      1  O   UNL     1       5.611   6.616  15.712  0.00  0.00    +0.000 OA
ATOM      2  C   UNL     1       5.899   6.745  16.899  0.00  0.00    +0.000 C 
ATOM      3  N   UNL     1       5.046   6.363  17.920  0.00  0.00    +0.000 N 
ATOM      4  H   UNL     1       5.623   6.327  18.755  0.00  0.00    +0.000 HD
ENDROOT
BRANCH   3   5
ATOM      5  C   UNL     1       4.103   5.202  17.899  0.00  0.00    +0.000 C 
ATOM      6  C   UNL     1       4.922   4.060  17.234  0.00  0.00    +0.000 C 
ATOM      7  C   UNL     1       4.098   2.831  16.871  0.00  0.00    +0.000 C 
ATOM      8  C   UNL     1       3.463   2.283  18.115  0.00  0.00    +0.000 C 
ATOM      9  C   UNL     1       2.630   3.368  18.734  0.00  0.00    +0.000 A 
ATOM     10  C   UNL     1       1.320   3.075  19.110  0.00  0.00    +0.000 A 
ATOM     11  C   UNL     1       0.760   3.798  20.139  0.00  0.00    +0.000 A 
ATOM     12  C   UNL     1       1.556   4.742  20.793  0.00  0.00    +0.000 A 
ATOM     13  C   UNL     1       2.778   5.196  20.227  0.00  0.00    +0.000 A 
ATOM     14  C   UNL     1       3.261   4.601  19.065  0.00  0.00    +0.000 A 
ENDBRANCH   3   5
BRANCH   2  15
ATOM     15  C   UNL     1       7.238   7.521  17.341  0.00  0.00    +0.000 C 
BRANCH  15  16
ATOM     16  N   UNL     1       7.464   9.009  17.400  0.00  0.00    +0.000 N 
ATOM     17  C   UNL     1       8.490   9.505  18.164  0.00  0.00    +0.000 C 
ATOM     18  O   UNL     1       8.960   8.820  19.063  0.00  0.00    +0.000 OA
ATOM     19  H   UNL     1       7.272   9.497  16.526  0.00  0.00    +0.000 HD
BRANCH  17  20
ATOM     20  C   UNL     1       9.052  10.925  18.028  0.00  0.00    +0.000 A 
ATOM     21  C   UNL     1      10.462  11.007  18.016  0.00  0.00    +0.000 A 
ATOM     22  C   UNL     1      11.159  12.220  17.956  0.00  0.00    +0.000 A 
ATOM     23  C   UNL     1      10.458  13.410  17.890  0.00  0.00    +0.000 A 
ATOM     24  C   UNL     1       9.054  13.372  17.876  0.00  0.00    +0.000 A 
ATOM     25  C   UNL     1       8.335  12.135  17.930  0.00  0.00    +0.000 A 
BRANCH  24  26
ATOM     26  N   UNL     1       8.346  14.664  17.809  0.00  0.00    +0.000 N 
ATOM     27  O   UNL     1       8.995  15.711  18.050  0.00  0.00    +0.000 OA
ATOM     28  O   UNL     1       7.143  14.641  17.518  0.00  0.00    +0.000 OA
ENDBRANCH  24  26
ENDBRANCH  17  20
ENDBRANCH  15  16
ENDBRANCH   2  15
TORSDOF 5
ENDMDL
MODEL 5
REMARK VINA RESULT:      -7.9      5.269      9.438
REMARK  Name = 
REMARK  5 active torsions:
REMARK  status: ('A' for Active; 'I' for Inactive)
REMARK    1  A    between atoms: C_2  and  C_3
REMARK    2  A    between atoms: C_3  and  N_4
REMARK    3  A    between atoms: C_5  and  C_7
REMARK    4  A    between atoms: C_11  and  N_12
REMARK    5  A    between atoms: N_16  and  C_17
REMARK                            x       y       z     vdW  Elec       q    Type
REMARK                         _______ _______ _______ _____ _____    ______ ____
ROOT
ATOM      1  O   UNL     1       3.631   3.687  19.935  0.00  0.00    +0.000 OA
ATOM      2  C   UNL     1       3.324   4.873  19.849  0.00  0.00    +0.000 C 
ATOM      3  N   UNL     1       4.240   5.860  19.525  0.00  0.00    +0.000 N 
ATOM      4  H   UNL     1       3.685   6.668  19.264  0.00  0.00    +0.000 HD
ENDROOT
BRANCH   3   5
ATOM      5  C   UNL     1       5.404   5.716  18.596  0.00  0.00    +0.000 C 
ATOM      6  C   UNL     1       6.615   5.471  19.539  0.00  0.00    +0.000 C 
ATOM      7  C   UNL     1       7.969   5.536  18.845  0.00  0.00    +0.000 C 
ATOM      8  C   UNL     1       8.013   4.502  17.758  0.00  0.00    +0.000 C 
ATOM      9  C   UNL     1       6.873   4.765  16.816  0.00  0.00    +0.000 A 
ATOM     10  C   UNL     1       7.132   4.803  15.447  0.00  0.00    +0.000 A 
ATOM     11  C   UNL     1       6.114   4.472  14.582  0.00  0.00    +0.000 A 
ATOM     12  C   UNL     1       4.895   4.053  15.124  0.00  0.00    +0.000 A 
ATOM     13  C   UNL     1       4.584   4.274  16.492  0.00  0.00    +0.000 A 
ATOM     14  C   UNL     1       5.551   4.799  17.344  0.00  0.00    +0.000 A 
ENDBRANCH   3   5
BRANCH   2  15
ATOM     15  C   UNL     1       1.855   5.376  20.269  0.00  0.00    +0.000 C 
BRANCH  15  16
ATOM     16  N   UNL     1       1.493   6.589  21.086  0.00  0.00    +0.000 N 
ATOM     17  C   UNL     1       1.442   7.819  20.481  0.00  0.00    +0.000 C 
ATOM     18  O   UNL     1       2.034   7.998  19.424  0.00  0.00    +0.000 OA
ATOM     19  H   UNL     1       0.804   6.413  21.815  0.00  0.00    +0.000 HD
BRANCH  17  20
ATOM     20  C   UNL     1       0.749   9.045  21.086  0.00  0.00    +0.000 A 
ATOM     21  C   UNL     1       0.376   8.907  22.442  0.00  0.00    +0.000 A 
ATOM     22  C   UNL     1      -0.317   9.897  23.151  0.00  0.00    +0.000 A 
ATOM     23  C   UNL     1      -0.652  11.082  22.522  0.00  0.00    +0.000 A 
ATOM     24  C   UNL     1      -0.278  11.269  21.181  0.00  0.00    +0.000 A 
ATOM     25  C   UNL     1       0.437  10.265  20.453  0.00  0.00    +0.000 A 
BRANCH  24  26
ATOM     26  N   UNL     1      -0.658  12.546  20.548  0.00  0.00    +0.000 N 
ATOM     27  O   UNL     1      -0.803  12.571  19.301  0.00  0.00    +0.000 OA
ATOM     28  O   UNL     1      -0.812  13.526  21.287  0.00  0.00    +0.000 OA
ENDBRANCH  24  26
ENDBRANCH  17  20
ENDBRANCH  15  16
ENDBRANCH   2  15
TORSDOF 5
ENDMDL
MODEL 6
REMARK VINA RESULT:      -7.9      6.370      7.954
REMARK  Name = 
REMARK  5 active torsions:
REMARK  status: ('A' for Active; 'I' for Inactive)
REMARK    1  A    between atoms: C_2  and  C_3
REMARK    2  A    between atoms: C_3  and  N_4
REMARK    3  A    between atoms: C_5  and  C_7
REMARK    4  A    between atoms: C_11  and  N_12
REMARK    5  A    between atoms: N_16  and  C_17
REMARK                            x       y       z     vdW  Elec       q    Type
REMARK                         _______ _______ _______ _____ _____    ______ ____
ROOT
ATOM      1  O   UNL     1      -0.616   8.422  21.441  0.00  0.00    +0.000 OA
ATOM      2  C   UNL     1       0.378   8.757  20.801  0.00  0.00    +0.000 C 
ATOM      3  N   UNL     1       0.335   9.712  19.800  0.00  0.00    +0.000 N 
ATOM      4  H   UNL     1       1.301   9.977  19.639  0.00  0.00    +0.000 HD
ENDROOT
BRANCH   3   5
ATOM      5  C   UNL     1      -0.543  10.923  19.769  0.00  0.00    +0.000 C 
ATOM      6  C   UNL     1      -1.641  10.570  18.727  0.00  0.00    +0.000 C 
ATOM      7  C   UNL     1      -2.525  11.745  18.330  0.00  0.00    +0.000 C 
ATOM      8  C   UNL     1      -3.205  12.282  19.556  0.00  0.00    +0.000 C 
ATOM      9  C   UNL     1      -2.146  12.671  20.546  0.00  0.00    +0.000 A 
ATOM     10  C   UNL     1      -2.220  13.927  21.146  0.00  0.00    +0.000 A 
ATOM     11  C   UNL     1      -1.664  14.086  22.396  0.00  0.00    +0.000 A 
ATOM     12  C   UNL     1      -1.113  12.965  23.022  0.00  0.00    +0.000 A 
ATOM     13  C   UNL     1      -0.821  11.782  22.291  0.00  0.00    +0.000 A 
ATOM     14  C   UNL     1      -1.206  11.683  20.957  0.00  0.00    +0.000 A 
ENDBRANCH   3   5
BRANCH   2  15
ATOM     15  C   UNL     1       1.775   7.979  20.985  0.00  0.00    +0.000 C 
BRANCH  15  16
ATOM     16  N   UNL     1       2.294   6.815  20.183  0.00  0.00    +0.000 N 
ATOM     17  C   UNL     1       2.737   7.023  18.901  0.00  0.00    +0.000 C 
ATOM     18  O   UNL     1       2.375   8.020  18.291  0.00  0.00    +0.000 OA
ATOM     19  H   UNL     1       2.800   6.121  20.731  0.00  0.00    +0.000 HD
BRANCH  17  20
ATOM     20  C   UNL     1       3.610   6.031  18.124  0.00  0.00    +0.000 A 
ATOM     21  C   UNL     1       2.958   4.835  17.745  0.00  0.00    +0.000 A 
ATOM     22  C   UNL     1       3.605   3.787  17.080  0.00  0.00    +0.000 A 
ATOM     23  C   UNL     1       4.943   3.906  16.752  0.00  0.00    +0.000 A 
ATOM     24  C   UNL     1       5.622   5.089  17.088  0.00  0.00    +0.000 A 
ATOM     25  C   UNL     1       4.965   6.167  17.763  0.00  0.00    +0.000 A 
BRANCH  24  26
ATOM     26  N   UNL     1       7.049   5.172  16.724  0.00  0.00    +0.000 N 
ATOM     27  O   UNL     1       7.862   4.435  17.331  0.00  0.00    +0.000 OA
ATOM     28  O   UNL     1       7.365   5.972  15.834  0.00  0.00    +0.000 OA
ENDBRANCH  24  26
ENDBRANCH  17  20
ENDBRANCH  15  16
ENDBRANCH   2  15
TORSDOF 5
ENDMDL
MODEL 7
REMARK VINA RESULT:      -7.9      5.377      6.951
REMARK  Name = 
REMARK  5 active torsions:
REMARK  status: ('A' for Active; 'I' for Inactive)
REMARK    1  A    between atoms: C_2  and  C_3
REMARK    2  A    between atoms: C_3  and  N_4
REMARK    3  A    between atoms: C_5  and  C_7
REMARK    4  A    between atoms: C_11  and  N_12
REMARK    5  A    between atoms: N_16  and  C_17
REMARK                            x       y       z     vdW  Elec       q    Type
REMARK                         _______ _______ _______ _____ _____    ______ ____
ROOT
ATOM      1  O   UNL     1       2.040   9.279  18.227  0.00  0.00    +0.000 OA
ATOM      2  C   UNL     1       1.616   8.618  19.171  0.00  0.00    +0.000 C 
ATOM      3  N   UNL     1       0.778   9.147  20.138  0.00  0.00    +0.000 N 
ATOM      4  H   UNL     1       0.381   8.346  20.618  0.00  0.00    +0.000 HD
ENDROOT
BRANCH   3   5
ATOM      5  C   UNL     1      -0.272  10.190  19.924  0.00  0.00    +0.000 C 
ATOM      6  C   UNL     1       0.364  11.491  20.487  0.00  0.00    +0.000 C 
ATOM      7  C   UNL     1      -0.607  12.658  20.610  0.00  0.00    +0.000 C 
ATOM      8  C   UNL     1      -1.173  12.969  19.256  0.00  0.00    +0.000 C 
ATOM      9  C   UNL     1      -1.833  11.728  18.728  0.00  0.00    +0.000 A 
ATOM     10  C   UNL     1      -3.124  11.824  18.211  0.00  0.00    +0.000 A 
ATOM     11  C   UNL     1      -3.511  10.918  17.251  0.00  0.00    +0.000 A 
ATOM     12  C   UNL     1      -2.568   9.990  16.799  0.00  0.00    +0.000 A 
ATOM     13  C   UNL     1      -1.367   9.751  17.518  0.00  0.00    +0.000 A 
ATOM     14  C   UNL     1      -1.056  10.540  18.622  0.00  0.00    +0.000 A 
ENDBRANCH   3   5
BRANCH   2  15
ATOM     15  C   UNL     1       2.145   7.120  19.429  0.00  0.00    +0.000 C 
BRANCH  15  16
ATOM     16  N   UNL     1       3.504   6.553  19.110  0.00  0.00    +0.000 N 
ATOM     17  C   UNL     1       3.626   5.608  18.124  0.00  0.00    +0.000 C 
ATOM     18  O   UNL     1       2.644   4.964  17.778  0.00  0.00    +0.000 OA
ATOM     19  H   UNL     1       4.267   7.223  19.195  0.00  0.00    +0.000 HD
BRANCH  17  20
ATOM     20  C   UNL     1       4.954   5.227  17.460  0.00  0.00    +0.000 A 
ATOM     21  C   UNL     1       6.010   4.951  18.359  0.00  0.00    +0.000 A 
ATOM     22  C   UNL     1       7.310   4.642  17.942  0.00  0.00    +0.000 A 
ATOM     23  C   UNL     1       7.601   4.583  16.590  0.00  0.00    +0.000 A 
ATOM     24  C   UNL     1       6.574   4.827  15.664  0.00  0.00    +0.000 A 
ATOM     25  C   UNL     1       5.240   5.137  16.083  0.00  0.00    +0.000 A 
BRANCH  24  26
ATOM     26  N   UNL     1       6.928   4.758  14.234  0.00  0.00    +0.000 N 
ATOM     27  O   UNL     1       7.842   5.507  13.811  0.00  0.00    +0.000 OA
ATOM     28  O   UNL     1       6.297   3.961  13.528  0.00  0.00    +0.000 OA
ENDBRANCH  24  26
ENDBRANCH  17  20
ENDBRANCH  15  16
ENDBRANCH   2  15
TORSDOF 5
ENDMDL
MODEL 8
REMARK VINA RESULT:      -7.9      8.315     11.611
REMARK  Name = 
REMARK  5 active torsions:
REMARK  status: ('A' for Active; 'I' for Inactive)
REMARK    1  A    between atoms: C_2  and  C_3
REMARK    2  A    between atoms: C_3  and  N_4
REMARK    3  A    between atoms: C_5  and  C_7
REMARK    4  A    between atoms: C_11  and  N_12
REMARK    5  A    between atoms: N_16  and  C_17
REMARK                            x       y       z     vdW  Elec       q    Type
REMARK                         _______ _______ _______ _____ _____    ______ ____
ROOT
ATOM      1  O   UNL     1       0.095   7.590  21.247  0.00  0.00    +0.000 OA
ATOM      2  C   UNL     1       1.023   8.318  20.905  0.00  0.00    +0.000 C 
ATOM      3  N   UNL     1       2.170   7.833  20.300  0.00  0.00    +0.000 N 
ATOM      4  H   UNL     1       2.624   8.644  19.893  0.00  0.00    +0.000 HD
ENDROOT
BRANCH   3   5
ATOM      5  C   UNL     1       2.250   6.674  19.357  0.00  0.00    +0.000 C 
ATOM      6  C   UNL     1       3.567   6.917  18.568  0.00  0.00    +0.000 C 
ATOM      7  C   UNL     1       3.754   5.997  17.368  0.00  0.00    +0.000 C 
ATOM      8  C   UNL     1       3.752   4.572  17.838  0.00  0.00    +0.000 C 
ATOM      9  C   UNL     1       2.460   4.318  18.559  0.00  0.00    +0.000 A 
ATOM     10  C   UNL     1       1.720   3.184  18.227  0.00  0.00    +0.000 A 
ATOM     11  C   UNL     1       0.904   2.634  19.189  0.00  0.00    +0.000 A 
ATOM     12  C   UNL     1       0.910   3.202  20.466  0.00  0.00    +0.000 A 
ATOM     13  C   UNL     1       1.463   4.491  20.695  0.00  0.00    +0.000 A 
ATOM     14  C   UNL     1       2.125   5.151  19.665  0.00  0.00    +0.000 A 
ENDBRANCH   3   5
BRANCH   2  15
ATOM     15  C   UNL     1       1.027   9.881  21.289  0.00  0.00    +0.000 C 
BRANCH  15  16
ATOM     16  N   UNL     1      -0.158  10.802  21.420  0.00  0.00    +0.000 N 
ATOM     17  C   UNL     1      -0.659  11.082  22.666  0.00  0.00    +0.000 C 
ATOM     18  O   UNL     1      -0.416  10.328  23.599  0.00  0.00    +0.000 OA
ATOM     19  H   UNL     1      -0.175  11.562  20.742  0.00  0.00    +0.000 HD
BRANCH  17  20
ATOM     20  C   UNL     1      -1.597  12.256  22.969  0.00  0.00    +0.000 A 
ATOM     21  C   UNL     1      -0.952  13.500  23.154  0.00  0.00    +0.000 A 
ATOM     22  C   UNL     1      -1.634  14.674  23.494  0.00  0.00    +0.000 A 
ATOM     23  C   UNL     1      -3.008  14.648  23.649  0.00  0.00    +0.000 A 
ATOM     24  C   UNL     1      -3.691  13.437  23.451  0.00  0.00    +0.000 A 
ATOM     25  C   UNL     1      -3.000  12.234  23.096  0.00  0.00    +0.000 A 
BRANCH  24  26
ATOM     26  N   UNL     1      -5.155  13.452  23.631  0.00  0.00    +0.000 N 
ATOM     27  O   UNL     1      -5.784  12.377  23.478  0.00  0.00    +0.000 OA
ATOM     28  O   UNL     1      -5.682  14.533  23.922  0.00  0.00    +0.000 OA
ENDBRANCH  24  26
ENDBRANCH  17  20
ENDBRANCH  15  16
ENDBRANCH   2  15
TORSDOF 5
ENDMDL
MODEL 9
REMARK VINA RESULT:      -7.8      5.772      8.296
REMARK  Name = 
REMARK  5 active torsions:
REMARK  status: ('A' for Active; 'I' for Inactive)
REMARK    1  A    between atoms: C_2  and  C_3
REMARK    2  A    between atoms: C_3  and  N_4
REMARK    3  A    between atoms: C_5  and  C_7
REMARK    4  A    between atoms: C_11  and  N_12
REMARK    5  A    between atoms: N_16  and  C_17
REMARK                            x       y       z     vdW  Elec       q    Type
REMARK                         _______ _______ _______ _____ _____    ______ ____
ROOT
ATOM      1  O   UNL     1       8.216   5.936  18.872  0.00  0.00    +0.000 OA
ATOM      2  C   UNL     1       7.943   7.043  18.413  0.00  0.00    +0.000 C 
ATOM      3  N   UNL     1       7.118   7.214  17.314  0.00  0.00    +0.000 N 
ATOM      4  H   UNL     1       6.856   8.193  17.323  0.00  0.00    +0.000 HD
ENDROOT
BRANCH   3   5
ATOM      5  C   UNL     1       5.937   6.369  16.954  0.00  0.00    +0.000 C 
ATOM      6  C   UNL     1       6.472   5.420  15.846  0.00  0.00    +0.000 C 
ATOM      7  C   UNL     1       5.389   4.618  15.134  0.00  0.00    +0.000 C 
ATOM      8  C   UNL     1       4.655   3.785  16.143  0.00  0.00    +0.000 C 
ATOM      9  C   UNL     1       4.093   4.703  17.190  0.00  0.00    +0.000 A 
ATOM     10  C   UNL     1       2.754   4.567  17.550  0.00  0.00    +0.000 A 
ATOM     11  C   UNL     1       2.378   4.947  18.819  0.00  0.00    +0.000 A 
ATOM     12  C   UNL     1       3.371   5.388  19.698  0.00  0.00    +0.000 A 
ATOM     13  C   UNL     1       4.660   5.758  19.228  0.00  0.00    +0.000 A 
ATOM     14  C   UNL     1       4.989   5.560  17.890  0.00  0.00    +0.000 A 
ENDBRANCH   3   5
BRANCH   2  15
ATOM     15  C   UNL     1       8.665   8.367  18.974  0.00  0.00    +0.000 C 
BRANCH  15  16
ATOM     16  N   UNL     1       8.759   9.717  18.312  0.00  0.00    +0.000 N 
ATOM     17  C   UNL     1       9.243  10.785  19.024  0.00  0.00    +0.000 C 
ATOM     18  O   UNL     1       9.239  10.748  20.248  0.00  0.00    +0.000 OA
ATOM     19  H   UNL     1       9.001   9.683  17.323  0.00  0.00    +0.000 HD
BRANCH  17  20
ATOM     20  C   UNL     1       9.727  12.092  18.387  0.00  0.00    +0.000 A 
ATOM     21  C   UNL     1      10.861  11.963  17.553  0.00  0.00    +0.000 A 
ATOM     22  C   UNL     1      11.482  13.052  16.929  0.00  0.00    +0.000 A 
ATOM     23  C   UNL     1      10.974  14.326  17.109  0.00  0.00    +0.000 A 
ATOM     24  C   UNL     1       9.834  14.495  17.912  0.00  0.00    +0.000 A 
ATOM     25  C   UNL     1       9.190  13.385  18.547  0.00  0.00    +0.000 A 
BRANCH  24  26
ATOM     26  N   UNL     1       9.328  15.870  18.081  0.00  0.00    +0.000 N 
ATOM     27  O   UNL     1      10.093  16.727  18.585  0.00  0.00    +0.000 OA
ATOM     28  O   UNL     1       8.168  16.101  17.714  0.00  0.00    +0.000 OA
ENDBRANCH  24  26
ENDBRANCH  17  20
ENDBRANCH  15  16
ENDBRANCH   2  15
TORSDOF 5
ENDMDL
