MODEL 1
REMARK VINA RESULT:      -8.3      0.000      0.000
REMARK  Name = 
REMARK  7 active torsions:
REMARK  status: ('A' for Active; 'I' for Inactive)
REMARK    1  A    between atoms: C_1  and  C_2
REMARK    2  A    between atoms: C_2  and  C_3
REMARK    3  A    between atoms: C_3  and  N_4
REMARK    4  A    between atoms: N_4  and  N_5
REMARK    5  A    between atoms: N_8  and  C_9
REMARK    6  A    between atoms: N_18  and  C_19
REMARK    7  A    between atoms: C_22  and  N_23
REMARK                            x       y       z     vdW  Elec       q    Type
REMARK                         _______ _______ _______ _____ _____    ______ ____
ROOT
ATOM      1  N   UNL     1      -0.440  12.040  21.218  0.00  0.00    +0.000 N 
ATOM      2  C   UNL     1       0.243  10.818  21.308  0.00  0.00    +0.000 C 
ATOM      3  O   UNL     1       0.456  10.324  22.417  0.00  0.00    +0.000 OA
ATOM      4  N   UNL     1       0.636  10.245  20.112  0.00  0.00    +0.000 N 
ATOM      5  H   UNL     1       0.544  10.809  19.279  0.00  0.00    +0.000 HD
ENDROOT
BRANCH   1   6
ATOM      6  N   UNL     1      -0.364  12.852  20.067  0.00  0.00    +0.000 N 
ATOM      7  C   UNL     1      -1.028  12.659  18.887  0.00  0.00    +0.000 C 
ATOM      8  O   UNL     1      -0.740  13.369  17.927  0.00  0.00    +0.000 OA
ATOM      9  N   UNL     1      -1.928  11.623  18.866  0.00  0.00    +0.000 N 
ATOM     10  H   UNL     1       0.334  13.591  20.059  0.00  0.00    +0.000 HD
ATOM     11  H   UNL     1      -2.404  11.461  19.745  0.00  0.00    +0.000 HD
BRANCH   9  12
ATOM     12  C   UNL     1      -2.512  11.136  17.681  0.00  0.00    +0.000 A 
ATOM     13  C   UNL     1      -1.881  10.162  16.896  0.00  0.00    +0.000 A 
ATOM     14  C   UNL     1      -2.458   9.733  15.699  0.00  0.00    +0.000 A 
ATOM     15  C   UNL     1      -3.659  10.293  15.275  0.00  0.00    +0.000 A 
ATOM     16 CL   UNL     1      -4.330   9.831  13.760  0.00  0.00    +0.000 Cl
ATOM     17  C   UNL     1      -4.314  11.235  16.068  0.00  0.00    +0.000 A 
ATOM     18  C   UNL     1      -3.756  11.633  17.287  0.00  0.00    +0.000 A 
ENDBRANCH   9  12
ENDBRANCH   1   6
BRANCH   4  19
ATOM     19  C   UNL     1       1.261   8.982  19.976  0.00  0.00    +0.000 A 
ATOM     20  C   UNL     1       1.907   8.597  18.805  0.00  0.00    +0.000 A 
ATOM     21  C   UNL     1       2.453   7.324  18.661  0.00  0.00    +0.000 A 
ATOM     22  C   UNL     1       2.390   6.381  19.686  0.00  0.00    +0.000 A 
ATOM     23  C   UNL     1       1.765   6.776  20.882  0.00  0.00    +0.000 A 
ATOM     24  C   UNL     1       1.220   8.070  21.032  0.00  0.00    +0.000 A 
BRANCH  22  25
ATOM     25  N   UNL     1       2.905   5.055  19.478  0.00  0.00    +0.000 N 
ATOM     26  C   UNL     1       4.365   4.905  19.438  0.00  0.00    +0.000 C 
ATOM     27  C   UNL     1       4.828   3.496  19.079  0.00  0.00    +0.000 C 
ATOM     28  O   UNL     1       4.216   2.560  19.946  0.00  0.00    +0.000 OA
ATOM     29  C   UNL     1       2.812   2.566  19.726  0.00  0.00    +0.000 C 
ATOM     30  C   UNL     1       2.090   3.921  19.672  0.00  0.00    +0.000 C 
ATOM     31  O   UNL     1       0.859   3.930  19.717  0.00  0.00    +0.000 OA
ENDBRANCH  22  25
ENDBRANCH   4  19
BRANCH   1  32
ATOM     32  C   UNL     1      -0.528  12.833  22.458  0.00  0.00    +0.000 C 
BRANCH  32  34
ATOM     33  C   UNL     1      -2.777  11.992  23.357  0.00  0.00    +0.000 C 
ATOM     34  C   UNL     1      -1.940  13.184  22.921  0.00  0.00    +0.000 C 
ENDBRANCH  32  34
ENDBRANCH   1  32
TORSDOF 6
ENDMDL
MODEL 2
REMARK VINA RESULT:      -8.2      3.320      4.656
REMARK  Name = 
REMARK  7 active torsions:
REMARK  status: ('A' for Active; 'I' for Inactive)
REMARK    1  A    between atoms: C_1  and  C_2
REMARK    2  A    between atoms: C_2  and  C_3
REMARK    3  A    between atoms: C_3  and  N_4
REMARK    4  A    between atoms: N_4  and  N_5
REMARK    5  A    between atoms: N_8  and  C_9
REMARK    6  A    between atoms: N_18  and  C_19
REMARK    7  A    between atoms: C_22  and  N_23
REMARK                            x       y       z     vdW  Elec       q    Type
REMARK                         _______ _______ _______ _____ _____    ______ ____
ROOT
ATOM      1  N   UNL     1      -0.121   9.827  21.149  0.00  0.00    +0.000 N 
ATOM      2  C   UNL     1       0.997   9.040  20.837  0.00  0.00    +0.000 C 
ATOM      3  O   UNL     1       1.796   8.745  21.728  0.00  0.00    +0.000 OA
ATOM      4  N   UNL     1       1.122   8.646  19.518  0.00  0.00    +0.000 N 
ATOM      5  H   UNL     1       0.496   9.070  18.849  0.00  0.00    +0.000 HD
ENDROOT
BRANCH   1   6
ATOM      6  N   UNL     1      -0.834  10.533  20.156  0.00  0.00    +0.000 N 
ATOM      7  C   UNL     1      -0.393  11.620  19.453  0.00  0.00    +0.000 C 
ATOM      8  O   UNL     1      -1.188  12.215  18.730  0.00  0.00    +0.000 OA
ATOM      9  N   UNL     1       0.909  11.993  19.676  0.00  0.00    +0.000 N 
ATOM     10  H   UNL     1      -1.812  10.293  20.021  0.00  0.00    +0.000 HD
ATOM     11  H   UNL     1       1.540  11.224  19.864  0.00  0.00    +0.000 HD
BRANCH   9  12
ATOM     12  C   UNL     1       1.447  13.215  19.228  0.00  0.00    +0.000 A 
ATOM     13  C   UNL     1       0.844  14.441  19.540  0.00  0.00    +0.000 A 
ATOM     14  C   UNL     1       1.368  15.636  19.040  0.00  0.00    +0.000 A 
ATOM     15  C   UNL     1       2.485  15.603  18.211  0.00  0.00    +0.000 A 
ATOM     16 CL   UNL     1       3.082  17.063  17.525  0.00  0.00    +0.000 Cl
ATOM     17  C   UNL     1       3.114  14.391  17.927  0.00  0.00    +0.000 A 
ATOM     18  C   UNL     1       2.613  13.200  18.462  0.00  0.00    +0.000 A 
ENDBRANCH   9  12
ENDBRANCH   1   6
BRANCH   4  19
ATOM     19  C   UNL     1       2.127   7.786  19.013  0.00  0.00    +0.000 A 
ATOM     20  C   UNL     1       2.424   6.563  19.608  0.00  0.00    +0.000 A 
ATOM     21  C   UNL     1       3.465   5.763  19.143  0.00  0.00    +0.000 A 
ATOM     22  C   UNL     1       4.248   6.141  18.054  0.00  0.00    +0.000 A 
ATOM     23  C   UNL     1       3.931   7.360  17.430  0.00  0.00    +0.000 A 
ATOM     24  C   UNL     1       2.870   8.168  17.895  0.00  0.00    +0.000 A 
BRANCH  22  25
ATOM     25  N   UNL     1       5.355   5.321  17.644  0.00  0.00    +0.000 N 
ATOM     26  C   UNL     1       5.430   4.962  16.222  0.00  0.00    +0.000 C 
ATOM     27  C   UNL     1       6.553   3.983  15.894  0.00  0.00    +0.000 C 
ATOM     28  O   UNL     1       7.781   4.487  16.385  0.00  0.00    +0.000 OA
ATOM     29  C   UNL     1       7.730   4.545  17.804  0.00  0.00    +0.000 C 
ATOM     30  C   UNL     1       6.495   5.179  18.462  0.00  0.00    +0.000 C 
ATOM     31  O   UNL     1       6.545   5.444  19.664  0.00  0.00    +0.000 OA
ENDBRANCH  22  25
ENDBRANCH   4  19
BRANCH   1  32
ATOM     32  C   UNL     1      -0.073  10.556  22.430  0.00  0.00    +0.000 C 
BRANCH  32  34
ATOM     33  C   UNL     1      -1.537  12.554  23.094  0.00  0.00    +0.000 C 
ATOM     34  C   UNL     1      -1.417  11.044  22.966  0.00  0.00    +0.000 C 
ENDBRANCH  32  34
ENDBRANCH   1  32
TORSDOF 6
ENDMDL
MODEL 3
REMARK VINA RESULT:      -8.1      1.028      1.441
REMARK  Name = 
REMARK  7 active torsions:
REMARK  status: ('A' for Active; 'I' for Inactive)
REMARK    1  A    between atoms: C_1  and  C_2
REMARK    2  A    between atoms: C_2  and  C_3
REMARK    3  A    between atoms: C_3  and  N_4
REMARK    4  A    between atoms: N_4  and  N_5
REMARK    5  A    between atoms: N_8  and  C_9
REMARK    6  A    between atoms: N_18  and  C_19
REMARK    7  A    between atoms: C_22  and  N_23
REMARK                            x       y       z     vdW  Elec       q    Type
REMARK                         _______ _______ _______ _____ _____    ______ ____
ROOT
ATOM      1  N   UNL     1      -0.469  11.743  21.354  0.00  0.00    +0.000 N 
ATOM      2  C   UNL     1       0.231  10.528  21.368  0.00  0.00    +0.000 C 
ATOM      3  O   UNL     1       0.445   9.966  22.444  0.00  0.00    +0.000 OA
ATOM      4  N   UNL     1       0.640  10.041  20.141  0.00  0.00    +0.000 N 
ATOM      5  H   UNL     1       0.546  10.656  19.346  0.00  0.00    +0.000 HD
ENDROOT
BRANCH   1   6
ATOM      6  N   UNL     1      -0.398  12.630  20.258  0.00  0.00    +0.000 N 
ATOM      7  C   UNL     1      -1.051  12.504  19.063  0.00  0.00    +0.000 C 
ATOM      8  O   UNL     1      -0.767  13.280  18.154  0.00  0.00    +0.000 OA
ATOM      9  N   UNL     1      -1.933  11.457  18.967  0.00  0.00    +0.000 N 
ATOM     10  H   UNL     1       0.288  13.379  20.304  0.00  0.00    +0.000 HD
ATOM     11  H   UNL     1      -2.413  11.231  19.829  0.00  0.00    +0.000 HD
BRANCH   9  12
ATOM     12  C   UNL     1      -2.501  11.040  17.748  0.00  0.00    +0.000 A 
ATOM     13  C   UNL     1      -1.873  10.090  16.931  0.00  0.00    +0.000 A 
ATOM     14  C   UNL     1      -2.431   9.730  15.703  0.00  0.00    +0.000 A 
ATOM     15  C   UNL     1      -3.611  10.336  15.280  0.00  0.00    +0.000 A 
ATOM     16 CL   UNL     1      -4.257   9.960  13.731  0.00  0.00    +0.000 Cl
ATOM     17  C   UNL     1      -4.264  11.254  16.103  0.00  0.00    +0.000 A 
ATOM     18  C   UNL     1      -3.725  11.581  17.352  0.00  0.00    +0.000 A 
ENDBRANCH   9  12
ENDBRANCH   1   6
BRANCH   4  19
ATOM     19  C   UNL     1       1.286   8.798  19.927  0.00  0.00    +0.000 A 
ATOM     20  C   UNL     1       1.944   8.500  18.737  0.00  0.00    +0.000 A 
ATOM     21  C   UNL     1       2.509   7.247  18.515  0.00  0.00    +0.000 A 
ATOM     22  C   UNL     1       2.456   6.239  19.477  0.00  0.00    +0.000 A 
ATOM     23  C   UNL     1       1.819   6.547  20.692  0.00  0.00    +0.000 A 
ATOM     24  C   UNL     1       1.253   7.820  20.922  0.00  0.00    +0.000 A 
BRANCH  22  25
ATOM     25  N   UNL     1       2.992   4.937  19.186  0.00  0.00    +0.000 N 
ATOM     26  C   UNL     1       2.091   3.973  18.542  0.00  0.00    +0.000 C 
ATOM     27  C   UNL     1       2.692   2.578  18.392  0.00  0.00    +0.000 C 
ATOM     28  O   UNL     1       3.941   2.667  17.733  0.00  0.00    +0.000 OA
ATOM     29  C   UNL     1       4.852   3.386  18.553  0.00  0.00    +0.000 C 
ATOM     30  C   UNL     1       4.384   4.712  19.171  0.00  0.00    +0.000 C 
ATOM     31  O   UNL     1       5.228   5.449  19.683  0.00  0.00    +0.000 OA
ENDBRANCH  22  25
ENDBRANCH   4  19
BRANCH   1  32
ATOM     32  C   UNL     1      -0.577  12.453  22.642  0.00  0.00    +0.000 C 
BRANCH  32  34
ATOM     33  C   UNL     1      -1.359  14.649  23.710  0.00  0.00    +0.000 C 
ATOM     34  C   UNL     1      -0.631  13.977  22.557  0.00  0.00    +0.000 C 
ENDBRANCH  32  34
ENDBRANCH   1  32
TORSDOF 6
ENDMDL
MODEL 4
REMARK VINA RESULT:      -8.1      3.544      4.881
REMARK  Name = 
REMARK  7 active torsions:
REMARK  status: ('A' for Active; 'I' for Inactive)
REMARK    1  A    between atoms: C_1  and  C_2
REMARK    2  A    between atoms: C_2  and  C_3
REMARK    3  A    between atoms: C_3  and  N_4
REMARK    4  A    between atoms: N_4  and  N_5
REMARK    5  A    between atoms: N_8  and  C_9
REMARK    6  A    between atoms: N_18  and  C_19
REMARK    7  A    between atoms: C_22  and  N_23
REMARK                            x       y       z     vdW  Elec       q    Type
REMARK                         _______ _______ _______ _____ _____    ______ ____
ROOT
ATOM      1  N   UNL     1      -0.244   9.875  21.224  0.00  0.00    +0.000 N 
ATOM      2  C   UNL     1       0.839   9.037  20.919  0.00  0.00    +0.000 C 
ATOM      3  O   UNL     1       1.514   8.565  21.835  0.00  0.00    +0.000 OA
ATOM      4  N   UNL     1       1.071   8.798  19.577  0.00  0.00    +0.000 N 
ATOM      5  H   UNL     1       0.554   9.355  18.914  0.00  0.00    +0.000 HD
ENDROOT
BRANCH   1   6
ATOM      6  N   UNL     1      -0.793  10.758  20.270  0.00  0.00    +0.000 N 
ATOM      7  C   UNL     1      -0.161  11.818  19.681  0.00  0.00    +0.000 C 
ATOM      8  O   UNL     1      -0.822  12.583  18.983  0.00  0.00    +0.000 OA
ATOM      9  N   UNL     1       1.168  11.971  19.987  0.00  0.00    +0.000 N 
ATOM     10  H   UNL     1      -1.787  10.680  20.076  0.00  0.00    +0.000 HD
ATOM     11  H   UNL     1       1.669  11.103  20.131  0.00  0.00    +0.000 HD
BRANCH   9  12
ATOM     12  C   UNL     1       1.902  13.130  19.668  0.00  0.00    +0.000 A 
ATOM     13  C   UNL     1       2.532  13.282  18.425  0.00  0.00    +0.000 A 
ATOM     14  C   UNL     1       3.296  14.419  18.152  0.00  0.00    +0.000 A 
ATOM     15  C   UNL     1       3.448  15.397  19.130  0.00  0.00    +0.000 A 
ATOM     16 CL   UNL     1       4.457  16.757  18.830  0.00  0.00    +0.000 Cl
ATOM     17  C   UNL     1       2.794  15.273  20.356  0.00  0.00    +0.000 A 
ATOM     18  C   UNL     1       1.994  14.153  20.612  0.00  0.00    +0.000 A 
ENDBRANCH   9  12
ENDBRANCH   1   6
BRANCH   4  19
ATOM     19  C   UNL     1       2.057   7.922  19.061  0.00  0.00    +0.000 A 
ATOM     20  C   UNL     1       2.371   6.715  19.679  0.00  0.00    +0.000 A 
ATOM     21  C   UNL     1       3.394   5.899  19.200  0.00  0.00    +0.000 A 
ATOM     22  C   UNL     1       4.140   6.245  18.075  0.00  0.00    +0.000 A 
ATOM     23  C   UNL     1       3.804   7.448  17.430  0.00  0.00    +0.000 A 
ATOM     24  C   UNL     1       2.762   8.271  17.909  0.00  0.00    +0.000 A 
BRANCH  22  25
ATOM     25  N   UNL     1       5.231   5.411  17.650  0.00  0.00    +0.000 N 
ATOM     26  C   UNL     1       5.277   5.045  16.228  0.00  0.00    +0.000 C 
ATOM     27  C   UNL     1       6.383   4.052  15.885  0.00  0.00    +0.000 C 
ATOM     28  O   UNL     1       7.625   4.545  16.352  0.00  0.00    +0.000 OA
ATOM     29  C   UNL     1       7.599   4.610  17.771  0.00  0.00    +0.000 C 
ATOM     30  C   UNL     1       6.383   5.260  18.448  0.00  0.00    +0.000 C 
ATOM     31  O   UNL     1       6.456   5.530  19.648  0.00  0.00    +0.000 OA
ENDBRANCH  22  25
ENDBRANCH   4  19
BRANCH   1  32
ATOM     32  C   UNL     1      -0.277  10.434  22.588  0.00  0.00    +0.000 C 
BRANCH  32  34
ATOM     33  C   UNL     1      -1.189  12.777  23.089  0.00  0.00    +0.000 C 
ATOM     34  C   UNL     1      -1.492  11.297  22.922  0.00  0.00    +0.000 C 
ENDBRANCH  32  34
ENDBRANCH   1  32
TORSDOF 6
ENDMDL
MODEL 5
REMARK VINA RESULT:      -8.1      0.725      1.479
REMARK  Name = 
REMARK  7 active torsions:
REMARK  status: ('A' for Active; 'I' for Inactive)
REMARK    1  A    between atoms: C_1  and  C_2
REMARK    2  A    between atoms: C_2  and  C_3
REMARK    3  A    between atoms: C_3  and  N_4
REMARK    4  A    between atoms: N_4  and  N_5
REMARK    5  A    between atoms: N_8  and  C_9
REMARK    6  A    between atoms: N_18  and  C_19
REMARK    7  A    between atoms: C_22  and  N_23
REMARK                            x       y       z     vdW  Elec       q    Type
REMARK                         _______ _______ _______ _____ _____    ______ ____
ROOT
ATOM      1  N   UNL     1      -0.782  11.560  21.647  0.00  0.00    +0.000 N 
ATOM      2  C   UNL     1      -0.036  10.376  21.548  0.00  0.00    +0.000 C 
ATOM      3  O   UNL     1       0.174   9.707  22.561  0.00  0.00    +0.000 OA
ATOM      4  N   UNL     1       0.418  10.041  20.286  0.00  0.00    +0.000 N 
ATOM      5  H   UNL     1       0.318  10.735  19.560  0.00  0.00    +0.000 HD
ENDROOT
BRANCH   1   6
ATOM      6  N   UNL     1      -0.720  12.563  20.656  0.00  0.00    +0.000 N 
ATOM      7  C   UNL     1      -1.315  12.532  19.425  0.00  0.00    +0.000 C 
ATOM      8  O   UNL     1      -1.042  13.416  18.617  0.00  0.00    +0.000 OA
ATOM      9  N   UNL     1      -2.127  11.453  19.177  0.00  0.00    +0.000 N 
ATOM     10  H   UNL     1      -0.084  13.339  20.814  0.00  0.00    +0.000 HD
ATOM     11  H   UNL     1      -2.627  11.109  19.986  0.00  0.00    +0.000 HD
BRANCH   9  12
ATOM     12  C   UNL     1      -2.618  11.140  17.894  0.00  0.00    +0.000 A 
ATOM     13  C   UNL     1      -3.869  11.595  17.455  0.00  0.00    +0.000 A 
ATOM     14  C   UNL     1      -4.356  11.228  16.199  0.00  0.00    +0.000 A 
ATOM     15  C   UNL     1      -3.599  10.389  15.387  0.00  0.00    +0.000 A 
ATOM     16 CL   UNL     1      -4.231   9.865  13.875  0.00  0.00    +0.000 Cl
ATOM     17  C   UNL     1      -2.337   9.962  15.799  0.00  0.00    +0.000 A 
ATOM     18  C   UNL     1      -1.833  10.364  17.040  0.00  0.00    +0.000 A 
ENDBRANCH   9  12
ENDBRANCH   1   6
BRANCH   4  19
ATOM     19  C   UNL     1       1.114   8.852  19.956  0.00  0.00    +0.000 A 
ATOM     20  C   UNL     1       1.274   7.811  20.866  0.00  0.00    +0.000 A 
ATOM     21  C   UNL     1       2.024   6.681  20.550  0.00  0.00    +0.000 A 
ATOM     22  C   UNL     1       2.638   6.533  19.307  0.00  0.00    +0.000 A 
ATOM     23  C   UNL     1       2.453   7.568  18.375  0.00  0.00    +0.000 A 
ATOM     24  C   UNL     1       1.685   8.710  18.690  0.00  0.00    +0.000 A 
BRANCH  22  25
ATOM     25  N   UNL     1       3.459   5.383  19.042  0.00  0.00    +0.000 N 
ATOM     26  C   UNL     1       4.912   5.556  19.173  0.00  0.00    +0.000 C 
ATOM     27  C   UNL     1       5.717   4.333  18.744  0.00  0.00    +0.000 C 
ATOM     28  O   UNL     1       5.249   3.190  19.435  0.00  0.00    +0.000 OA
ATOM     29  C   UNL     1       3.910   2.921  19.042  0.00  0.00    +0.000 C 
ATOM     30  C   UNL     1       2.909   4.086  19.024  0.00  0.00    +0.000 C 
ATOM     31  O   UNL     1       1.710   3.824  18.914  0.00  0.00    +0.000 OA
ENDBRANCH  22  25
ENDBRANCH   4  19
BRANCH   1  32
ATOM     32  C   UNL     1      -0.946  12.120  23.001  0.00  0.00    +0.000 C 
BRANCH  32  34
ATOM     33  C   UNL     1      -1.544  14.477  23.815  0.00  0.00    +0.000 C 
ATOM     34  C   UNL     1      -2.019  13.196  23.147  0.00  0.00    +0.000 C 
ENDBRANCH  32  34
ENDBRANCH   1  32
TORSDOF 6
ENDMDL
MODEL 6
REMARK VINA RESULT:      -8.0      3.988      5.152
REMARK  Name = 
REMARK  7 active torsions:
REMARK  status: ('A' for Active; 'I' for Inactive)
REMARK    1  A    between atoms: C_1  and  C_2
REMARK    2  A    between atoms: C_2  and  C_3
REMARK    3  A    between atoms: C_3  and  N_4
REMARK    4  A    between atoms: N_4  and  N_5
REMARK    5  A    between atoms: N_8  and  C_9
REMARK    6  A    between atoms: N_18  and  C_19
REMARK    7  A    between atoms: C_22  and  N_23
REMARK                            x       y       z     vdW  Elec       q    Type
REMARK                         _______ _______ _______ _____ _____    ______ ____
ROOT
ATOM      1  N   UNL     1      -0.242  11.966  19.416  0.00  0.00    +0.000 N 
ATOM      2  C   UNL     1       0.016  10.618  19.128  0.00  0.00    +0.000 C 
ATOM      3  O   UNL     1      -0.754   9.999  18.391  0.00  0.00    +0.000 OA
ATOM      4  N   UNL     1       1.145  10.071  19.709  0.00  0.00    +0.000 N 
ATOM      5  H   UNL     1       1.615  10.623  20.412  0.00  0.00    +0.000 HD
ENDROOT
BRANCH   1   6
ATOM      6  N   UNL     1       0.327  12.610  20.535  0.00  0.00    +0.000 N 
ATOM      7  C   UNL     1       1.314  13.556  20.518  0.00  0.00    +0.000 C 
ATOM      8  O   UNL     1       1.808  13.910  21.585  0.00  0.00    +0.000 OA
ATOM      9  N   UNL     1       1.717  13.982  19.277  0.00  0.00    +0.000 N 
ATOM     10  H   UNL     1       0.069  12.266  21.456  0.00  0.00    +0.000 HD
ATOM     11  H   UNL     1       0.981  14.008  18.582  0.00  0.00    +0.000 HD
BRANCH   9  12
ATOM     12  C   UNL     1       2.872  14.760  19.068  0.00  0.00    +0.000 A 
ATOM     13  C   UNL     1       3.992  14.248  18.399  0.00  0.00    +0.000 A 
ATOM     14  C   UNL     1       5.144  15.023  18.250  0.00  0.00    +0.000 A 
ATOM     15  C   UNL     1       5.184  16.306  18.787  0.00  0.00    +0.000 A 
ATOM     16 CL   UNL     1       6.629  17.233  18.680  0.00  0.00    +0.000 Cl
ATOM     17  C   UNL     1       4.061  16.839  19.420  0.00  0.00    +0.000 A 
ATOM     18  C   UNL     1       2.893  16.076  19.532  0.00  0.00    +0.000 A 
ENDBRANCH   9  12
ENDBRANCH   1   6
BRANCH   4  19
ATOM     19  C   UNL     1       1.628   8.759  19.484  0.00  0.00    +0.000 A 
ATOM     20  C   UNL     1       2.192   8.376  18.270  0.00  0.00    +0.000 A 
ATOM     21  C   UNL     1       2.594   7.063  18.039  0.00  0.00    +0.000 A 
ATOM     22  C   UNL     1       2.465   6.075  19.014  0.00  0.00    +0.000 A 
ATOM     23  C   UNL     1       1.925   6.466  20.252  0.00  0.00    +0.000 A 
ATOM     24  C   UNL     1       1.525   7.798  20.490  0.00  0.00    +0.000 A 
BRANCH  22  25
ATOM     25  N   UNL     1       2.830   4.717  18.717  0.00  0.00    +0.000 N 
ATOM     26  C   UNL     1       3.914   4.127  19.513  0.00  0.00    +0.000 C 
ATOM     27  C   UNL     1       4.331   2.736  19.046  0.00  0.00    +0.000 C 
ATOM     28  O   UNL     1       3.195   1.896  18.984  0.00  0.00    +0.000 OA
ATOM     29  C   UNL     1       2.308   2.381  17.985  0.00  0.00    +0.000 C 
ATOM     30  C   UNL     1       1.970   3.879  17.978  0.00  0.00    +0.000 C 
ATOM     31  O   UNL     1       1.034   4.264  17.275  0.00  0.00    +0.000 OA
ENDBRANCH  22  25
ENDBRANCH   4  19
BRANCH   1  32
ATOM     32  C   UNL     1      -1.605  12.448  19.126  0.00  0.00    +0.000 C 
BRANCH  32  34
ATOM     33  C   UNL     1      -3.048  13.808  20.753  0.00  0.00    +0.000 C 
ATOM     34  C   UNL     1      -2.578  12.434  20.304  0.00  0.00    +0.000 C 
ENDBRANCH  32  34
ENDBRANCH   1  32
TORSDOF 6
ENDMDL
MODEL 7
REMARK VINA RESULT:      -8.0      3.447      9.269
REMARK  Name = 
REMARK  7 active torsions:
REMARK  status: ('A' for Active; 'I' for Inactive)
REMARK    1  A    between atoms: C_1  and  C_2
REMARK    2  A    between atoms: C_2  and  C_3
REMARK    3  A    between atoms: C_3  and  N_4
REMARK    4  A    between atoms: N_4  and  N_5
REMARK    5  A    between atoms: N_8  and  C_9
REMARK    6  A    between atoms: N_18  and  C_19
REMARK    7  A    between atoms: C_22  and  N_23
REMARK                            x       y       z     vdW  Elec       q    Type
REMARK                         _______ _______ _______ _____ _____    ______ ____
ROOT
ATOM      1  N   UNL     1       3.283   3.948  19.631  0.00  0.00    +0.000 N 
ATOM      2  C   UNL     1       2.435   5.042  19.404  0.00  0.00    +0.000 C 
ATOM      3  O   UNL     1       1.287   4.844  19.001  0.00  0.00    +0.000 OA
ATOM      4  N   UNL     1       2.967   6.294  19.655  0.00  0.00    +0.000 N 
ATOM      5  H   UNL     1       3.959   6.346  19.834  0.00  0.00    +0.000 HD
ENDROOT
BRANCH   1   6
ATOM      6  N   UNL     1       4.685   4.094  19.688  0.00  0.00    +0.000 N 
ATOM      7  C   UNL     1       5.523   4.350  18.638  0.00  0.00    +0.000 C 
ATOM      8  O   UNL     1       6.736   4.299  18.827  0.00  0.00    +0.000 OA
ATOM      9  N   UNL     1       4.917   4.580  17.428  0.00  0.00    +0.000 N 
ATOM     10  H   UNL     1       5.143   3.878  20.570  0.00  0.00    +0.000 HD
ATOM     11  H   UNL     1       4.025   5.054  17.488  0.00  0.00    +0.000 HD
BRANCH   9  12
ATOM     12  C   UNL     1       5.623   4.619  16.210  0.00  0.00    +0.000 A 
ATOM     13  C   UNL     1       6.732   5.456  16.030  0.00  0.00    +0.000 A 
ATOM     14  C   UNL     1       7.384   5.514  14.796  0.00  0.00    +0.000 A 
ATOM     15  C   UNL     1       6.914   4.748  13.734  0.00  0.00    +0.000 A 
ATOM     16 CL   UNL     1       7.659   4.880  12.190  0.00  0.00    +0.000 Cl
ATOM     17  C   UNL     1       5.835   3.882  13.914  0.00  0.00    +0.000 A 
ATOM     18  C   UNL     1       5.210   3.795  15.163  0.00  0.00    +0.000 A 
ENDBRANCH   9  12
ENDBRANCH   1   6
BRANCH   4  19
ATOM     19  C   UNL     1       2.257   7.516  19.569  0.00  0.00    +0.000 A 
ATOM     20  C   UNL     1       2.220   8.271  18.400  0.00  0.00    +0.000 A 
ATOM     21  C   UNL     1       1.579   9.506  18.353  0.00  0.00    +0.000 A 
ATOM     22  C   UNL     1       0.935  10.039  19.469  0.00  0.00    +0.000 A 
ATOM     23  C   UNL     1       0.944   9.266  20.643  0.00  0.00    +0.000 A 
ATOM     24  C   UNL     1       1.585   8.009  20.689  0.00  0.00    +0.000 A 
BRANCH  22  25
ATOM     25  N   UNL     1       0.343  11.347  19.402  0.00  0.00    +0.000 N 
ATOM     26  C   UNL     1       1.218  12.492  19.681  0.00  0.00    +0.000 C 
ATOM     27  C   UNL     1       0.486  13.830  19.723  0.00  0.00    +0.000 C 
ATOM     28  O   UNL     1      -0.257  14.002  18.531  0.00  0.00    +0.000 OA
ATOM     29  C   UNL     1      -1.275  13.013  18.467  0.00  0.00    +0.000 C 
ATOM     30  C   UNL     1      -0.890  11.553  18.749  0.00  0.00    +0.000 C 
ATOM     31  O   UNL     1      -1.703  10.670  18.470  0.00  0.00    +0.000 OA
ENDBRANCH  22  25
ENDBRANCH   4  19
BRANCH   1  32
ATOM     32  C   UNL     1       2.877   2.668  19.023  0.00  0.00    +0.000 C 
BRANCH  32  34
ATOM     33  C   UNL     1       1.718   2.285  21.278  0.00  0.00    +0.000 C 
ATOM     34  C   UNL     1       2.171   1.686  19.956  0.00  0.00    +0.000 C 
ENDBRANCH  32  34
ENDBRANCH   1  32
TORSDOF 6
ENDMDL
MODEL 8
REMARK VINA RESULT:      -8.0      3.803      5.048
REMARK  Name = 
REMARK  7 active torsions:
REMARK  status: ('A' for Active; 'I' for Inactive)
REMARK    1  A    between atoms: C_1  and  C_2
REMARK    2  A    between atoms: C_2  and  C_3
REMARK    3  A    between atoms: C_3  and  N_4
REMARK    4  A    between atoms: N_4  and  N_5
REMARK    5  A    between atoms: N_8  and  C_9
REMARK    6  A    between atoms: N_18  and  C_19
REMARK    7  A    between atoms: C_22  and  N_23
REMARK                            x       y       z     vdW  Elec       q    Type
REMARK                         _______ _______ _______ _____ _____    ______ ____
ROOT
ATOM      1  N   UNL     1      -0.831  12.216  20.076  0.00  0.00    +0.000 N 
ATOM      2  C   UNL     1      -0.515  10.911  19.667  0.00  0.00    +0.000 C 
ATOM      3  O   UNL     1      -1.335  10.269  19.009  0.00  0.00    +0.000 OA
ATOM      4  N   UNL     1       0.726  10.434  20.046  0.00  0.00    +0.000 N 
ATOM      5  H   UNL     1       1.249  10.986  20.709  0.00  0.00    +0.000 HD
ENDROOT
BRANCH   1   6
ATOM      6  N   UNL     1      -0.155  12.846  21.142  0.00  0.00    +0.000 N 
ATOM      7  C   UNL     1       0.869  13.747  21.040  0.00  0.00    +0.000 C 
ATOM      8  O   UNL     1       1.453  14.091  22.064  0.00  0.00    +0.000 OA
ATOM      9  N   UNL     1       1.198  14.141  19.767  0.00  0.00    +0.000 N 
ATOM     10  H   UNL     1      -0.361  12.524  22.083  0.00  0.00    +0.000 HD
ATOM     11  H   UNL     1       0.416  14.193  19.127  0.00  0.00    +0.000 HD
BRANCH   9  12
ATOM     12  C   UNL     1       2.368  14.865  19.465  0.00  0.00    +0.000 A 
ATOM     13  C   UNL     1       3.491  14.245  18.901  0.00  0.00    +0.000 A 
ATOM     14  C   UNL     1       4.657  14.975  18.658  0.00  0.00    +0.000 A 
ATOM     15  C   UNL     1       4.707  16.323  18.997  0.00  0.00    +0.000 A 
ATOM     16 CL   UNL     1       6.167  17.206  18.779  0.00  0.00    +0.000 Cl
ATOM     17  C   UNL     1       3.581  16.958  19.523  0.00  0.00    +0.000 A 
ATOM     18  C   UNL     1       2.401  16.235  19.727  0.00  0.00    +0.000 A 
ENDBRANCH   9  12
ENDBRANCH   1   6
BRANCH   4  19
ATOM     19  C   UNL     1       1.270   9.181  19.670  0.00  0.00    +0.000 A 
ATOM     20  C   UNL     1       1.390   8.125  20.569  0.00  0.00    +0.000 A 
ATOM     21  C   UNL     1       1.994   6.926  20.203  0.00  0.00    +0.000 A 
ATOM     22  C   UNL     1       2.494   6.720  18.918  0.00  0.00    +0.000 A 
ATOM     23  C   UNL     1       2.347   7.772  17.998  0.00  0.00    +0.000 A 
ATOM     24  C   UNL     1       1.726   8.986  18.365  0.00  0.00    +0.000 A 
BRANCH  22  25
ATOM     25  N   UNL     1       3.171   5.493  18.596  0.00  0.00    +0.000 N 
ATOM     26  C   UNL     1       4.486   5.275  19.213  0.00  0.00    +0.000 C 
ATOM     27  C   UNL     1       5.196   4.018  18.717  0.00  0.00    +0.000 C 
ATOM     28  O   UNL     1       4.341   2.900  18.866  0.00  0.00    +0.000 OA
ATOM     29  C   UNL     1       3.212   3.058  18.018  0.00  0.00    +0.000 C 
ATOM     30  C   UNL     1       2.474   4.405  18.033  0.00  0.00    +0.000 C 
ATOM     31  O   UNL     1       1.371   4.474  17.488  0.00  0.00    +0.000 OA
ENDBRANCH  22  25
ENDBRANCH   4  19
BRANCH   1  32
ATOM     32  C   UNL     1      -2.255  12.595  20.014  0.00  0.00    +0.000 C 
BRANCH  32  34
ATOM     33  C   UNL     1      -3.639  14.081  21.579  0.00  0.00    +0.000 C 
ATOM     34  C   UNL     1      -2.962  12.738  21.360  0.00  0.00    +0.000 C 
ENDBRANCH  32  34
ENDBRANCH   1  32
TORSDOF 6
ENDMDL
MODEL 9
REMARK VINA RESULT:      -7.9      3.501      4.873
REMARK  Name = 
REMARK  7 active torsions:
REMARK  status: ('A' for Active; 'I' for Inactive)
REMARK    1  A    between atoms: C_1  and  C_2
REMARK    2  A    between atoms: C_2  and  C_3
REMARK    3  A    between atoms: C_3  and  N_4
REMARK    4  A    between atoms: N_4  and  N_5
REMARK    5  A    between atoms: N_8  and  C_9
REMARK    6  A    between atoms: N_18  and  C_19
REMARK    7  A    between atoms: C_22  and  N_23
REMARK                            x       y       z     vdW  Elec       q    Type
REMARK                         _______ _______ _______ _____ _____    ______ ____
ROOT
ATOM      1  N   UNL     1      -1.350  11.715  18.419  0.00  0.00    +0.000 N 
ATOM      2  C   UNL     1      -0.707  10.476  18.287  0.00  0.00    +0.000 C 
ATOM      3  O   UNL     1      -1.156   9.643  17.498  0.00  0.00    +0.000 OA
ATOM      4  N   UNL     1       0.412  10.278  19.075  0.00  0.00    +0.000 N 
ATOM      5  H   UNL     1       0.598  10.964  19.792  0.00  0.00    +0.000 HD
ENDROOT
BRANCH   1   6
ATOM      6  N   UNL     1      -1.162  12.534  19.553  0.00  0.00    +0.000 N 
ATOM      7  C   UNL     1      -0.210  13.504  19.711  0.00  0.00    +0.000 C 
ATOM      8  O   UNL     1      -0.080  14.026  20.815  0.00  0.00    +0.000 OA
ATOM      9  N   UNL     1       0.573  13.761  18.614  0.00  0.00    +0.000 N 
ATOM     10  H   UNL     1      -1.706  12.317  20.384  0.00  0.00    +0.000 HD
ATOM     11  H   UNL     1       0.099  13.660  17.725  0.00  0.00    +0.000 HD
BRANCH   9  12
ATOM     12  C   UNL     1       1.743  14.543  18.671  0.00  0.00    +0.000 A 
ATOM     13  C   UNL     1       3.008  13.963  18.834  0.00  0.00    +0.000 A 
ATOM     14  C   UNL     1       4.147  14.764  18.939  0.00  0.00    +0.000 A 
ATOM     15  C   UNL     1       4.020  16.149  18.900  0.00  0.00    +0.000 A 
ATOM     16 CL   UNL     1       5.408  17.141  19.114  0.00  0.00    +0.000 Cl
ATOM     17  C   UNL     1       2.770  16.735  18.699  0.00  0.00    +0.000 A 
ATOM     18  C   UNL     1       1.635  15.930  18.552  0.00  0.00    +0.000 A 
ENDBRANCH   9  12
ENDBRANCH   1   6
BRANCH   4  19
ATOM     19  C   UNL     1       1.249   9.136  19.036  0.00  0.00    +0.000 A 
ATOM     20  C   UNL     1       1.970   8.785  17.897  0.00  0.00    +0.000 A 
ATOM     21  C   UNL     1       2.730   7.620  17.851  0.00  0.00    +0.000 A 
ATOM     22  C   UNL     1       2.817   6.758  18.943  0.00  0.00    +0.000 A 
ATOM     23  C   UNL     1       2.116   7.125  20.105  0.00  0.00    +0.000 A 
ATOM     24  C   UNL     1       1.352   8.311  20.156  0.00  0.00    +0.000 A 
BRANCH  22  25
ATOM     25  N   UNL     1       3.558   5.531  18.835  0.00  0.00    +0.000 N 
ATOM     26  C   UNL     1       5.012   5.609  19.026  0.00  0.00    +0.000 C 
ATOM     27  C   UNL     1       5.738   4.294  18.762  0.00  0.00    +0.000 C 
ATOM     28  O   UNL     1       5.151   3.264  19.535  0.00  0.00    +0.000 OA
ATOM     29  C   UNL     1       3.815   3.055  19.099  0.00  0.00    +0.000 C 
ATOM     30  C   UNL     1       2.909   4.282  18.915  0.00  0.00    +0.000 C 
ATOM     31  O   UNL     1       1.700   4.098  18.767  0.00  0.00    +0.000 OA
ENDBRANCH  22  25
ENDBRANCH   4  19
BRANCH   1  32
ATOM     32  C   UNL     1      -2.723  11.801  17.888  0.00  0.00    +0.000 C 
BRANCH  32  34
ATOM     33  C   UNL     1      -5.239  11.792  18.386  0.00  0.00    +0.000 C 
ATOM     34  C   UNL     1      -3.828  11.951  18.932  0.00  0.00    +0.000 C 
ENDBRANCH  32  34
ENDBRANCH   1  32
TORSDOF 6
ENDMDL
