MODEL 1
REMARK VINA RESULT:      -6.6      0.000      0.000
REMARK  Name = 
REMARK  6 active torsions:
REMARK  status: ('A' for Active; 'I' for Inactive)
REMARK    1  A    between atoms: C_2  and  C_5
REMARK    2  A    between atoms: C_5  and  C_6
REMARK    3  A    between atoms: C_6  and  N_7
REMARK    4  A    between atoms: N_7  and  C_8
REMARK    5  A    between atoms: N_7  and  C_14
REMARK    6  A    between atoms: C_8  and  C_9
REMARK                            x       y       z     vdW  Elec       q    Type
REMARK                         _______ _______ _______ _____ _____    ______ ____
ROOT
ATOM      1  N   UNL     1       4.067   4.594  18.299  0.00  0.00    +0.000 NA
ENDROOT
BRANCH   1   2
ATOM      2  C   UNL     1       2.899   4.216  19.122  0.00  0.00    +0.000 C 
ATOM      3  C   UNL     1       1.718   3.591  18.365  0.00  0.00    +0.000 C 
ATOM      4  C   UNL     1       0.844   3.034  19.485  0.00  0.00    +0.000 C 
ATOM      5  C   UNL     1       1.815   2.595  20.576  0.00  0.00    +0.000 C 
ATOM      6  C   UNL     1       3.187   3.110  20.151  0.00  0.00    +0.000 C 
ENDBRANCH   1   2
BRANCH   1   7
ATOM      7  C   UNL     1       5.343   4.268  18.979  0.00  0.00    +0.000 C 
BRANCH   7   8
ATOM      8  C   UNL     1       6.220   5.471  19.347  0.00  0.00    +0.000 C 
BRANCH   8  10
ATOM      9  F   UNL     1       8.607   5.476  19.517  0.00  0.00    +0.000 F 
ATOM     10  C   UNL     1       7.569   5.406  18.657  0.00  0.00    +0.000 C 
ATOM     11  F   UNL     1       7.705   6.425  17.777  0.00  0.00    +0.000 F 
ATOM     12  F   UNL     1       7.698   4.256  17.957  0.00  0.00    +0.000 F 
ENDBRANCH   8  10
ENDBRANCH   7   8
ENDBRANCH   1   7
BRANCH   1  13
ATOM     13  C   UNL     1       3.981   4.056  16.917  0.00  0.00    +0.000 C 
BRANCH  13  14
ATOM     14  C   UNL     1       5.068   4.527  15.994  0.00  0.00    +0.000 A 
ATOM     15  C   UNL     1       6.001   3.754  15.258  0.00  0.00    +0.000 A 
ATOM     16  C   UNL     1       6.758   4.679  14.590  0.00  0.00    +0.000 A 
ATOM     17  O   UNL     1       6.312   5.923  14.881  0.00  0.00    +0.000 OA
ATOM     18  N   UNL     1       5.246   5.834  15.758  0.00  0.00    +0.000 NA
ENDBRANCH  13  14
ENDBRANCH   1  13
TORSDOF 6
ENDMDL
MODEL 2
REMARK VINA RESULT:      -6.6      1.298      1.921
REMARK  Name = 
REMARK  6 active torsions:
REMARK  status: ('A' for Active; 'I' for Inactive)
REMARK    1  A    between atoms: C_2  and  C_5
REMARK    2  A    between atoms: C_5  and  C_6
REMARK    3  A    between atoms: C_6  and  N_7
REMARK    4  A    between atoms: N_7  and  C_8
REMARK    5  A    between atoms: N_7  and  C_14
REMARK    6  A    between atoms: C_8  and  C_9
REMARK                            x       y       z     vdW  Elec       q    Type
REMARK                         _______ _______ _______ _____ _____    ______ ____
ROOT
ATOM      1  N   UNL     1       4.629   4.881  16.818  0.00  0.00    +0.000 NA
ENDROOT
BRANCH   1   2
ATOM      2  C   UNL     1       3.347   4.191  17.070  0.00  0.00    +0.000 C 
ATOM      3  C   UNL     1       3.448   2.792  17.696  0.00  0.00    +0.000 C 
ATOM      4  C   UNL     1       2.012   2.496  18.117  0.00  0.00    +0.000 C 
ATOM      5  C   UNL     1       1.419   3.845  18.513  0.00  0.00    +0.000 C 
ATOM      6  C   UNL     1       2.449   4.893  18.103  0.00  0.00    +0.000 C 
ENDBRANCH   1   2
BRANCH   1   7
ATOM      7  C   UNL     1       5.038   5.715  17.973  0.00  0.00    +0.000 C 
BRANCH   7   8
ATOM      8  C   UNL     1       5.938   5.020  19.003  0.00  0.00    +0.000 C 
BRANCH   8  10
ATOM      9  F   UNL     1       8.213   4.734  18.317  0.00  0.00    +0.000 F 
ATOM     10  C   UNL     1       7.355   5.560  18.953  0.00  0.00    +0.000 C 
ATOM     11  F   UNL     1       7.835   5.753  20.203  0.00  0.00    +0.000 F 
ATOM     12  F   UNL     1       7.396   6.754  18.322  0.00  0.00    +0.000 F 
ENDBRANCH   8  10
ENDBRANCH   7   8
ENDBRANCH   1   7
BRANCH   1  13
ATOM     13  C   UNL     1       5.691   3.948  16.359  0.00  0.00    +0.000 C 
BRANCH  13  14
ATOM     14  C   UNL     1       6.449   4.411  15.148  0.00  0.00    +0.000 A 
ATOM     15  C   UNL     1       6.297   4.002  13.800  0.00  0.00    +0.000 A 
ATOM     16  C   UNL     1       7.231   4.732  13.115  0.00  0.00    +0.000 A 
ATOM     17  O   UNL     1       7.894   5.539  13.976  0.00  0.00    +0.000 OA
ATOM     18  N   UNL     1       7.403   5.346  15.254  0.00  0.00    +0.000 NA
ENDBRANCH  13  14
ENDBRANCH   1  13
TORSDOF 6
ENDMDL
MODEL 3
REMARK VINA RESULT:      -6.6      0.526      1.175
REMARK  Name = 
REMARK  6 active torsions:
REMARK  status: ('A' for Active; 'I' for Inactive)
REMARK    1  A    between atoms: C_2  and  C_5
REMARK    2  A    between atoms: C_5  and  C_6
REMARK    3  A    between atoms: C_6  and  N_7
REMARK    4  A    between atoms: N_7  and  C_8
REMARK    5  A    between atoms: N_7  and  C_14
REMARK    6  A    between atoms: C_8  and  C_9
REMARK                            x       y       z     vdW  Elec       q    Type
REMARK                         _______ _______ _______ _____ _____    ______ ____
ROOT
ATOM      1  N   UNL     1       4.108   4.465  18.470  0.00  0.00    +0.000 NA
ENDROOT
BRANCH   1   2
ATOM      2  C   UNL     1       3.065   3.879  19.338  0.00  0.00    +0.000 C 
ATOM      3  C   UNL     1       1.967   4.843  19.814  0.00  0.00    +0.000 C 
ATOM      4  C   UNL     1       0.912   3.905  20.391  0.00  0.00    +0.000 C 
ATOM      5  C   UNL     1       0.981   2.641  19.539  0.00  0.00    +0.000 C 
ATOM      6  C   UNL     1       2.211   2.801  18.650  0.00  0.00    +0.000 C 
ENDBRANCH   1   2
BRANCH   1   7
ATOM      7  C   UNL     1       5.470   4.177  18.980  0.00  0.00    +0.000 C 
BRANCH   7   8
ATOM      8  C   UNL     1       6.303   5.406  19.366  0.00  0.00    +0.000 C 
BRANCH   8  10
ATOM      9  F   UNL     1       7.877   6.411  17.869  0.00  0.00    +0.000 F 
ATOM     10  C   UNL     1       7.671   5.375  18.711  0.00  0.00    +0.000 C 
ATOM     11  F   UNL     1       7.832   4.238  17.996  0.00  0.00    +0.000 F 
ATOM     12  F   UNL     1       8.652   5.405  19.640  0.00  0.00    +0.000 F 
ENDBRANCH   8  10
ENDBRANCH   7   8
ENDBRANCH   1   7
BRANCH   1  13
ATOM     13  C   UNL     1       3.924   4.101  17.041  0.00  0.00    +0.000 C 
BRANCH  13  14
ATOM     14  C   UNL     1       5.028   4.559  16.132  0.00  0.00    +0.000 A 
ATOM     15  C   UNL     1       5.907   3.776  15.343  0.00  0.00    +0.000 A 
ATOM     16  C   UNL     1       6.711   4.690  14.717  0.00  0.00    +0.000 A 
ATOM     17  O   UNL     1       6.341   5.941  15.082  0.00  0.00    +0.000 OA
ATOM     18  N   UNL     1       5.281   5.865  15.966  0.00  0.00    +0.000 NA
ENDBRANCH  13  14
ENDBRANCH   1  13
TORSDOF 6
ENDMDL
MODEL 4
REMARK VINA RESULT:      -6.5      0.659      1.345
REMARK  Name = 
REMARK  6 active torsions:
REMARK  status: ('A' for Active; 'I' for Inactive)
REMARK    1  A    between atoms: C_2  and  C_5
REMARK    2  A    between atoms: C_5  and  C_6
REMARK    3  A    between atoms: C_6  and  N_7
REMARK    4  A    between atoms: N_7  and  C_8
REMARK    5  A    between atoms: N_7  and  C_14
REMARK    6  A    between atoms: C_8  and  C_9
REMARK                            x       y       z     vdW  Elec       q    Type
REMARK                         _______ _______ _______ _____ _____    ______ ____
ROOT
ATOM      1  N   UNL     1       4.108   4.525  18.127  0.00  0.00    +0.000 NA
ENDROOT
BRANCH   1   2
ATOM      2  C   UNL     1       2.859   4.234  18.860  0.00  0.00    +0.000 C 
ATOM      3  C   UNL     1       2.946   3.130  19.925  0.00  0.00    +0.000 C 
ATOM      4  C   UNL     1       1.640   3.290  20.697  0.00  0.00    +0.000 C 
ATOM      5  C   UNL     1       1.336   4.785  20.676  0.00  0.00    +0.000 C 
ATOM      6  C   UNL     1       2.346   5.405  19.716  0.00  0.00    +0.000 C 
ENDBRANCH   1   2
BRANCH   1   7
ATOM      7  C   UNL     1       5.307   4.225  18.946  0.00  0.00    +0.000 C 
BRANCH   7   8
ATOM      8  C   UNL     1       6.158   5.439  19.337  0.00  0.00    +0.000 C 
BRANCH   8  10
ATOM      9  F   UNL     1       7.609   6.416  17.704  0.00  0.00    +0.000 F 
ATOM     10  C   UNL     1       7.495   5.431  18.620  0.00  0.00    +0.000 C 
ATOM     11  F   UNL     1       7.684   4.257  17.975  0.00  0.00    +0.000 F 
ATOM     12  F   UNL     1       8.515   5.571  19.497  0.00  0.00    +0.000 F 
ENDBRANCH   8  10
ENDBRANCH   7   8
ENDBRANCH   1   7
BRANCH   1  13
ATOM     13  C   UNL     1       4.137   3.887  16.785  0.00  0.00    +0.000 C 
BRANCH  13  14
ATOM     14  C   UNL     1       5.176   4.439  15.852  0.00  0.00    +0.000 A 
ATOM     15  C   UNL     1       6.150   3.738  15.099  0.00  0.00    +0.000 A 
ATOM     16  C   UNL     1       6.831   4.718  14.427  0.00  0.00    +0.000 A 
ATOM     17  O   UNL     1       6.303   5.926  14.733  0.00  0.00    +0.000 OA
ATOM     18  N   UNL     1       5.258   5.757  15.623  0.00  0.00    +0.000 NA
ENDBRANCH  13  14
ENDBRANCH   1  13
TORSDOF 6
ENDMDL
MODEL 5
REMARK VINA RESULT:      -6.5      3.812      4.991
REMARK  Name = 
REMARK  6 active torsions:
REMARK  status: ('A' for Active; 'I' for Inactive)
REMARK    1  A    between atoms: C_2  and  C_5
REMARK    2  A    between atoms: C_5  and  C_6
REMARK    3  A    between atoms: C_6  and  N_7
REMARK    4  A    between atoms: N_7  and  C_8
REMARK    5  A    between atoms: N_7  and  C_14
REMARK    6  A    between atoms: C_8  and  C_9
REMARK                            x       y       z     vdW  Elec       q    Type
REMARK                         _______ _______ _______ _____ _____    ______ ____
ROOT
ATOM      1  N   UNL     1       3.337   4.814  18.681  0.00  0.00    +0.000 NA
ENDROOT
BRANCH   1   2
ATOM      2  C   UNL     1       2.593   6.073  18.473  0.00  0.00    +0.000 C 
ATOM      3  C   UNL     1       2.326   6.912  19.733  0.00  0.00    +0.000 C 
ATOM      4  C   UNL     1       1.851   8.246  19.166  0.00  0.00    +0.000 C 
ATOM      5  C   UNL     1       2.615   8.427  17.858  0.00  0.00    +0.000 C 
ATOM      6  C   UNL     1       3.333   7.104  17.605  0.00  0.00    +0.000 C 
ENDBRANCH   1   2
BRANCH   1   7
ATOM      7  C   UNL     1       2.440   3.635  18.644  0.00  0.00    +0.000 C 
BRANCH   7   8
ATOM      8  C   UNL     1       2.430   2.774  19.913  0.00  0.00    +0.000 C 
BRANCH   8  10
ATOM      9  F   UNL     1       2.307   4.291  21.760  0.00  0.00    +0.000 F 
ATOM     10  C   UNL     1       1.603   3.416  21.011  0.00  0.00    +0.000 C 
ATOM     11  F   UNL     1       1.109   2.476  21.848  0.00  0.00    +0.000 F 
ATOM     12  F   UNL     1       0.546   4.083  20.493  0.00  0.00    +0.000 F 
ENDBRANCH   8  10
ENDBRANCH   7   8
ENDBRANCH   1   7
BRANCH   1  13
ATOM     13  C   UNL     1       4.507   4.694  17.773  0.00  0.00    +0.000 C 
BRANCH  13  14
ATOM     14  C   UNL     1       5.826   5.040  18.402  0.00  0.00    +0.000 A 
ATOM     15  C   UNL     1       7.042   5.399  17.769  0.00  0.00    +0.000 A 
ATOM     16  C   UNL     1       7.916   5.608  18.802  0.00  0.00    +0.000 A 
ATOM     17  O   UNL     1       7.279   5.408  19.980  0.00  0.00    +0.000 OA
ATOM     18  N   UNL     1       5.964   5.057  19.735  0.00  0.00    +0.000 NA
ENDBRANCH  13  14
ENDBRANCH   1  13
TORSDOF 6
ENDMDL
MODEL 6
REMARK VINA RESULT:      -6.5      0.743      1.185
REMARK  Name = 
REMARK  6 active torsions:
REMARK  status: ('A' for Active; 'I' for Inactive)
REMARK    1  A    between atoms: C_2  and  C_5
REMARK    2  A    between atoms: C_5  and  C_6
REMARK    3  A    between atoms: C_6  and  N_7
REMARK    4  A    between atoms: N_7  and  C_8
REMARK    5  A    between atoms: N_7  and  C_14
REMARK    6  A    between atoms: C_8  and  C_9
REMARK                            x       y       z     vdW  Elec       q    Type
REMARK                         _______ _______ _______ _____ _____    ______ ____
ROOT
ATOM      1  N   UNL     1       4.200   4.832  18.381  0.00  0.00    +0.000 NA
ENDROOT
BRANCH   1   2
ATOM      2  C   UNL     1       3.264   3.690  18.410  0.00  0.00    +0.000 C 
ATOM      3  C   UNL     1       3.068   3.015  19.777  0.00  0.00    +0.000 C 
ATOM      4  C   UNL     1       1.850   2.125  19.552  0.00  0.00    +0.000 C 
ATOM      5  C   UNL     1       0.975   2.879  18.555  0.00  0.00    +0.000 C 
ATOM      6  C   UNL     1       1.810   4.061  18.073  0.00  0.00    +0.000 C 
ENDBRANCH   1   2
BRANCH   1   7
ATOM      7  C   UNL     1       5.580   4.418  18.731  0.00  0.00    +0.000 C 
BRANCH   7   8
ATOM      8  C   UNL     1       6.432   5.486  19.426  0.00  0.00    +0.000 C 
BRANCH   8  10
ATOM      9  F   UNL     1       8.786   5.279  19.807  0.00  0.00    +0.000 F 
ATOM     10  C   UNL     1       7.844   5.516  18.870  0.00  0.00    +0.000 C 
ATOM     11  F   UNL     1       8.115   6.724  18.323  0.00  0.00    +0.000 F 
ATOM     12  F   UNL     1       7.998   4.594  17.894  0.00  0.00    +0.000 F 
ENDBRANCH   8  10
ENDBRANCH   7   8
ENDBRANCH   1   7
BRANCH   1  13
ATOM     13  C   UNL     1       4.119   5.597  17.109  0.00  0.00    +0.000 C 
BRANCH  13  14
ATOM     14  C   UNL     1       5.203   5.281  16.120  0.00  0.00    +0.000 A 
ATOM     15  C   UNL     1       5.436   4.072  15.418  0.00  0.00    +0.000 A 
ATOM     16  C   UNL     1       6.544   4.328  14.656  0.00  0.00    +0.000 A 
ATOM     17  O   UNL     1       6.949   5.603  14.862  0.00  0.00    +0.000 OA
ATOM     18  N   UNL     1       6.107   6.209  15.776  0.00  0.00    +0.000 NA
ENDBRANCH  13  14
ENDBRANCH   1  13
TORSDOF 6
ENDMDL
MODEL 7
REMARK VINA RESULT:      -6.4      1.954      2.707
REMARK  Name = 
REMARK  6 active torsions:
REMARK  status: ('A' for Active; 'I' for Inactive)
REMARK    1  A    between atoms: C_2  and  C_5
REMARK    2  A    between atoms: C_5  and  C_6
REMARK    3  A    between atoms: C_6  and  N_7
REMARK    4  A    between atoms: N_7  and  C_8
REMARK    5  A    between atoms: N_7  and  C_14
REMARK    6  A    between atoms: C_8  and  C_9
REMARK                            x       y       z     vdW  Elec       q    Type
REMARK                         _______ _______ _______ _____ _____    ______ ____
ROOT
ATOM      1  N   UNL     1       5.990   4.875  16.794  0.00  0.00    +0.000 NA
ENDROOT
BRANCH   1   2
ATOM      2  C   UNL     1       4.739   4.895  17.581  0.00  0.00    +0.000 C 
ATOM      3  C   UNL     1       3.885   6.166  17.452  0.00  0.00    +0.000 C 
ATOM      4  C   UNL     1       2.562   5.759  18.095  0.00  0.00    +0.000 C 
ATOM      5  C   UNL     1       2.395   4.277  17.777  0.00  0.00    +0.000 C 
ATOM      6  C   UNL     1       3.716   3.828  17.159  0.00  0.00    +0.000 C 
ENDBRANCH   1   2
BRANCH   1   7
ATOM      7  C   UNL     1       7.185   4.788  17.668  0.00  0.00    +0.000 C 
BRANCH   7   8
ATOM      8  C   UNL     1       7.361   5.944  18.660  0.00  0.00    +0.000 C 
BRANCH   8  10
ATOM      9  F   UNL     1       8.137   7.069  16.695  0.00  0.00    +0.000 F 
ATOM     10  C   UNL     1       7.655   7.248  17.943  0.00  0.00    +0.000 C 
ATOM     11  F   UNL     1       8.570   7.973  18.628  0.00  0.00    +0.000 F 
ATOM     12  F   UNL     1       6.540   8.007  17.844  0.00  0.00    +0.000 F 
ENDBRANCH   8  10
ENDBRANCH   7   8
ENDBRANCH   1   7
BRANCH   1  13
ATOM     13  C   UNL     1       5.967   3.846  15.722  0.00  0.00    +0.000 C 
BRANCH  13  14
ATOM     14  C   UNL     1       6.568   4.287  14.419  0.00  0.00    +0.000 A 
ATOM     15  C   UNL     1       6.324   3.784  13.117  0.00  0.00    +0.000 A 
ATOM     16  C   UNL     1       7.129   4.536  12.304  0.00  0.00    +0.000 A 
ATOM     17  O   UNL     1       7.802   5.443  13.050  0.00  0.00    +0.000 OA
ATOM     18  N   UNL     1       7.450   5.295  14.379  0.00  0.00    +0.000 NA
ENDBRANCH  13  14
ENDBRANCH   1  13
TORSDOF 6
ENDMDL
MODEL 8
REMARK VINA RESULT:      -6.4      3.535      5.674
REMARK  Name = 
REMARK  6 active torsions:
REMARK  status: ('A' for Active; 'I' for Inactive)
REMARK    1  A    between atoms: C_2  and  C_5
REMARK    2  A    between atoms: C_5  and  C_6
REMARK    3  A    between atoms: C_6  and  N_7
REMARK    4  A    between atoms: N_7  and  C_8
REMARK    5  A    between atoms: N_7  and  C_14
REMARK    6  A    between atoms: C_8  and  C_9
REMARK                            x       y       z     vdW  Elec       q    Type
REMARK                         _______ _______ _______ _____ _____    ______ ____
ROOT
ATOM      1  N   UNL     1       5.751   4.705  15.881  0.00  0.00    +0.000 NA
ENDROOT
BRANCH   1   2
ATOM      2  C   UNL     1       6.828   5.386  16.630  0.00  0.00    +0.000 C 
ATOM      3  C   UNL     1       6.554   6.847  17.021  0.00  0.00    +0.000 C 
ATOM      4  C   UNL     1       7.664   7.150  18.023  0.00  0.00    +0.000 C 
ATOM      5  C   UNL     1       7.919   5.838  18.757  0.00  0.00    +0.000 C 
ATOM      6  C   UNL     1       7.113   4.777  18.013  0.00  0.00    +0.000 C 
ENDBRANCH   1   2
BRANCH   1   7
ATOM      7  C   UNL     1       6.229   4.202  14.571  0.00  0.00    +0.000 C 
BRANCH   7   8
ATOM      8  C   UNL     1       5.135   3.725  13.609  0.00  0.00    +0.000 C 
BRANCH   8  10
ATOM      9  F   UNL     1       6.850   4.086  11.980  0.00  0.00    +0.000 F 
ATOM     10  C   UNL     1       5.699   3.428  12.232  0.00  0.00    +0.000 C 
ATOM     11  F   UNL     1       4.815   3.778  11.269  0.00  0.00    +0.000 F 
ATOM     12  F   UNL     1       5.945   2.107  12.086  0.00  0.00    +0.000 F 
ENDBRANCH   8  10
ENDBRANCH   7   8
ENDBRANCH   1   7
BRANCH   1  13
ATOM     13  C   UNL     1       5.065   3.670  16.696  0.00  0.00    +0.000 C 
BRANCH  13  14
ATOM     14  C   UNL     1       3.675   4.037  17.131  0.00  0.00    +0.000 A 
ATOM     15  C   UNL     1       3.236   5.213  17.789  0.00  0.00    +0.000 A 
ATOM     16  C   UNL     1       1.888   5.031  17.949  0.00  0.00    +0.000 A 
ATOM     17  O   UNL     1       1.527   3.841  17.414  0.00  0.00    +0.000 OA
ATOM     18  N   UNL     1       2.644   3.215  16.893  0.00  0.00    +0.000 NA
ENDBRANCH  13  14
ENDBRANCH   1  13
TORSDOF 6
ENDMDL
MODEL 9
REMARK VINA RESULT:      -6.3      4.023      5.696
REMARK  Name = 
REMARK  6 active torsions:
REMARK  status: ('A' for Active; 'I' for Inactive)
REMARK    1  A    between atoms: C_2  and  C_5
REMARK    2  A    between atoms: C_5  and  C_6
REMARK    3  A    between atoms: C_6  and  N_7
REMARK    4  A    between atoms: N_7  and  C_8
REMARK    5  A    between atoms: N_7  and  C_14
REMARK    6  A    between atoms: C_8  and  C_9
REMARK                            x       y       z     vdW  Elec       q    Type
REMARK                         _______ _______ _______ _____ _____    ______ ____
ROOT
ATOM      1  N   UNL     1       3.608   4.523  18.198  0.00  0.00    +0.000 NA
ENDROOT
BRANCH   1   2
ATOM      2  C   UNL     1       4.921   4.163  17.623  0.00  0.00    +0.000 C 
ATOM      3  C   UNL     1       5.185   4.655  16.192  0.00  0.00    +0.000 C 
ATOM      4  C   UNL     1       6.682   4.416  16.016  0.00  0.00    +0.000 C 
ATOM      5  C   UNL     1       7.294   4.644  17.394  0.00  0.00    +0.000 C 
ATOM      6  C   UNL     1       6.120   4.786  18.358  0.00  0.00    +0.000 C 
ENDBRANCH   1   2
BRANCH   1   7
ATOM      7  C   UNL     1       2.856   3.325  18.640  0.00  0.00    +0.000 C 
BRANCH   7   8
ATOM      8  C   UNL     1       2.635   3.207  20.153  0.00  0.00    +0.000 C 
BRANCH   8  10
ATOM      9  F   UNL     1       0.372   2.672  19.586  0.00  0.00    +0.000 F 
ATOM     10  C   UNL     1       1.160   3.271  20.503  0.00  0.00    +0.000 C 
ATOM     11  F   UNL     1       0.750   4.556  20.608  0.00  0.00    +0.000 F 
ATOM     12  F   UNL     1       0.920   2.679  21.695  0.00  0.00    +0.000 F 
ENDBRANCH   8  10
ENDBRANCH   7   8
ENDBRANCH   1   7
BRANCH   1  13
ATOM     13  C   UNL     1       3.719   5.570  19.247  0.00  0.00    +0.000 C 
BRANCH  13  14
ATOM     14  C   UNL     1       3.001   6.850  18.931  0.00  0.00    +0.000 A 
ATOM     15  C   UNL     1       3.047   7.620  17.742  0.00  0.00    +0.000 A 
ATOM     16  C   UNL     1       2.212   8.678  17.988  0.00  0.00    +0.000 A 
ATOM     17  O   UNL     1       1.682   8.556  19.227  0.00  0.00    +0.000 OA
ATOM     18  N   UNL     1       2.169   7.407  19.822  0.00  0.00    +0.000 NA
ENDBRANCH  13  14
ENDBRANCH   1  13
TORSDOF 6
ENDMDL
