MODEL 1
REMARK VINA RESULT:      -8.2      0.000      0.000
REMARK  Name = 
REMARK  2 active torsions:
REMARK  status: ('A' for Active; 'I' for Inactive)
REMARK    1  A    between atoms: N_12  and  N_13
REMARK    2  A    between atoms: C_14  and  C_16
REMARK                            x       y       z     vdW  Elec       q    Type
REMARK                         _______ _______ _______ _____ _____    ______ ____
ROOT
ATOM      1  O   UNL     1       2.027   9.237  17.251  0.00  0.00    +0.000 OA
ATOM      2  C   UNL     1       1.563   9.450  18.351  0.00  0.00    +0.000 C 
ATOM      3  N   UNL     1       0.830  10.526  18.806  0.00  0.00    +0.000 N 
ATOM      4  C   UNL     1       0.499  10.363  20.151  0.00  0.00    +0.000 A 
ATOM      5  C   UNL     1      -0.226  11.227  20.946  0.00  0.00    +0.000 A 
ATOM      6  C   UNL     1      -0.430  10.847  22.278  0.00  0.00    +0.000 A 
ATOM      7  C   UNL     1       0.089   9.636  22.770  0.00  0.00    +0.000 A 
ATOM      8  F   UNL     1      -0.127   9.311  24.051  0.00  0.00    +0.000 F 
ATOM      9  C   UNL     1       0.818   8.769  21.962  0.00  0.00    +0.000 A 
ATOM     10  C   UNL     1       1.004   9.163  20.653  0.00  0.00    +0.000 A 
ATOM     11  C   UNL     1       1.700   8.509  19.550  0.00  0.00    +0.000 C 
ATOM     12  N   UNL     1       2.297   7.364  19.618  0.00  0.00    +0.000 NA
ATOM     13  H   UNL     1       0.582  11.316  18.228  0.00  0.00    +0.000 HD
ENDROOT
BRANCH  12  14
ATOM     14  N   UNL     1       2.894   6.890  18.480  0.00  0.00    +0.000 N 
ATOM     15  C   UNL     1       3.905   5.946  18.597  0.00  0.00    +0.000 C 
ATOM     16  O   UNL     1       4.306   5.481  19.662  0.00  0.00    +0.000 OA
ATOM     17  H   UNL     1       2.527   7.181  17.574  0.00  0.00    +0.000 HD
BRANCH  15  18
ATOM     18  C   UNL     1       4.521   5.455  17.329  0.00  0.00    +0.000 A 
ATOM     19  C   UNL     1       4.943   6.319  16.308  0.00  0.00    +0.000 A 
ATOM     20  C   UNL     1       5.560   5.797  15.164  0.00  0.00    +0.000 A 
ATOM     21  C   UNL     1       5.751   4.424  15.045  0.00  0.00    +0.000 A 
ATOM     22  F   UNL     1       6.350   3.933  13.951  0.00  0.00    +0.000 F 
ATOM     23  C   UNL     1       5.343   3.555  16.048  0.00  0.00    +0.000 A 
ATOM     24  C   UNL     1       4.732   4.072  17.193  0.00  0.00    +0.000 A 
ENDBRANCH  15  18
ENDBRANCH  12  14
TORSDOF 2
ENDMDL
MODEL 2
REMARK VINA RESULT:      -8.2      0.120      1.038
REMARK  Name = 
REMARK  2 active torsions:
REMARK  status: ('A' for Active; 'I' for Inactive)
REMARK    1  A    between atoms: N_12  and  N_13
REMARK    2  A    between atoms: C_14  and  C_16
REMARK                            x       y       z     vdW  Elec       q    Type
REMARK                         _______ _______ _______ _____ _____    ______ ____
ROOT
ATOM      1  O   UNL     1       2.048   9.127  17.230  0.00  0.00    +0.000 OA
ATOM      2  C   UNL     1       1.582   9.354  18.327  0.00  0.00    +0.000 C 
ATOM      3  N   UNL     1       0.832  10.427  18.761  0.00  0.00    +0.000 N 
ATOM      4  C   UNL     1       0.504  10.286  20.109  0.00  0.00    +0.000 A 
ATOM      5  C   UNL     1      -0.235  11.153  20.887  0.00  0.00    +0.000 A 
ATOM      6  C   UNL     1      -0.432  10.797  22.227  0.00  0.00    +0.000 A 
ATOM      7  C   UNL     1       0.106   9.604  22.742  0.00  0.00    +0.000 A 
ATOM      8  F   UNL     1      -0.104   9.301  24.029  0.00  0.00    +0.000 F 
ATOM      9  C   UNL     1       0.849   8.732  21.951  0.00  0.00    +0.000 A 
ATOM     10  C   UNL     1       1.028   9.104  20.634  0.00  0.00    +0.000 A 
ATOM     11  C   UNL     1       1.734   8.439  19.544  0.00  0.00    +0.000 C 
ATOM     12  N   UNL     1       2.349   7.305  19.634  0.00  0.00    +0.000 NA
ATOM     13  H   UNL     1       0.571  11.201  18.167  0.00  0.00    +0.000 HD
ENDROOT
BRANCH  12  14
ATOM     14  N   UNL     1       2.953   6.819  18.505  0.00  0.00    +0.000 N 
ATOM     15  C   UNL     1       3.973   5.886  18.639  0.00  0.00    +0.000 C 
ATOM     16  O   UNL     1       4.375   5.442  19.713  0.00  0.00    +0.000 OA
ATOM     17  H   UNL     1       2.586   7.092  17.594  0.00  0.00    +0.000 HD
BRANCH  15  18
ATOM     18  C   UNL     1       4.596   5.381  17.381  0.00  0.00    +0.000 A 
ATOM     19  C   UNL     1       4.815   4.017  17.138  0.00  0.00    +0.000 A 
ATOM     20  C   UNL     1       5.358   3.605  15.915  0.00  0.00    +0.000 A 
ATOM     21  C   UNL     1       5.678   4.550  14.945  0.00  0.00    +0.000 A 
ATOM     22  F   UNL     1       6.189   4.147  13.774  0.00  0.00    +0.000 F 
ATOM     23  C   UNL     1       5.463   5.904  15.167  0.00  0.00    +0.000 A 
ATOM     24  C   UNL     1       4.917   6.318  16.385  0.00  0.00    +0.000 A 
ENDBRANCH  15  18
ENDBRANCH  12  14
TORSDOF 2
ENDMDL
MODEL 3
REMARK VINA RESULT:      -7.9      1.127      1.686
REMARK  Name = 
REMARK  2 active torsions:
REMARK  status: ('A' for Active; 'I' for Inactive)
REMARK    1  A    between atoms: N_12  and  N_13
REMARK    2  A    between atoms: C_14  and  C_16
REMARK                            x       y       z     vdW  Elec       q    Type
REMARK                         _______ _______ _______ _____ _____    ______ ____
ROOT
ATOM      1  O   UNL     1       1.886   9.458  17.367  0.00  0.00    +0.000 OA
ATOM      2  C   UNL     1       1.249   9.866  18.315  0.00  0.00    +0.000 C 
ATOM      3  N   UNL     1       0.457  10.990  18.429  0.00  0.00    +0.000 N 
ATOM      4  C   UNL     1      -0.092  11.078  19.707  0.00  0.00    +0.000 A 
ATOM      5  C   UNL     1      -0.933  12.059  20.191  0.00  0.00    +0.000 A 
ATOM      6  C   UNL     1      -1.356  11.936  21.521  0.00  0.00    +0.000 A 
ATOM      7  C   UNL     1      -0.933  10.855  22.315  0.00  0.00    +0.000 A 
ATOM      8  F   UNL     1      -1.359  10.776  23.581  0.00  0.00    +0.000 F 
ATOM      9  C   UNL     1      -0.086   9.868  21.819  0.00  0.00    +0.000 A 
ATOM     10  C   UNL     1       0.316  10.010  20.507  0.00  0.00    +0.000 A 
ATOM     11  C   UNL     1       1.180   9.175  19.679  0.00  0.00    +0.000 C 
ATOM     12  N   UNL     1       1.751   8.080  20.063  0.00  0.00    +0.000 NA
ATOM     13  H   UNL     1       0.313  11.647  17.676  0.00  0.00    +0.000 HD
ENDROOT
BRANCH  12  14
ATOM     14  N   UNL     1       2.524   7.413  19.150  0.00  0.00    +0.000 N 
ATOM     15  C   UNL     1       2.634   6.032  19.248  0.00  0.00    +0.000 C 
ATOM     16  O   UNL     1       2.069   5.345  20.096  0.00  0.00    +0.000 OA
ATOM     17  H   UNL     1       2.934   7.935  18.377  0.00  0.00    +0.000 HD
BRANCH  15  18
ATOM     18  C   UNL     1       3.483   5.349  18.228  0.00  0.00    +0.000 A 
ATOM     19  C   UNL     1       3.468   3.959  18.038  0.00  0.00    +0.000 A 
ATOM     20  C   UNL     1       4.252   3.386  17.029  0.00  0.00    +0.000 A 
ATOM     21  C   UNL     1       5.042   4.196  16.219  0.00  0.00    +0.000 A 
ATOM     22  F   UNL     1       5.781   3.640  15.250  0.00  0.00    +0.000 F 
ATOM     23  C   UNL     1       5.063   5.574  16.391  0.00  0.00    +0.000 A 
ATOM     24  C   UNL     1       4.279   6.150  17.393  0.00  0.00    +0.000 A 
ENDBRANCH  15  18
ENDBRANCH  12  14
TORSDOF 2
ENDMDL
MODEL 4
REMARK VINA RESULT:      -7.9      1.108      1.309
REMARK  Name = 
REMARK  2 active torsions:
REMARK  status: ('A' for Active; 'I' for Inactive)
REMARK    1  A    between atoms: N_12  and  N_13
REMARK    2  A    between atoms: C_14  and  C_16
REMARK                            x       y       z     vdW  Elec       q    Type
REMARK                         _______ _______ _______ _____ _____    ______ ____
ROOT
ATOM      1  O   UNL     1       1.931   9.533  17.351  0.00  0.00    +0.000 OA
ATOM      2  C   UNL     1       1.290   9.914  18.307  0.00  0.00    +0.000 C 
ATOM      3  N   UNL     1       0.511  11.043  18.455  0.00  0.00    +0.000 N 
ATOM      4  C   UNL     1      -0.049  11.092  19.731  0.00  0.00    +0.000 A 
ATOM      5  C   UNL     1      -0.882  12.065  20.243  0.00  0.00    +0.000 A 
ATOM      6  C   UNL     1      -1.318  11.900  21.564  0.00  0.00    +0.000 A 
ATOM      7  C   UNL     1      -0.915  10.785  22.322  0.00  0.00    +0.000 A 
ATOM      8  F   UNL     1      -1.353  10.666  23.581  0.00  0.00    +0.000 F 
ATOM      9  C   UNL     1      -0.076   9.807  21.798  0.00  0.00    +0.000 A 
ATOM     10  C   UNL     1       0.339   9.991  20.495  0.00  0.00    +0.000 A 
ATOM     11  C   UNL     1       1.201   9.175  19.645  0.00  0.00    +0.000 C 
ATOM     12  N   UNL     1       1.755   8.060  19.993  0.00  0.00    +0.000 NA
ATOM     13  H   UNL     1       0.381  11.729  17.725  0.00  0.00    +0.000 HD
ENDROOT
BRANCH  12  14
ATOM     14  N   UNL     1       2.528   7.417  19.064  0.00  0.00    +0.000 N 
ATOM     15  C   UNL     1       2.697   6.042  19.169  0.00  0.00    +0.000 C 
ATOM     16  O   UNL     1       2.185   5.341  20.039  0.00  0.00    +0.000 OA
ATOM     17  H   UNL     1       2.894   7.948  18.275  0.00  0.00    +0.000 HD
BRANCH  15  18
ATOM     18  C   UNL     1       3.543   5.385  18.130  0.00  0.00    +0.000 A 
ATOM     19  C   UNL     1       4.398   6.105  17.282  0.00  0.00    +0.000 A 
ATOM     20  C   UNL     1       5.203   5.423  16.362  0.00  0.00    +0.000 A 
ATOM     21  C   UNL     1       5.152   4.034  16.292  0.00  0.00    +0.000 A 
ATOM     22  F   UNL     1       5.933   3.388  15.415  0.00  0.00    +0.000 F 
ATOM     23  C   UNL     1       4.316   3.306  17.127  0.00  0.00    +0.000 A 
ATOM     24  C   UNL     1       3.514   3.982  18.050  0.00  0.00    +0.000 A 
ENDBRANCH  15  18
ENDBRANCH  12  14
TORSDOF 2
ENDMDL
MODEL 5
REMARK VINA RESULT:      -7.8      1.579      8.352
REMARK  Name = 
REMARK  2 active torsions:
REMARK  status: ('A' for Active; 'I' for Inactive)
REMARK    1  A    between atoms: N_12  and  N_13
REMARK    2  A    between atoms: C_14  and  C_16
REMARK                            x       y       z     vdW  Elec       q    Type
REMARK                         _______ _______ _______ _____ _____    ______ ____
ROOT
ATOM      1  O   UNL     1       1.521   5.672  20.793  0.00  0.00    +0.000 OA
ATOM      2  C   UNL     1       2.249   5.453  19.848  0.00  0.00    +0.000 C 
ATOM      3  N   UNL     1       2.759   4.257  19.386  0.00  0.00    +0.000 N 
ATOM      4  C   UNL     1       3.560   4.464  18.264  0.00  0.00    +0.000 A 
ATOM      5  C   UNL     1       4.236   3.511  17.530  0.00  0.00    +0.000 A 
ATOM      6  C   UNL     1       4.986   3.962  16.437  0.00  0.00    +0.000 A 
ATOM      7  C   UNL     1       5.041   5.331  16.116  0.00  0.00    +0.000 A 
ATOM      8  F   UNL     1       5.772   5.721  15.065  0.00  0.00    +0.000 F 
ATOM      9  C   UNL     1       4.356   6.287  16.861  0.00  0.00    +0.000 A 
ATOM     10  C   UNL     1       3.622   5.817  17.931  0.00  0.00    +0.000 A 
ATOM     11  C   UNL     1       2.794   6.525  18.903  0.00  0.00    +0.000 C 
ATOM     12  N   UNL     1       2.591   7.802  18.921  0.00  0.00    +0.000 NA
ATOM     13  H   UNL     1       2.567   3.365  19.819  0.00  0.00    +0.000 HD
ENDROOT
BRANCH  12  14
ATOM     14  N   UNL     1       1.774   8.301  19.901  0.00  0.00    +0.000 N 
ATOM     15  C   UNL     1       1.103   9.494  19.670  0.00  0.00    +0.000 C 
ATOM     16  O   UNL     1       1.172  10.144  18.629  0.00  0.00    +0.000 OA
ATOM     17  H   UNL     1       1.618   7.746  20.741  0.00  0.00    +0.000 HD
BRANCH  15  18
ATOM     18  C   UNL     1       0.221   9.995  20.765  0.00  0.00    +0.000 A 
ATOM     19  C   UNL     1       0.148   9.377  22.022  0.00  0.00    +0.000 A 
ATOM     20  C   UNL     1      -0.662   9.927  23.023  0.00  0.00    +0.000 A 
ATOM     21  C   UNL     1      -1.392  11.084  22.767  0.00  0.00    +0.000 A 
ATOM     22  F   UNL     1      -2.157  11.610  23.734  0.00  0.00    +0.000 F 
ATOM     23  C   UNL     1      -1.327  11.711  21.530  0.00  0.00    +0.000 A 
ATOM     24  C   UNL     1      -0.516  11.168  20.530  0.00  0.00    +0.000 A 
ENDBRANCH  15  18
ENDBRANCH  12  14
TORSDOF 2
ENDMDL
MODEL 6
REMARK VINA RESULT:      -7.6      1.480      8.261
REMARK  Name = 
REMARK  2 active torsions:
REMARK  status: ('A' for Active; 'I' for Inactive)
REMARK    1  A    between atoms: N_12  and  N_13
REMARK    2  A    between atoms: C_14  and  C_16
REMARK                            x       y       z     vdW  Elec       q    Type
REMARK                         _______ _______ _______ _____ _____    ______ ____
ROOT
ATOM      1  O   UNL     1       1.739   5.725  20.743  0.00  0.00    +0.000 OA
ATOM      2  C   UNL     1       2.447   5.492  19.786  0.00  0.00    +0.000 C 
ATOM      3  N   UNL     1       3.010   4.301  19.374  0.00  0.00    +0.000 N 
ATOM      4  C   UNL     1       3.761   4.487  18.215  0.00  0.00    +0.000 A 
ATOM      5  C   UNL     1       4.466   3.532  17.511  0.00  0.00    +0.000 A 
ATOM      6  C   UNL     1       5.154   3.960  16.369  0.00  0.00    +0.000 A 
ATOM      7  C   UNL     1       5.119   5.309  15.970  0.00  0.00    +0.000 A 
ATOM      8  F   UNL     1       5.792   5.677  14.873  0.00  0.00    +0.000 F 
ATOM      9  C   UNL     1       4.405   6.267  16.684  0.00  0.00    +0.000 A 
ATOM     10  C   UNL     1       3.734   5.820  17.804  0.00  0.00    +0.000 A 
ATOM     11  C   UNL     1       2.899   6.536  18.763  0.00  0.00    +0.000 C 
ATOM     12  N   UNL     1       2.623   7.798  18.717  0.00  0.00    +0.000 NA
ATOM     13  H   UNL     1       2.884   3.427  19.863  0.00  0.00    +0.000 HD
ENDROOT
BRANCH  12  14
ATOM     14  N   UNL     1       1.812   8.307  19.696  0.00  0.00    +0.000 N 
ATOM     15  C   UNL     1       1.287   9.583  19.535  0.00  0.00    +0.000 C 
ATOM     16  O   UNL     1       1.486  10.301  18.558  0.00  0.00    +0.000 OA
ATOM     17  H   UNL     1       1.549   7.709  20.478  0.00  0.00    +0.000 HD
BRANCH  15  18
ATOM     18  C   UNL     1       0.404  10.092  20.626  0.00  0.00    +0.000 A 
ATOM     19  C   UNL     1      -0.354  11.265  20.501  0.00  0.00    +0.000 A 
ATOM     20  C   UNL     1      -1.202  11.661  21.543  0.00  0.00    +0.000 A 
ATOM     21  C   UNL     1      -1.288  10.889  22.698  0.00  0.00    +0.000 A 
ATOM     22  F   UNL     1      -2.109  11.270  23.686  0.00  0.00    +0.000 F 
ATOM     23  C   UNL     1      -0.548   9.723  22.836  0.00  0.00    +0.000 A 
ATOM     24  C   UNL     1       0.296   9.322  21.796  0.00  0.00    +0.000 A 
ENDBRANCH  15  18
ENDBRANCH  12  14
TORSDOF 2
ENDMDL
MODEL 7
REMARK VINA RESULT:      -7.6      5.194      8.859
REMARK  Name = 
REMARK  2 active torsions:
REMARK  status: ('A' for Active; 'I' for Inactive)
REMARK    1  A    between atoms: N_12  and  N_13
REMARK    2  A    between atoms: C_14  and  C_16
REMARK                            x       y       z     vdW  Elec       q    Type
REMARK                         _______ _______ _______ _____ _____    ______ ____
ROOT
ATOM      1  O   UNL     1       5.971   5.178  17.864  0.00  0.00    +0.000 OA
ATOM      2  C   UNL     1       6.281   5.034  16.700  0.00  0.00    +0.000 C 
ATOM      3  N   UNL     1       7.176   5.746  15.930  0.00  0.00    +0.000 N 
ATOM      4  C   UNL     1       7.222   5.239  14.632  0.00  0.00    +0.000 A 
ATOM      5  C   UNL     1       7.999   5.689  13.583  0.00  0.00    +0.000 A 
ATOM      6  C   UNL     1       7.870   5.018  12.361  0.00  0.00    +0.000 A 
ATOM      7  C   UNL     1       6.982   3.935  12.223  0.00  0.00    +0.000 A 
ATOM      8  F   UNL     1       6.888   3.322  11.037  0.00  0.00    +0.000 F 
ATOM      9  C   UNL     1       6.204   3.485  13.286  0.00  0.00    +0.000 A 
ATOM     10  C   UNL     1       6.349   4.161  14.480  0.00  0.00    +0.000 A 
ATOM     11  C   UNL     1       5.707   3.959  15.774  0.00  0.00    +0.000 C 
ATOM     12  N   UNL     1       4.834   3.042  16.040  0.00  0.00    +0.000 NA
ATOM     13  H   UNL     1       7.713   6.527  16.279  0.00  0.00    +0.000 HD
ENDROOT
BRANCH  12  14
ATOM     14  N   UNL     1       4.338   2.987  17.315  0.00  0.00    +0.000 N 
ATOM     15  C   UNL     1       2.974   3.157  17.511  0.00  0.00    +0.000 C 
ATOM     16  O   UNL     1       2.157   3.342  16.611  0.00  0.00    +0.000 OA
ATOM     17  H   UNL     1       4.968   2.745  18.078  0.00  0.00    +0.000 HD
BRANCH  15  18
ATOM     18  C   UNL     1       2.479   3.084  18.918  0.00  0.00    +0.000 A 
ATOM     19  C   UNL     1       1.154   3.375  19.271  0.00  0.00    +0.000 A 
ATOM     20  C   UNL     1       0.742   3.238  20.602  0.00  0.00    +0.000 A 
ATOM     21  C   UNL     1       1.649   2.813  21.569  0.00  0.00    +0.000 A 
ATOM     22  F   UNL     1       1.244   2.676  22.839  0.00  0.00    +0.000 F 
ATOM     23  C   UNL     1       2.963   2.517  21.235  0.00  0.00    +0.000 A 
ATOM     24  C   UNL     1       3.377   2.648  19.907  0.00  0.00    +0.000 A 
ENDBRANCH  15  18
ENDBRANCH  12  14
TORSDOF 2
ENDMDL
MODEL 8
REMARK VINA RESULT:      -7.6      5.253      8.872
REMARK  Name = 
REMARK  2 active torsions:
REMARK  status: ('A' for Active; 'I' for Inactive)
REMARK    1  A    between atoms: N_12  and  N_13
REMARK    2  A    between atoms: C_14  and  C_16
REMARK                            x       y       z     vdW  Elec       q    Type
REMARK                         _______ _______ _______ _____ _____    ______ ____
ROOT
ATOM      1  O   UNL     1       6.042   5.093  17.938  0.00  0.00    +0.000 OA
ATOM      2  C   UNL     1       6.335   4.987  16.766  0.00  0.00    +0.000 C 
ATOM      3  N   UNL     1       7.223   5.723  16.009  0.00  0.00    +0.000 N 
ATOM      4  C   UNL     1       7.250   5.260  14.694  0.00  0.00    +0.000 A 
ATOM      5  C   UNL     1       8.014   5.742  13.651  0.00  0.00    +0.000 A 
ATOM      6  C   UNL     1       7.867   5.113  12.408  0.00  0.00    +0.000 A 
ATOM      7  C   UNL     1       6.974   4.038  12.246  0.00  0.00    +0.000 A 
ATOM      8  F   UNL     1       6.861   3.466  11.042  0.00  0.00    +0.000 F 
ATOM      9  C   UNL     1       6.208   3.556  13.303  0.00  0.00    +0.000 A 
ATOM     10  C   UNL     1       6.372   4.190  14.517  0.00  0.00    +0.000 A 
ATOM     11  C   UNL     1       5.745   3.946  15.812  0.00  0.00    +0.000 C 
ATOM     12  N   UNL     1       4.873   3.024  16.058  0.00  0.00    +0.000 NA
ATOM     13  H   UNL     1       7.767   6.490  16.377  0.00  0.00    +0.000 HD
ENDROOT
BRANCH  12  14
ATOM     14  N   UNL     1       4.394   2.928  17.338  0.00  0.00    +0.000 N 
ATOM     15  C   UNL     1       3.027   3.053  17.552  0.00  0.00    +0.000 C 
ATOM     16  O   UNL     1       2.195   3.232  16.666  0.00  0.00    +0.000 OA
ATOM     17  H   UNL     1       5.040   2.688  18.088  0.00  0.00    +0.000 HD
BRANCH  15  18
ATOM     18  C   UNL     1       2.552   2.935  18.962  0.00  0.00    +0.000 A 
ATOM     19  C   UNL     1       3.410   2.624  20.028  0.00  0.00    +0.000 A 
ATOM     20  C   UNL     1       2.909   2.578  21.335  0.00  0.00    +0.000 A 
ATOM     21  C   UNL     1       1.563   2.841  21.571  0.00  0.00    +0.000 A 
ATOM     22  F   UNL     1       1.094   2.805  22.826  0.00  0.00    +0.000 F 
ATOM     23  C   UNL     1       0.702   3.155  20.529  0.00  0.00    +0.000 A 
ATOM     24  C   UNL     1       1.198   3.207  19.224  0.00  0.00    +0.000 A 
ENDBRANCH  15  18
ENDBRANCH  12  14
TORSDOF 2
ENDMDL
MODEL 9
REMARK VINA RESULT:      -7.4      2.490      7.990
REMARK  Name = 
REMARK  2 active torsions:
REMARK  status: ('A' for Active; 'I' for Inactive)
REMARK    1  A    between atoms: N_12  and  N_13
REMARK    2  A    between atoms: C_14  and  C_16
REMARK                            x       y       z     vdW  Elec       q    Type
REMARK                         _______ _______ _______ _____ _____    ______ ____
ROOT
ATOM      1  O   UNL     1       1.735   6.919  20.182  0.00  0.00    +0.000 OA
ATOM      2  C   UNL     1       2.724   6.543  19.589  0.00  0.00    +0.000 C 
ATOM      3  N   UNL     1       3.639   5.569  19.930  0.00  0.00    +0.000 N 
ATOM      4  C   UNL     1       4.631   5.462  18.956  0.00  0.00    +0.000 A 
ATOM      5  C   UNL     1       5.709   4.601  18.949  0.00  0.00    +0.000 A 
ATOM      6  C   UNL     1       6.581   4.681  17.856  0.00  0.00    +0.000 A 
ATOM      7  C   UNL     1       6.355   5.605  16.819  0.00  0.00    +0.000 A 
ATOM      8  F   UNL     1       7.213   5.650  15.793  0.00  0.00    +0.000 F 
ATOM      9  C   UNL     1       5.264   6.469  16.833  0.00  0.00    +0.000 A 
ATOM     10  C   UNL     1       4.419   6.370  17.918  0.00  0.00    +0.000 A 
ATOM     11  C   UNL     1       3.201   7.103  18.248  0.00  0.00    +0.000 C 
ATOM     12  N   UNL     1       2.668   8.031  17.522  0.00  0.00    +0.000 NA
ATOM     13  H   UNL     1       3.581   5.021  20.777  0.00  0.00    +0.000 HD
ENDROOT
BRANCH  12  14
ATOM     14  N   UNL     1       1.513   8.610  17.977  0.00  0.00    +0.000 N 
ATOM     15  C   UNL     1       1.466   9.991  18.119  0.00  0.00    +0.000 C 
ATOM     16  O   UNL     1       2.393  10.752  17.849  0.00  0.00    +0.000 OA
ATOM     17  H   UNL     1       0.693   8.023  18.124  0.00  0.00    +0.000 HD
BRANCH  15  18
ATOM     18  C   UNL     1       0.185  10.576  18.613  0.00  0.00    +0.000 A 
ATOM     19  C   UNL     1       0.125  11.459  19.701  0.00  0.00    +0.000 A 
ATOM     20  C   UNL     1      -1.103  12.012  20.083  0.00  0.00    +0.000 A 
ATOM     21  C   UNL     1      -2.260  11.683  19.381  0.00  0.00    +0.000 A 
ATOM     22  F   UNL     1      -3.430  12.224  19.747  0.00  0.00    +0.000 F 
ATOM     23  C   UNL     1      -2.217  10.814  18.299  0.00  0.00    +0.000 A 
ATOM     24  C   UNL     1      -0.992  10.264  17.912  0.00  0.00    +0.000 A 
ENDBRANCH  15  18
ENDBRANCH  12  14
TORSDOF 2
ENDMDL
