MODEL 1
REMARK VINA RESULT:      -6.7      0.000      0.000
REMARK  Name = 
REMARK  4 active torsions:
REMARK  status: ('A' for Active; 'I' for Inactive)
REMARK    1  A    between atoms: C_2  and  C_7
REMARK    2  A    between atoms: N_3  and  C_4
REMARK    3  A    between atoms: C_4  and  C_5
REMARK    4  A    between atoms: C_5  and  O_6
REMARK                            x       y       z     vdW  Elec       q    Type
REMARK                         _______ _______ _______ _____ _____    ______ ____
ROOT
ATOM      1  C   UNL     1       4.500   5.015  17.293  0.00  0.00    +0.000 A 
ATOM      2  C   UNL     1       4.791   5.702  18.412  0.00  0.00    +0.000 A 
ATOM      3  N   UNL     1       4.149   5.565  19.617  0.00  0.00    +0.000 N 
ATOM      4  C   UNL     1       3.023   4.741  19.737  0.00  0.00    +0.000 A 
ATOM      5  C   UNL     1       2.315   4.652  20.937  0.00  0.00    +0.000 A 
ATOM      6  C   UNL     1       1.209   3.803  21.043  0.00  0.00    +0.000 A 
ATOM      7  C   UNL     1       0.810   3.025  19.954  0.00  0.00    +0.000 A 
ATOM      8  C   UNL     1       1.519   3.090  18.757  0.00  0.00    +0.000 A 
ATOM      9  C   UNL     1       2.623   3.943  18.653  0.00  0.00    +0.000 A 
ATOM     10  C   UNL     1       3.385   4.028  17.379  0.00  0.00    +0.000 A 
ATOM     11  O   UNL     1       3.090   3.310  16.426  0.00  0.00    +0.000 OA
ATOM     12  H   UNL     1       4.354   6.232  20.353  0.00  0.00    +0.000 HD
ENDROOT
BRANCH   1  14
ATOM     13  O   UNL     1       5.450   6.429  15.631  0.00  0.00    +0.000 OA
ATOM     14  C   UNL     1       5.287   5.290  16.058  0.00  0.00    +0.000 C 
ATOM     15  N   UNL     1       5.808   4.182  15.437  0.00  0.00    +0.000 N 
ATOM     16  H   UNL     1       5.639   3.264  15.853  0.00  0.00    +0.000 HD
BRANCH  15  17
ATOM     17  C   UNL     1       6.575   4.258  14.206  0.00  0.00    +0.000 C 
BRANCH  17  18
ATOM     18  C   UNL     1       5.798   3.707  13.012  0.00  0.00    +0.000 C 
BRANCH  18  19
ATOM     19  O   UNL     1       6.629   2.849  12.232  0.00  0.00    +0.000 OA
ATOM     20  H   UNL     1       6.493   3.110  11.303  0.00  0.00    +0.000 HD
ENDBRANCH  18  19
ENDBRANCH  17  18
ENDBRANCH  15  17
ENDBRANCH   1  14
TORSDOF 4
ENDMDL
MODEL 2
REMARK VINA RESULT:      -6.6      1.029      1.029
REMARK  Name = 
REMARK  4 active torsions:
REMARK  status: ('A' for Active; 'I' for Inactive)
REMARK    1  A    between atoms: C_2  and  C_7
REMARK    2  A    between atoms: N_3  and  C_4
REMARK    3  A    between atoms: C_4  and  C_5
REMARK    4  A    between atoms: C_5  and  O_6
REMARK                            x       y       z     vdW  Elec       q    Type
REMARK                         _______ _______ _______ _____ _____    ______ ____
ROOT
ATOM      1  C   UNL     1       5.214   4.486  17.758  0.00  0.00    +0.000 A 
ATOM      2  C   UNL     1       5.211   5.447  18.699  0.00  0.00    +0.000 A 
ATOM      3  N   UNL     1       4.277   5.580  19.695  0.00  0.00    +0.000 N 
ATOM      4  C   UNL     1       3.151   4.747  19.734  0.00  0.00    +0.000 A 
ATOM      5  C   UNL     1       2.155   4.921  20.697  0.00  0.00    +0.000 A 
ATOM      6  C   UNL     1       1.051   4.063  20.734  0.00  0.00    +0.000 A 
ATOM      7  C   UNL     1       0.942   3.016  19.817  0.00  0.00    +0.000 A 
ATOM      8  C   UNL     1       1.937   2.819  18.862  0.00  0.00    +0.000 A 
ATOM      9  C   UNL     1       3.038   3.682  18.826  0.00  0.00    +0.000 A 
ATOM     10  C   UNL     1       4.105   3.490  17.809  0.00  0.00    +0.000 A 
ATOM     11  O   UNL     1       4.061   2.540  17.030  0.00  0.00    +0.000 OA
ATOM     12  H   UNL     1       4.290   6.420  20.262  0.00  0.00    +0.000 HD
ENDROOT
BRANCH   1  14
ATOM     13  O   UNL     1       7.475   4.658  17.035  0.00  0.00    +0.000 OA
ATOM     14  C   UNL     1       6.298   4.488  16.735  0.00  0.00    +0.000 C 
ATOM     15  N   UNL     1       5.882   4.292  15.442  0.00  0.00    +0.000 N 
ATOM     16  H   UNL     1       4.885   4.150  15.265  0.00  0.00    +0.000 HD
BRANCH  15  17
ATOM     17  C   UNL     1       6.796   4.294  14.313  0.00  0.00    +0.000 C 
BRANCH  17  18
ATOM     18  C   UNL     1       6.144   3.740  13.048  0.00  0.00    +0.000 C 
BRANCH  18  19
ATOM     19  O   UNL     1       7.032   3.861  11.937  0.00  0.00    +0.000 OA
ATOM     20  H   UNL     1       6.660   3.305  11.230  0.00  0.00    +0.000 HD
ENDBRANCH  18  19
ENDBRANCH  17  18
ENDBRANCH  15  17
ENDBRANCH   1  14
TORSDOF 4
ENDMDL
MODEL 3
REMARK VINA RESULT:      -6.6      1.532      1.713
REMARK  Name = 
REMARK  4 active torsions:
REMARK  status: ('A' for Active; 'I' for Inactive)
REMARK    1  A    between atoms: C_2  and  C_7
REMARK    2  A    between atoms: N_3  and  C_4
REMARK    3  A    between atoms: C_4  and  C_5
REMARK    4  A    between atoms: C_5  and  O_6
REMARK                            x       y       z     vdW  Elec       q    Type
REMARK                         _______ _______ _______ _____ _____    ______ ____
ROOT
ATOM      1  C   UNL     1       4.412   5.208  17.748  0.00  0.00    +0.000 A 
ATOM      2  C   UNL     1       3.216   5.822  17.699  0.00  0.00    +0.000 A 
ATOM      3  N   UNL     1       2.166   5.581  18.548  0.00  0.00    +0.000 N 
ATOM      4  C   UNL     1       2.236   4.555  19.499  0.00  0.00    +0.000 A 
ATOM      5  C   UNL     1       1.146   4.251  20.317  0.00  0.00    +0.000 A 
ATOM      6  C   UNL     1       1.245   3.239  21.277  0.00  0.00    +0.000 A 
ATOM      7  C   UNL     1       2.439   2.533  21.436  0.00  0.00    +0.000 A 
ATOM      8  C   UNL     1       3.540   2.839  20.640  0.00  0.00    +0.000 A 
ATOM      9  C   UNL     1       3.436   3.849  19.677  0.00  0.00    +0.000 A 
ATOM     10  C   UNL     1       4.600   4.183  18.814  0.00  0.00    +0.000 A 
ATOM     11  O   UNL     1       5.679   3.616  18.976  0.00  0.00    +0.000 OA
ATOM     12  H   UNL     1       1.265   5.996  18.334  0.00  0.00    +0.000 HD
ENDROOT
BRANCH   1  14
ATOM     13  O   UNL     1       5.661   6.742  16.424  0.00  0.00    +0.000 OA
ATOM     14  C   UNL     1       5.448   5.576  16.741  0.00  0.00    +0.000 C 
ATOM     15  N   UNL     1       6.136   4.521  16.198  0.00  0.00    +0.000 N 
ATOM     16  H   UNL     1       5.912   3.575  16.514  0.00  0.00    +0.000 HD
BRANCH  15  17
ATOM     17  C   UNL     1       7.160   4.689  15.181  0.00  0.00    +0.000 C 
BRANCH  17  18
ATOM     18  C   UNL     1       6.586   4.585  13.769  0.00  0.00    +0.000 C 
BRANCH  18  19
ATOM     19  O   UNL     1       6.378   3.218  13.417  0.00  0.00    +0.000 OA
ATOM     20  H   UNL     1       5.421   3.120  13.263  0.00  0.00    +0.000 HD
ENDBRANCH  18  19
ENDBRANCH  17  18
ENDBRANCH  15  17
ENDBRANCH   1  14
TORSDOF 4
ENDMDL
MODEL 4
REMARK VINA RESULT:      -6.5      1.506      1.977
REMARK  Name = 
REMARK  4 active torsions:
REMARK  status: ('A' for Active; 'I' for Inactive)
REMARK    1  A    between atoms: C_2  and  C_7
REMARK    2  A    between atoms: N_3  and  C_4
REMARK    3  A    between atoms: C_4  and  C_5
REMARK    4  A    between atoms: C_5  and  O_6
REMARK                            x       y       z     vdW  Elec       q    Type
REMARK                         _______ _______ _______ _____ _____    ______ ____
ROOT
ATOM      1  C   UNL     1       5.322   5.353  16.079  0.00  0.00    +0.000 A 
ATOM      2  C   UNL     1       5.148   6.661  16.338  0.00  0.00    +0.000 A 
ATOM      3  N   UNL     1       4.363   7.174  17.340  0.00  0.00    +0.000 N 
ATOM      4  C   UNL     1       3.568   6.332  18.127  0.00  0.00    +0.000 A 
ATOM      5  C   UNL     1       2.708   6.848  19.098  0.00  0.00    +0.000 A 
ATOM      6  C   UNL     1       1.941   5.988  19.891  0.00  0.00    +0.000 A 
ATOM      7  C   UNL     1       2.038   4.604  19.728  0.00  0.00    +0.000 A 
ATOM      8  C   UNL     1       2.906   4.075  18.776  0.00  0.00    +0.000 A 
ATOM      9  C   UNL     1       3.669   4.939  17.982  0.00  0.00    +0.000 A 
ATOM     10  C   UNL     1       4.595   4.390  16.956  0.00  0.00    +0.000 A 
ATOM     11  O   UNL     1       4.742   3.175  16.835  0.00  0.00    +0.000 OA
ATOM     12  H   UNL     1       4.192   8.174  17.357  0.00  0.00    +0.000 HD
ENDROOT
BRANCH   1  14
ATOM     13  O   UNL     1       7.361   5.349  14.853  0.00  0.00    +0.000 OA
ATOM     14  C   UNL     1       6.201   4.957  14.943  0.00  0.00    +0.000 C 
ATOM     15  N   UNL     1       5.621   4.134  14.012  0.00  0.00    +0.000 N 
ATOM     16  H   UNL     1       4.652   3.841  14.154  0.00  0.00    +0.000 HD
BRANCH  15  17
ATOM     17  C   UNL     1       6.319   3.674  12.824  0.00  0.00    +0.000 C 
BRANCH  17  18
ATOM     18  C   UNL     1       5.413   2.847  11.913  0.00  0.00    +0.000 C 
BRANCH  18  19
ATOM     19  O   UNL     1       6.018   1.588  11.622  0.00  0.00    +0.000 OA
ATOM     20  H   UNL     1       6.459   1.303  12.442  0.00  0.00    +0.000 HD
ENDBRANCH  18  19
ENDBRANCH  17  18
ENDBRANCH  15  17
ENDBRANCH   1  14
TORSDOF 4
ENDMDL
MODEL 5
REMARK VINA RESULT:      -6.5      2.062      2.915
REMARK  Name = 
REMARK  4 active torsions:
REMARK  status: ('A' for Active; 'I' for Inactive)
REMARK    1  A    between atoms: C_2  and  C_7
REMARK    2  A    between atoms: N_3  and  C_4
REMARK    3  A    between atoms: C_4  and  C_5
REMARK    4  A    between atoms: C_5  and  O_6
REMARK                            x       y       z     vdW  Elec       q    Type
REMARK                         _______ _______ _______ _____ _____    ______ ____
ROOT
ATOM      1  C   UNL     1       5.664   4.749  15.674  0.00  0.00    +0.000 A 
ATOM      2  C   UNL     1       5.506   3.688  16.486  0.00  0.00    +0.000 A 
ATOM      3  N   UNL     1       4.732   3.664  17.618  0.00  0.00    +0.000 N 
ATOM      4  C   UNL     1       4.112   4.830  18.085  0.00  0.00    +0.000 A 
ATOM      5  C   UNL     1       3.385   4.835  19.278  0.00  0.00    +0.000 A 
ATOM      6  C   UNL     1       2.752   6.004  19.713  0.00  0.00    +0.000 A 
ATOM      7  C   UNL     1       2.829   7.173  18.952  0.00  0.00    +0.000 A 
ATOM      8  C   UNL     1       3.536   7.176  17.752  0.00  0.00    +0.000 A 
ATOM      9  C   UNL     1       4.171   6.006  17.321  0.00  0.00    +0.000 A 
ATOM     10  C   UNL     1       4.935   5.996  16.046  0.00  0.00    +0.000 A 
ATOM     11  O   UNL     1       4.968   6.995  15.330  0.00  0.00    +0.000 OA
ATOM     12  H   UNL     1       4.798   2.859  18.232  0.00  0.00    +0.000 HD
ENDROOT
BRANCH   1  14
ATOM     13  O   UNL     1       7.631   5.196  14.412  0.00  0.00    +0.000 OA
ATOM     14  C   UNL     1       6.552   4.616  14.485  0.00  0.00    +0.000 C 
ATOM     15  N   UNL     1       6.074   3.808  13.485  0.00  0.00    +0.000 N 
ATOM     16  H   UNL     1       5.169   3.350  13.615  0.00  0.00    +0.000 HD
BRANCH  15  17
ATOM     17  C   UNL     1       6.791   3.588  12.241  0.00  0.00    +0.000 C 
BRANCH  17  18
ATOM     18  C   UNL     1       6.265   2.369  11.485  0.00  0.00    +0.000 C 
BRANCH  18  19
ATOM     19  O   UNL     1       7.323   1.444  11.235  0.00  0.00    +0.000 OA
ATOM     20  H   UNL     1       7.425   0.921  12.051  0.00  0.00    +0.000 HD
ENDBRANCH  18  19
ENDBRANCH  17  18
ENDBRANCH  15  17
ENDBRANCH   1  14
TORSDOF 4
ENDMDL
MODEL 6
REMARK VINA RESULT:      -6.5      2.933      6.136
REMARK  Name = 
REMARK  4 active torsions:
REMARK  status: ('A' for Active; 'I' for Inactive)
REMARK    1  A    between atoms: C_2  and  C_7
REMARK    2  A    between atoms: N_3  and  C_4
REMARK    3  A    between atoms: C_4  and  C_5
REMARK    4  A    between atoms: C_5  and  O_6
REMARK                            x       y       z     vdW  Elec       q    Type
REMARK                         _______ _______ _______ _____ _____    ______ ____
ROOT
ATOM      1  C   UNL     1       3.974   4.377  18.050  0.00  0.00    +0.000 A 
ATOM      2  C   UNL     1       3.778   5.278  17.071  0.00  0.00    +0.000 A 
ATOM      3  N   UNL     1       4.671   6.250  16.698  0.00  0.00    +0.000 N 
ATOM      4  C   UNL     1       5.856   6.448  17.419  0.00  0.00    +0.000 A 
ATOM      5  C   UNL     1       6.736   7.483  17.096  0.00  0.00    +0.000 A 
ATOM      6  C   UNL     1       7.926   7.646  17.813  0.00  0.00    +0.000 A 
ATOM      7  C   UNL     1       8.252   6.768  18.848  0.00  0.00    +0.000 A 
ATOM      8  C   UNL     1       7.392   5.719  19.168  0.00  0.00    +0.000 A 
ATOM      9  C   UNL     1       6.201   5.561  18.451  0.00  0.00    +0.000 A 
ATOM     10  C   UNL     1       5.270   4.451  18.785  0.00  0.00    +0.000 A 
ATOM     11  O   UNL     1       5.562   3.630  19.652  0.00  0.00    +0.000 OA
ATOM     12  H   UNL     1       4.365   6.964  16.046  0.00  0.00    +0.000 HD
ENDROOT
BRANCH   1  14
ATOM     13  O   UNL     1       2.474   2.618  17.485  0.00  0.00    +0.000 OA
ATOM     14  C   UNL     1       2.897   3.388  18.341  0.00  0.00    +0.000 C 
ATOM     15  N   UNL     1       2.416   3.409  19.625  0.00  0.00    +0.000 N 
ATOM     16  H   UNL     1       2.820   4.073  20.289  0.00  0.00    +0.000 HD
BRANCH  15  17
ATOM     17  C   UNL     1       1.345   2.538  20.078  0.00  0.00    +0.000 C 
BRANCH  17  18
ATOM     18  C   UNL     1       1.251   2.490  21.602  0.00  0.00    +0.000 C 
BRANCH  18  19
ATOM     19  O   UNL     1       2.524   2.766  22.186  0.00  0.00    +0.000 OA
ATOM     20  H   UNL     1       2.514   3.710  22.426  0.00  0.00    +0.000 HD
ENDBRANCH  18  19
ENDBRANCH  17  18
ENDBRANCH  15  17
ENDBRANCH   1  14
TORSDOF 4
ENDMDL
MODEL 7
REMARK VINA RESULT:      -6.4      2.421      3.573
REMARK  Name = 
REMARK  4 active torsions:
REMARK  status: ('A' for Active; 'I' for Inactive)
REMARK    1  A    between atoms: C_2  and  C_7
REMARK    2  A    between atoms: N_3  and  C_4
REMARK    3  A    between atoms: C_4  and  C_5
REMARK    4  A    between atoms: C_5  and  O_6
REMARK                            x       y       z     vdW  Elec       q    Type
REMARK                         _______ _______ _______ _____ _____    ______ ____
ROOT
ATOM      1  C   UNL     1       4.456   5.295  17.232  0.00  0.00    +0.000 A 
ATOM      2  C   UNL     1       4.446   4.005  16.853  0.00  0.00    +0.000 A 
ATOM      3  N   UNL     1       3.613   3.037  17.356  0.00  0.00    +0.000 N 
ATOM      4  C   UNL     1       2.753   3.318  18.425  0.00  0.00    +0.000 A 
ATOM      5  C   UNL     1       1.958   2.323  18.995  0.00  0.00    +0.000 A 
ATOM      6  C   UNL     1       1.087   2.631  20.045  0.00  0.00    +0.000 A 
ATOM      7  C   UNL     1       0.995   3.940  20.524  0.00  0.00    +0.000 A 
ATOM      8  C   UNL     1       1.769   4.946  19.952  0.00  0.00    +0.000 A 
ATOM      9  C   UNL     1       2.642   4.634  18.904  0.00  0.00    +0.000 A 
ATOM     10  C   UNL     1       3.480   5.695  18.287  0.00  0.00    +0.000 A 
ATOM     11  O   UNL     1       3.374   6.865  18.651  0.00  0.00    +0.000 OA
ATOM     12  H   UNL     1       3.787   2.070  17.102  0.00  0.00    +0.000 HD
ENDROOT
BRANCH   1  14
ATOM     13  O   UNL     1       5.325   6.577  15.424  0.00  0.00    +0.000 OA
ATOM     14  C   UNL     1       5.433   6.222  16.594  0.00  0.00    +0.000 C 
ATOM     15  N   UNL     1       6.457   6.642  17.405  0.00  0.00    +0.000 N 
ATOM     16  H   UNL     1       6.481   6.312  18.373  0.00  0.00    +0.000 HD
BRANCH  15  17
ATOM     17  C   UNL     1       7.516   7.522  16.944  0.00  0.00    +0.000 C 
BRANCH  17  18
ATOM     18  C   UNL     1       8.093   8.367  18.078  0.00  0.00    +0.000 C 
BRANCH  18  19
ATOM     19  O   UNL     1       8.668   7.528  19.080  0.00  0.00    +0.000 OA
ATOM     20  H   UNL     1       9.598   7.395  18.822  0.00  0.00    +0.000 HD
ENDBRANCH  18  19
ENDBRANCH  17  18
ENDBRANCH  15  17
ENDBRANCH   1  14
TORSDOF 4
ENDMDL
MODEL 8
REMARK VINA RESULT:      -6.4      2.145      6.267
REMARK  Name = 
REMARK  4 active torsions:
REMARK  status: ('A' for Active; 'I' for Inactive)
REMARK    1  A    between atoms: C_2  and  C_7
REMARK    2  A    between atoms: N_3  and  C_4
REMARK    3  A    between atoms: C_4  and  C_5
REMARK    4  A    between atoms: C_5  and  O_6
REMARK                            x       y       z     vdW  Elec       q    Type
REMARK                         _______ _______ _______ _____ _____    ______ ____
ROOT
ATOM      1  C   UNL     1       5.983   4.789  17.052  0.00  0.00    +0.000 A 
ATOM      2  C   UNL     1       7.038   5.578  16.786  0.00  0.00    +0.000 A 
ATOM      3  N   UNL     1       7.590   5.775  15.545  0.00  0.00    +0.000 N 
ATOM      4  C   UNL     1       7.137   5.047  14.438  0.00  0.00    +0.000 A 
ATOM      5  C   UNL     1       7.741   5.182  13.186  0.00  0.00    +0.000 A 
ATOM      6  C   UNL     1       7.256   4.464  12.088  0.00  0.00    +0.000 A 
ATOM      7  C   UNL     1       6.155   3.617  12.229  0.00  0.00    +0.000 A 
ATOM      8  C   UNL     1       5.531   3.487  13.468  0.00  0.00    +0.000 A 
ATOM      9  C   UNL     1       6.021   4.204  14.566  0.00  0.00    +0.000 A 
ATOM     10  C   UNL     1       5.371   4.070  15.896  0.00  0.00    +0.000 A 
ATOM     11  O   UNL     1       4.365   3.377  16.033  0.00  0.00    +0.000 OA
ATOM     12  H   UNL     1       8.469   6.277  15.481  0.00  0.00    +0.000 HD
ENDROOT
BRANCH   1  14
ATOM     13  O   UNL     1       6.275   4.779  19.413  0.00  0.00    +0.000 OA
ATOM     14  C   UNL     1       5.510   4.673  18.460  0.00  0.00    +0.000 C 
ATOM     15  N   UNL     1       4.167   4.437  18.609  0.00  0.00    +0.000 N 
ATOM     16  H   UNL     1       3.586   4.367  17.771  0.00  0.00    +0.000 HD
BRANCH  15  17
ATOM     17  C   UNL     1       3.537   4.266  19.907  0.00  0.00    +0.000 C 
BRANCH  17  18
ATOM     18  C   UNL     1       3.447   2.795  20.310  0.00  0.00    +0.000 C 
BRANCH  18  19
ATOM     19  O   UNL     1       4.749   2.213  20.360  0.00  0.00    +0.000 OA
ATOM     20  H   UNL     1       5.020   2.072  19.435  0.00  0.00    +0.000 HD
ENDBRANCH  18  19
ENDBRANCH  17  18
ENDBRANCH  15  17
ENDBRANCH   1  14
TORSDOF 4
ENDMDL
MODEL 9
REMARK VINA RESULT:      -6.4      2.307      3.018
REMARK  Name = 
REMARK  4 active torsions:
REMARK  status: ('A' for Active; 'I' for Inactive)
REMARK    1  A    between atoms: C_2  and  C_7
REMARK    2  A    between atoms: N_3  and  C_4
REMARK    3  A    between atoms: C_4  and  C_5
REMARK    4  A    between atoms: C_5  and  O_6
REMARK                            x       y       z     vdW  Elec       q    Type
REMARK                         _______ _______ _______ _____ _____    ______ ____
ROOT
ATOM      1  C   UNL     1       5.626   5.055  16.601  0.00  0.00    +0.000 A 
ATOM      2  C   UNL     1       5.384   4.246  17.648  0.00  0.00    +0.000 A 
ATOM      3  N   UNL     1       4.458   4.480  18.633  0.00  0.00    +0.000 N 
ATOM      4  C   UNL     1       3.746   5.685  18.674  0.00  0.00    +0.000 A 
ATOM      5  C   UNL     1       2.858   5.966  19.714  0.00  0.00    +0.000 A 
ATOM      6  C   UNL     1       2.138   7.165  19.723  0.00  0.00    +0.000 A 
ATOM      7  C   UNL     1       2.290   8.087  18.684  0.00  0.00    +0.000 A 
ATOM      8  C   UNL     1       3.159   7.811  17.631  0.00  0.00    +0.000 A 
ATOM      9  C   UNL     1       3.881   6.612  17.628  0.00  0.00    +0.000 A 
ATOM     10  C   UNL     1       4.817   6.306  16.515  0.00  0.00    +0.000 A 
ATOM     11  O   UNL     1       4.924   7.074  15.560  0.00  0.00    +0.000 OA
ATOM     12  H   UNL     1       4.458   3.877  19.449  0.00  0.00    +0.000 HD
ENDROOT
BRANCH   1  14
ATOM     13  O   UNL     1       7.853   4.534  15.944  0.00  0.00    +0.000 OA
ATOM     14  C   UNL     1       6.677   4.663  15.619  0.00  0.00    +0.000 C 
ATOM     15  N   UNL     1       6.234   4.464  14.336  0.00  0.00    +0.000 N 
ATOM     16  H   UNL     1       5.238   4.583  14.138  0.00  0.00    +0.000 HD
BRANCH  15  17
ATOM     17  C   UNL     1       7.123   4.108  13.244  0.00  0.00    +0.000 C 
BRANCH  17  18
ATOM     18  C   UNL     1       7.683   5.341  12.536  0.00  0.00    +0.000 C 
BRANCH  18  19
ATOM     19  O   UNL     1       8.764   5.896  13.285  0.00  0.00    +0.000 OA
ATOM     20  H   UNL     1       8.414   6.073  14.177  0.00  0.00    +0.000 HD
ENDBRANCH  18  19
ENDBRANCH  17  18
ENDBRANCH  15  17
ENDBRANCH   1  14
TORSDOF 4
ENDMDL
