MODEL 1
REMARK VINA RESULT:      -6.8      0.000      0.000
REMARK  Name = 
REMARK  9 active torsions:
REMARK  status: ('A' for Active; 'I' for Inactive)
REMARK    1  A    between atoms: C_1  and  S_2
REMARK    2  A    between atoms: S_2  and  C_3
REMARK    3  A    between atoms: C_3  and  C_4
REMARK    4  A    between atoms: C_4  and  N_5
REMARK    5  A    between atoms: N_5  and  C_10
REMARK    6  A    between atoms: C_6  and  C_8
REMARK    7  A    between atoms: C_10  and  C_14
REMARK    8  A    between atoms: C_11  and  C_12
REMARK    9  A    between atoms: C_11  and  C_13
REMARK                            x       y       z     vdW  Elec       q    Type
REMARK                         _______ _______ _______ _____ _____    ______ ____
ROOT
ATOM      1  C   UNL     1       4.562   4.810  17.507  0.00  0.00    +0.000 C 
ATOM      2  C   UNL     1       4.307   6.133  17.318  0.00  0.00    +0.000 C 
ATOM      3  C   UNL     1       3.166   6.926  17.918  0.00  0.00    +0.000 C 
ATOM      4  C   UNL     1       5.172   7.046  16.466  0.00  0.00    +0.000 C 
ENDROOT
BRANCH   1   5
ATOM      5  C   UNL     1       3.630   3.898  18.279  0.00  0.00    +0.000 A 
ATOM      6  C   UNL     1       2.507   3.303  17.669  0.00  0.00    +0.000 A 
ATOM      7  C   UNL     1       1.554   2.586  18.406  0.00  0.00    +0.000 A 
ATOM      8  C   UNL     1       1.751   2.357  19.760  0.00  0.00    +0.000 A 
ATOM      9  C   UNL     1       2.912   2.822  20.364  0.00  0.00    +0.000 A 
ATOM     10  C   UNL     1       3.832   3.582  19.631  0.00  0.00    +0.000 A 
ENDBRANCH   1   5
BRANCH   1  11
ATOM     11  N   UNL     1       5.747   4.256  16.991  0.00  0.00    +0.000 N 
ATOM     12  C   UNL     1       7.018   4.600  17.489  0.00  0.00    +0.000 C 
ATOM     13  O   UNL     1       8.051   4.239  16.920  0.00  0.00    +0.000 OA
BRANCH  12  14
ATOM     14  C   UNL     1       7.056   5.361  18.812  0.00  0.00    +0.000 C 
ATOM     15 CL   UNL     1       8.054   6.831  18.675  0.00  0.00    +0.000 Cl
ENDBRANCH  12  14
BRANCH  11  16
ATOM     16  C   UNL     1       5.666   3.566  15.676  0.00  0.00    +0.000 C 
BRANCH  16  17
ATOM     17  C   UNL     1       5.494   4.444  14.424  0.00  0.00    +0.000 C 
BRANCH  17  19
ATOM     18  C   UNL     1       4.985   3.316  11.945  0.00  0.00    +0.000 C 
ATOM     19  S   UNL     1       6.397   3.689  13.014  0.00  0.00    +0.000 S 
ENDBRANCH  17  19
ENDBRANCH  16  17
ENDBRANCH  11  16
ENDBRANCH   1  11
TORSDOF 6
ENDMDL
MODEL 2
REMARK VINA RESULT:      -6.7      3.666      5.939
REMARK  Name = 
REMARK  9 active torsions:
REMARK  status: ('A' for Active; 'I' for Inactive)
REMARK    1  A    between atoms: C_1  and  S_2
REMARK    2  A    between atoms: S_2  and  C_3
REMARK    3  A    between atoms: C_3  and  C_4
REMARK    4  A    between atoms: C_4  and  N_5
REMARK    5  A    between atoms: N_5  and  C_10
REMARK    6  A    between atoms: C_6  and  C_8
REMARK    7  A    between atoms: C_10  and  C_14
REMARK    8  A    between atoms: C_11  and  C_12
REMARK    9  A    between atoms: C_11  and  C_13
REMARK                            x       y       z     vdW  Elec       q    Type
REMARK                         _______ _______ _______ _____ _____    ______ ____
ROOT
ATOM      1  C   UNL     1       3.934   5.314  18.266  0.00  0.00    +0.000 C 
ATOM      2  C   UNL     1       3.478   4.377  17.390  0.00  0.00    +0.000 C 
ATOM      3  C   UNL     1       4.308   3.586  16.403  0.00  0.00    +0.000 C 
ATOM      4  C   UNL     1       2.022   3.958  17.286  0.00  0.00    +0.000 C 
ENDROOT
BRANCH   1   5
ATOM      5  C   UNL     1       5.374   5.787  18.283  0.00  0.00    +0.000 A 
ATOM      6  C   UNL     1       6.301   5.297  19.225  0.00  0.00    +0.000 A 
ATOM      7  C   UNL     1       7.588   5.837  19.352  0.00  0.00    +0.000 A 
ATOM      8  C   UNL     1       8.020   6.817  18.470  0.00  0.00    +0.000 A 
ATOM      9  C   UNL     1       7.174   7.232  17.450  0.00  0.00    +0.000 A 
ATOM     10  C   UNL     1       5.871   6.723  17.365  0.00  0.00    +0.000 A 
ENDBRANCH   1   5
BRANCH   1  11
ATOM     11  N   UNL     1       3.052   5.856  19.216  0.00  0.00    +0.000 N 
ATOM     12  C   UNL     1       2.567   7.175  19.128  0.00  0.00    +0.000 C 
ATOM     13  O   UNL     1       1.934   7.690  20.052  0.00  0.00    +0.000 OA
BRANCH  12  14
ATOM     14  C   UNL     1       2.784   7.900  17.803  0.00  0.00    +0.000 C 
ATOM     15 CL   UNL     1       1.841   9.410  17.738  0.00  0.00    +0.000 Cl
ENDBRANCH  12  14
BRANCH  11  16
ATOM     16  C   UNL     1       2.912   5.137  20.512  0.00  0.00    +0.000 C 
BRANCH  16  17
ATOM     17  C   UNL     1       1.535   4.532  20.841  0.00  0.00    +0.000 C 
BRANCH  17  19
ATOM     18  C   UNL     1       3.445   2.534  20.670  0.00  0.00    +0.000 C 
ATOM     19  S   UNL     1       1.650   2.700  20.829  0.00  0.00    +0.000 S 
ENDBRANCH  17  19
ENDBRANCH  16  17
ENDBRANCH  11  16
ENDBRANCH   1  11
TORSDOF 6
ENDMDL
MODEL 3
REMARK VINA RESULT:      -6.6      0.259      1.126
REMARK  Name = 
REMARK  9 active torsions:
REMARK  status: ('A' for Active; 'I' for Inactive)
REMARK    1  A    between atoms: C_1  and  S_2
REMARK    2  A    between atoms: S_2  and  C_3
REMARK    3  A    between atoms: C_3  and  C_4
REMARK    4  A    between atoms: C_4  and  N_5
REMARK    5  A    between atoms: N_5  and  C_10
REMARK    6  A    between atoms: C_6  and  C_8
REMARK    7  A    between atoms: C_10  and  C_14
REMARK    8  A    between atoms: C_11  and  C_12
REMARK    9  A    between atoms: C_11  and  C_13
REMARK                            x       y       z     vdW  Elec       q    Type
REMARK                         _______ _______ _______ _____ _____    ______ ____
ROOT
ATOM      1  C   UNL     1       4.460   4.981  17.548  0.00  0.00    +0.000 C 
ATOM      2  C   UNL     1       4.246   6.309  17.344  0.00  0.00    +0.000 C 
ATOM      3  C   UNL     1       3.125   7.141  17.928  0.00  0.00    +0.000 C 
ATOM      4  C   UNL     1       5.141   7.186  16.487  0.00  0.00    +0.000 C 
ENDROOT
BRANCH   1   5
ATOM      5  C   UNL     1       3.498   4.105  18.325  0.00  0.00    +0.000 A 
ATOM      6  C   UNL     1       3.721   3.783  19.680  0.00  0.00    +0.000 A 
ATOM      7  C   UNL     1       2.927   2.853  20.363  0.00  0.00    +0.000 A 
ATOM      8  C   UNL     1       1.821   2.292  19.740  0.00  0.00    +0.000 A 
ATOM      9  C   UNL     1       1.500   2.685  18.447  0.00  0.00    +0.000 A 
ATOM     10  C   UNL     1       2.331   3.576  17.754  0.00  0.00    +0.000 A 
ENDBRANCH   1   5
BRANCH   1  11
ATOM     11  N   UNL     1       5.631   4.387  17.046  0.00  0.00    +0.000 N 
ATOM     12  C   UNL     1       6.910   4.705  17.541  0.00  0.00    +0.000 C 
ATOM     13  O   UNL     1       7.934   4.307  16.981  0.00  0.00    +0.000 OA
BRANCH  12  14
ATOM     14  C   UNL     1       6.965   5.487  18.851  0.00  0.00    +0.000 C 
ATOM     15 CL   UNL     1       8.095   6.859  18.729  0.00  0.00    +0.000 Cl
ENDBRANCH  12  14
BRANCH  11  16
ATOM     16  C   UNL     1       5.535   3.676  15.742  0.00  0.00    +0.000 C 
BRANCH  16  17
ATOM     17  C   UNL     1       5.434   4.538  14.471  0.00  0.00    +0.000 C 
BRANCH  17  19
ATOM     18  C   UNL     1       5.629   3.159  12.076  0.00  0.00    +0.000 C 
ATOM     19  S   UNL     1       6.707   4.002  13.261  0.00  0.00    +0.000 S 
ENDBRANCH  17  19
ENDBRANCH  16  17
ENDBRANCH  11  16
ENDBRANCH   1  11
TORSDOF 6
ENDMDL
MODEL 4
REMARK VINA RESULT:      -6.3      3.449      5.891
REMARK  Name = 
REMARK  9 active torsions:
REMARK  status: ('A' for Active; 'I' for Inactive)
REMARK    1  A    between atoms: C_1  and  S_2
REMARK    2  A    between atoms: S_2  and  C_3
REMARK    3  A    between atoms: C_3  and  C_4
REMARK    4  A    between atoms: C_4  and  N_5
REMARK    5  A    between atoms: N_5  and  C_10
REMARK    6  A    between atoms: C_6  and  C_8
REMARK    7  A    between atoms: C_10  and  C_14
REMARK    8  A    between atoms: C_11  and  C_12
REMARK    9  A    between atoms: C_11  and  C_13
REMARK                            x       y       z     vdW  Elec       q    Type
REMARK                         _______ _______ _______ _____ _____    ______ ____
ROOT
ATOM      1  C   UNL     1       4.544   5.051  18.014  0.00  0.00    +0.000 C 
ATOM      2  C   UNL     1       4.224   4.230  16.978  0.00  0.00    +0.000 C 
ATOM      3  C   UNL     1       5.115   3.864  15.810  0.00  0.00    +0.000 C 
ATOM      4  C   UNL     1       2.889   3.519  16.845  0.00  0.00    +0.000 C 
ENDROOT
BRANCH   1   5
ATOM      5  C   UNL     1       5.844   5.829  18.074  0.00  0.00    +0.000 A 
ATOM      6  C   UNL     1       6.895   5.444  18.931  0.00  0.00    +0.000 A 
ATOM      7  C   UNL     1       8.036   6.238  19.109  0.00  0.00    +0.000 A 
ATOM      8  C   UNL     1       8.204   7.392  18.358  0.00  0.00    +0.000 A 
ATOM      9  C   UNL     1       7.245   7.732  17.413  0.00  0.00    +0.000 A 
ATOM     10  C   UNL     1       6.083   6.959  17.280  0.00  0.00    +0.000 A 
ENDBRANCH   1   5
BRANCH   1  11
ATOM     11  N   UNL     1       3.653   5.176  19.095  0.00  0.00    +0.000 N 
ATOM     12  C   UNL     1       2.760   6.257  19.215  0.00  0.00    +0.000 C 
ATOM     13  O   UNL     1       2.108   6.442  20.245  0.00  0.00    +0.000 OA
BRANCH  12  14
ATOM     14  C   UNL     1       2.571   7.133  17.979  0.00  0.00    +0.000 C 
ATOM     15 CL   UNL     1       1.897   8.722  18.419  0.00  0.00    +0.000 Cl
ENDBRANCH  12  14
BRANCH  11  16
ATOM     16  C   UNL     1       3.908   4.334  20.295  0.00  0.00    +0.000 C 
BRANCH  16  17
ATOM     17  C   UNL     1       3.306   2.917  20.309  0.00  0.00    +0.000 C 
BRANCH  17  19
ATOM     18  C   UNL     1       0.593   3.089  19.776  0.00  0.00    +0.000 C 
ATOM     19  S   UNL     1       1.701   2.941  21.200  0.00  0.00    +0.000 S 
ENDBRANCH  17  19
ENDBRANCH  16  17
ENDBRANCH  11  16
ENDBRANCH   1  11
TORSDOF 6
ENDMDL
MODEL 5
REMARK VINA RESULT:      -6.2      2.491      4.235
REMARK  Name = 
REMARK  9 active torsions:
REMARK  status: ('A' for Active; 'I' for Inactive)
REMARK    1  A    between atoms: C_1  and  S_2
REMARK    2  A    between atoms: S_2  and  C_3
REMARK    3  A    between atoms: C_3  and  C_4
REMARK    4  A    between atoms: C_4  and  N_5
REMARK    5  A    between atoms: N_5  and  C_10
REMARK    6  A    between atoms: C_6  and  C_8
REMARK    7  A    between atoms: C_10  and  C_14
REMARK    8  A    between atoms: C_11  and  C_12
REMARK    9  A    between atoms: C_11  and  C_13
REMARK                            x       y       z     vdW  Elec       q    Type
REMARK                         _______ _______ _______ _____ _____    ______ ____
ROOT
ATOM      1  C   UNL     1       4.066   5.228  17.889  0.00  0.00    +0.000 C 
ATOM      2  C   UNL     1       2.917   5.933  18.074  0.00  0.00    +0.000 C 
ATOM      3  C   UNL     1       2.806   7.394  18.451  0.00  0.00    +0.000 C 
ATOM      4  C   UNL     1       1.528   5.343  17.901  0.00  0.00    +0.000 C 
ENDROOT
BRANCH   1   5
ATOM      5  C   UNL     1       5.439   5.811  18.164  0.00  0.00    +0.000 A 
ATOM      6  C   UNL     1       5.971   6.850  17.374  0.00  0.00    +0.000 A 
ATOM      7  C   UNL     1       7.294   7.290  17.518  0.00  0.00    +0.000 A 
ATOM      8  C   UNL     1       8.092   6.772  18.527  0.00  0.00    +0.000 A 
ATOM      9  C   UNL     1       7.556   5.837  19.403  0.00  0.00    +0.000 A 
ATOM     10  C   UNL     1       6.249   5.366  19.218  0.00  0.00    +0.000 A 
ENDBRANCH   1   5
BRANCH   1  11
ATOM     11  N   UNL     1       3.997   3.912  17.400  0.00  0.00    +0.000 N 
ATOM     12  C   UNL     1       3.863   2.798  18.251  0.00  0.00    +0.000 C 
ATOM     13  O   UNL     1       3.973   1.647  17.824  0.00  0.00    +0.000 OA
BRANCH  12  14
ATOM     14  C   UNL     1       3.487   3.083  19.702  0.00  0.00    +0.000 C 
ATOM     15 CL   UNL     1       1.855   2.472  20.071  0.00  0.00    +0.000 Cl
ENDBRANCH  12  14
BRANCH  11  16
ATOM     16  C   UNL     1       4.419   3.680  15.992  0.00  0.00    +0.000 C 
BRANCH  16  17
ATOM     17  C   UNL     1       5.925   3.503  15.724  0.00  0.00    +0.000 C 
BRANCH  17  19
ATOM     18  C   UNL     1       6.177   3.590  12.967  0.00  0.00    +0.000 C 
ATOM     19  S   UNL     1       6.454   4.660  14.401  0.00  0.00    +0.000 S 
ENDBRANCH  17  19
ENDBRANCH  16  17
ENDBRANCH  11  16
ENDBRANCH   1  11
TORSDOF 6
ENDMDL
MODEL 6
REMARK VINA RESULT:      -6.2      3.334      5.809
REMARK  Name = 
REMARK  9 active torsions:
REMARK  status: ('A' for Active; 'I' for Inactive)
REMARK    1  A    between atoms: C_1  and  S_2
REMARK    2  A    between atoms: S_2  and  C_3
REMARK    3  A    between atoms: C_3  and  C_4
REMARK    4  A    between atoms: C_4  and  N_5
REMARK    5  A    between atoms: N_5  and  C_10
REMARK    6  A    between atoms: C_6  and  C_8
REMARK    7  A    between atoms: C_10  and  C_14
REMARK    8  A    between atoms: C_11  and  C_12
REMARK    9  A    between atoms: C_11  and  C_13
REMARK                            x       y       z     vdW  Elec       q    Type
REMARK                         _______ _______ _______ _____ _____    ______ ____
ROOT
ATOM      1  C   UNL     1       4.533   4.985  17.999  0.00  0.00    +0.000 C 
ATOM      2  C   UNL     1       4.291   4.232  16.892  0.00  0.00    +0.000 C 
ATOM      3  C   UNL     1       5.234   4.007  15.730  0.00  0.00    +0.000 C 
ATOM      4  C   UNL     1       3.002   3.463  16.660  0.00  0.00    +0.000 C 
ENDROOT
BRANCH   1   5
ATOM      5  C   UNL     1       5.786   5.823  18.162  0.00  0.00    +0.000 A 
ATOM      6  C   UNL     1       5.982   7.008  17.422  0.00  0.00    +0.000 A 
ATOM      7  C   UNL     1       7.197   7.706  17.448  0.00  0.00    +0.000 A 
ATOM      8  C   UNL     1       8.217   7.295  18.293  0.00  0.00    +0.000 A 
ATOM      9  C   UNL     1       8.008   6.206  19.129  0.00  0.00    +0.000 A 
ATOM     10  C   UNL     1       6.810   5.483  19.057  0.00  0.00    +0.000 A 
ENDBRANCH   1   5
BRANCH   1  11
ATOM     11  N   UNL     1       3.606   4.976  19.055  0.00  0.00    +0.000 N 
ATOM     12  C   UNL     1       2.662   6.006  19.238  0.00  0.00    +0.000 C 
ATOM     13  O   UNL     1       1.972   6.071  20.257  0.00  0.00    +0.000 OA
BRANCH  12  14
ATOM     14  C   UNL     1       2.473   6.979  18.077  0.00  0.00    +0.000 C 
ATOM     15 CL   UNL     1       1.929   8.572  18.661  0.00  0.00    +0.000 Cl
ENDBRANCH  12  14
BRANCH  11  16
ATOM     16  C   UNL     1       3.861   4.043  20.185  0.00  0.00    +0.000 C 
BRANCH  16  17
ATOM     17  C   UNL     1       3.579   2.548  19.948  0.00  0.00    +0.000 C 
BRANCH  17  19
ATOM     18  C   UNL     1       1.364   2.857  21.582  0.00  0.00    +0.000 C 
ATOM     19  S   UNL     1       1.766   2.261  19.920  0.00  0.00    +0.000 S 
ENDBRANCH  17  19
ENDBRANCH  16  17
ENDBRANCH  11  16
ENDBRANCH   1  11
TORSDOF 6
ENDMDL
MODEL 7
REMARK VINA RESULT:      -6.1      2.378      4.002
REMARK  Name = 
REMARK  9 active torsions:
REMARK  status: ('A' for Active; 'I' for Inactive)
REMARK    1  A    between atoms: C_1  and  S_2
REMARK    2  A    between atoms: S_2  and  C_3
REMARK    3  A    between atoms: C_3  and  C_4
REMARK    4  A    between atoms: C_4  and  N_5
REMARK    5  A    between atoms: N_5  and  C_10
REMARK    6  A    between atoms: C_6  and  C_8
REMARK    7  A    between atoms: C_10  and  C_14
REMARK    8  A    between atoms: C_11  and  C_12
REMARK    9  A    between atoms: C_11  and  C_13
REMARK                            x       y       z     vdW  Elec       q    Type
REMARK                         _______ _______ _______ _____ _____    ______ ____
ROOT
ATOM      1  C   UNL     1       3.229   5.474  18.146  0.00  0.00    +0.000 C 
ATOM      2  C   UNL     1       2.485   4.475  17.598  0.00  0.00    +0.000 C 
ATOM      3  C   UNL     1       0.997   4.507  17.324  0.00  0.00    +0.000 C 
ATOM      4  C   UNL     1       3.060   3.145  17.145  0.00  0.00    +0.000 C 
ENDROOT
BRANCH   1   5
ATOM      5  C   UNL     1       2.617   6.753  18.682  0.00  0.00    +0.000 A 
ATOM      6  C   UNL     1       2.262   6.889  20.039  0.00  0.00    +0.000 A 
ATOM      7  C   UNL     1       1.556   8.003  20.515  0.00  0.00    +0.000 A 
ATOM      8  C   UNL     1       1.273   9.061  19.664  0.00  0.00    +0.000 A 
ATOM      9  C   UNL     1       1.722   9.014  18.350  0.00  0.00    +0.000 A 
ATOM     10  C   UNL     1       2.380   7.873  17.871  0.00  0.00    +0.000 A 
ENDBRANCH   1   5
BRANCH   1  11
ATOM     11  N   UNL     1       4.627   5.340  18.202  0.00  0.00    +0.000 N 
ATOM     12  C   UNL     1       5.282   4.723  19.285  0.00  0.00    +0.000 C 
ATOM     13  O   UNL     1       6.509   4.763  19.402  0.00  0.00    +0.000 OA
BRANCH  12  14
ATOM     14  C   UNL     1       4.410   3.929  20.254  0.00  0.00    +0.000 C 
ATOM     15 CL   UNL     1       4.702   2.179  20.089  0.00  0.00    +0.000 Cl
ENDBRANCH  12  14
BRANCH  11  16
ATOM     16  C   UNL     1       5.435   6.171  17.269  0.00  0.00    +0.000 C 
BRANCH  16  17
ATOM     17  C   UNL     1       5.444   5.765  15.785  0.00  0.00    +0.000 C 
BRANCH  17  19
ATOM     18  C   UNL     1       6.193   3.950  13.830  0.00  0.00    +0.000 C 
ATOM     19  S   UNL     1       6.629   4.385  15.533  0.00  0.00    +0.000 S 
ENDBRANCH  17  19
ENDBRANCH  16  17
ENDBRANCH  11  16
ENDBRANCH   1  11
TORSDOF 6
ENDMDL
MODEL 8
REMARK VINA RESULT:      -6.0      3.826      6.044
REMARK  Name = 
REMARK  9 active torsions:
REMARK  status: ('A' for Active; 'I' for Inactive)
REMARK    1  A    between atoms: C_1  and  S_2
REMARK    2  A    between atoms: S_2  and  C_3
REMARK    3  A    between atoms: C_3  and  C_4
REMARK    4  A    between atoms: C_4  and  N_5
REMARK    5  A    between atoms: N_5  and  C_10
REMARK    6  A    between atoms: C_6  and  C_8
REMARK    7  A    between atoms: C_10  and  C_14
REMARK    8  A    between atoms: C_11  and  C_12
REMARK    9  A    between atoms: C_11  and  C_13
REMARK                            x       y       z     vdW  Elec       q    Type
REMARK                         _______ _______ _______ _____ _____    ______ ____
ROOT
ATOM      1  C   UNL     1       3.802   5.394  18.422  0.00  0.00    +0.000 C 
ATOM      2  C   UNL     1       3.244   4.532  17.528  0.00  0.00    +0.000 C 
ATOM      3  C   UNL     1       3.967   3.768  16.440  0.00  0.00    +0.000 C 
ATOM      4  C   UNL     1       1.766   4.182  17.504  0.00  0.00    +0.000 C 
ENDROOT
BRANCH   1   5
ATOM      5  C   UNL     1       5.260   5.805  18.363  0.00  0.00    +0.000 A 
ATOM      6  C   UNL     1       6.211   5.280  19.262  0.00  0.00    +0.000 A 
ATOM      7  C   UNL     1       7.525   5.765  19.320  0.00  0.00    +0.000 A 
ATOM      8  C   UNL     1       7.954   6.720  18.410  0.00  0.00    +0.000 A 
ATOM      9  C   UNL     1       7.076   7.165  17.429  0.00  0.00    +0.000 A 
ATOM     10  C   UNL     1       5.750   6.712  17.413  0.00  0.00    +0.000 A 
ENDBRANCH   1   5
BRANCH   1  11
ATOM     11  N   UNL     1       3.013   5.914  19.462  0.00  0.00    +0.000 N 
ATOM     12  C   UNL     1       2.418   5.093  20.439  0.00  0.00    +0.000 C 
ATOM     13  O   UNL     1       1.596   5.541  21.241  0.00  0.00    +0.000 OA
BRANCH  12  14
ATOM     14  C   UNL     1       2.906   3.648  20.514  0.00  0.00    +0.000 C 
ATOM     15 CL   UNL     1       1.569   2.542  20.919  0.00  0.00    +0.000 Cl
ENDBRANCH  12  14
BRANCH  11  16
ATOM     16  C   UNL     1       2.523   7.311  19.320  0.00  0.00    +0.000 C 
BRANCH  16  17
ATOM     17  C   UNL     1       2.164   7.795  17.903  0.00  0.00    +0.000 C 
BRANCH  17  19
ATOM     18  C   UNL     1       0.594   9.734  19.108  0.00  0.00    +0.000 C 
ATOM     19  S   UNL     1       1.949   9.619  17.913  0.00  0.00    +0.000 S 
ENDBRANCH  17  19
ENDBRANCH  16  17
ENDBRANCH  11  16
ENDBRANCH   1  11
TORSDOF 6
ENDMDL
MODEL 9
REMARK VINA RESULT:      -6.0      2.682      4.681
REMARK  Name = 
REMARK  9 active torsions:
REMARK  status: ('A' for Active; 'I' for Inactive)
REMARK    1  A    between atoms: C_1  and  S_2
REMARK    2  A    between atoms: S_2  and  C_3
REMARK    3  A    between atoms: C_3  and  C_4
REMARK    4  A    between atoms: C_4  and  N_5
REMARK    5  A    between atoms: N_5  and  C_10
REMARK    6  A    between atoms: C_6  and  C_8
REMARK    7  A    between atoms: C_10  and  C_14
REMARK    8  A    between atoms: C_11  and  C_12
REMARK    9  A    between atoms: C_11  and  C_13
REMARK                            x       y       z     vdW  Elec       q    Type
REMARK                         _______ _______ _______ _____ _____    ______ ____
ROOT
ATOM      1  C   UNL     1       3.964   5.624  17.567  0.00  0.00    +0.000 C 
ATOM      2  C   UNL     1       4.694   5.746  16.424  0.00  0.00    +0.000 C 
ATOM      3  C   UNL     1       4.864   6.999  15.593  0.00  0.00    +0.000 C 
ATOM      4  C   UNL     1       5.489   4.609  15.806  0.00  0.00    +0.000 C 
ENDROOT
BRANCH   1   5
ATOM      5  C   UNL     1       3.099   6.744  18.110  0.00  0.00    +0.000 A 
ATOM      6  C   UNL     1       2.716   7.837  17.306  0.00  0.00    +0.000 A 
ATOM      7  C   UNL     1       2.050   8.951  17.835  0.00  0.00    +0.000 A 
ATOM      8  C   UNL     1       1.657   8.958  19.165  0.00  0.00    +0.000 A 
ATOM      9  C   UNL     1       1.907   7.842  19.953  0.00  0.00    +0.000 A 
ATOM     10  C   UNL     1       2.620   6.756  19.428  0.00  0.00    +0.000 A 
ENDBRANCH   1   5
BRANCH   1  11
ATOM     11  N   UNL     1       4.024   4.425  18.298  0.00  0.00    +0.000 N 
ATOM     12  C   UNL     1       5.113   4.104  19.130  0.00  0.00    +0.000 C 
ATOM     13  O   UNL     1       5.231   2.983  19.630  0.00  0.00    +0.000 OA
BRANCH  12  14
ATOM     14  C   UNL     1       6.086   5.233  19.456  0.00  0.00    +0.000 C 
ATOM     15 CL   UNL     1       7.576   5.092  18.489  0.00  0.00    +0.000 Cl
ENDBRANCH  12  14
BRANCH  11  16
ATOM     16  C   UNL     1       3.085   3.337  17.910  0.00  0.00    +0.000 C 
BRANCH  16  17
ATOM     17  C   UNL     1       1.674   3.367  18.524  0.00  0.00    +0.000 C 
BRANCH  17  19
ATOM     18  C   UNL     1       1.926   3.701  21.262  0.00  0.00    +0.000 C 
ATOM     19  S   UNL     1       1.652   2.370  20.065  0.00  0.00    +0.000 S 
ENDBRANCH  17  19
ENDBRANCH  16  17
ENDBRANCH  11  16
ENDBRANCH   1  11
TORSDOF 6
ENDMDL
