MODEL 1
REMARK VINA RESULT:      -8.4      0.000      0.000
REMARK  Name = 
REMARK  9 active torsions:
REMARK  status: ('A' for Active; 'I' for Inactive)
REMARK    1  A    between atoms: C_2  and  C_3
REMARK    2  A    between atoms: C_7  and  N_8
REMARK    3  A    between atoms: C_9  and  O_11
REMARK    4  A    between atoms: O_11  and  N_12
REMARK    5  A    between atoms: C_13  and  C_14
REMARK    6  A    between atoms: C_13  and  C_20
REMARK    7  A    between atoms: C_20  and  C_21
REMARK    8  A    between atoms: C_20  and  C_27
REMARK    9  A    between atoms: C_21  and  N_22
REMARK                            x       y       z     vdW  Elec       q    Type
REMARK                         _______ _______ _______ _____ _____    ______ ____
ROOT
ATOM      1  N   UNL     1       0.652   9.748  18.755  0.00  0.00    +0.000 NA
ATOM      2  C   UNL     1       0.268  10.723  19.515  0.00  0.00    +0.000 C 
ENDROOT
BRANCH   2   3
ATOM      3  C   UNL     1       0.833  11.038  20.972  0.00  0.00    +0.000 C 
ATOM      4  C   UNL     1       0.106  12.133  21.802  0.00  0.00    +0.000 C 
ATOM      5  C   UNL     1      -1.289  11.681  22.256  0.00  0.00    +0.000 C 
ATOM      6  C   UNL     1      -1.212  10.444  23.141  0.00  0.00    +0.000 C 
ATOM      7  C   UNL     1      -0.346   9.352  22.519  0.00  0.00    +0.000 C 
ATOM      8  C   UNL     1       0.985   9.875  21.977  0.00  0.00    +0.000 C 
ENDBRANCH   2   3
BRANCH   1   9
ATOM      9  O   UNL     1       1.549   8.847  19.297  0.00  0.00    +0.000 OA
BRANCH   9  11
ATOM     10  N   UNL     1       2.673   7.002  18.796  0.00  0.00    +0.000 N 
ATOM     11  C   UNL     1       2.240   8.206  18.304  0.00  0.00    +0.000 C 
ATOM     12  O   UNL     1       2.441   8.660  17.185  0.00  0.00    +0.000 OA
ATOM     13  H   UNL     1       2.531   6.878  19.789  0.00  0.00    +0.000 HD
BRANCH  10  18
ATOM     14  C   UNL     1       5.165   5.181  16.788  0.00  0.00    +0.000 A 
ATOM     15  C   UNL     1       4.541   3.946  16.609  0.00  0.00    +0.000 A 
ATOM     16  C   UNL     1       3.290   3.713  17.164  0.00  0.00    +0.000 A 
ATOM     17  C   UNL     1       2.656   4.720  17.889  0.00  0.00    +0.000 A 
ATOM     18  C   UNL     1       3.266   5.964  18.067  0.00  0.00    +0.000 A 
ATOM     19  C   UNL     1       4.534   6.188  17.526  0.00  0.00    +0.000 A 
BRANCH  14  21
ATOM     20  N   UNL     1       7.494   5.629  15.746  0.00  0.00    +0.000 NA
ATOM     21  C   UNL     1       6.454   5.423  16.210  0.00  0.00    +0.000 C 
ENDBRANCH  14  21
ENDBRANCH  10  18
ENDBRANCH   9  11
ENDBRANCH   1   9
BRANCH   2  22
ATOM     22  C   UNL     1      -1.012  11.453  18.931  0.00  0.00    +0.000 C 
BRANCH  22  23
ATOM     23  C   UNL     1      -2.123  10.503  18.241  0.00  0.00    +0.000 C 
ATOM     24  C   UNL     1      -3.567  11.019  18.452  0.00  0.00    +0.000 C 
ATOM     25  C   UNL     1      -4.156  11.746  17.244  0.00  0.00    +0.000 C 
ATOM     26  C   UNL     1      -4.235  10.793  16.067  0.00  0.00    +0.000 C 
ATOM     27  C   UNL     1      -2.832  10.394  15.652  0.00  0.00    +0.000 C 
ATOM     28  C   UNL     1      -1.954   9.897  16.808  0.00  0.00    +0.000 C 
ENDBRANCH  22  23
BRANCH  22  29
ATOM     29  C   UNL     1      -0.788  12.778  18.199  0.00  0.00    +0.000 C 
BRANCH  29  30
ATOM     30  N   UNL     1       0.303  13.627  18.599  0.00  0.00    +0.000 N 
ATOM     31  C   UNL     1       0.271  14.796  19.287  0.00  0.00    +0.000 A 
ATOM     32  C   UNL     1       1.549  15.294  19.207  0.00  0.00    +0.000 A 
ATOM     33  N   UNL     1       2.371  14.422  18.545  0.00  0.00    +0.000 NA
ATOM     34  C   UNL     1       1.600  13.412  18.213  0.00  0.00    +0.000 A 
ENDBRANCH  29  30
ENDBRANCH  22  29
ENDBRANCH   2  22
TORSDOF 9
ENDMDL
MODEL 2
REMARK VINA RESULT:      -8.2      2.317      9.584
REMARK  Name = 
REMARK  9 active torsions:
REMARK  status: ('A' for Active; 'I' for Inactive)
REMARK    1  A    between atoms: C_2  and  C_3
REMARK    2  A    between atoms: C_7  and  N_8
REMARK    3  A    between atoms: C_9  and  O_11
REMARK    4  A    between atoms: O_11  and  N_12
REMARK    5  A    between atoms: C_13  and  C_14
REMARK    6  A    between atoms: C_13  and  C_20
REMARK    7  A    between atoms: C_20  and  C_21
REMARK    8  A    between atoms: C_20  and  C_27
REMARK    9  A    between atoms: C_21  and  N_22
REMARK                            x       y       z     vdW  Elec       q    Type
REMARK                         _______ _______ _______ _____ _____    ______ ____
ROOT
ATOM      1  N   UNL     1       3.826   6.630  17.484  0.00  0.00    +0.000 NA
ATOM      2  C   UNL     1       4.224   5.409  17.646  0.00  0.00    +0.000 C 
ENDROOT
BRANCH   2   3
ATOM      3  C   UNL     1       3.856   4.471  18.881  0.00  0.00    +0.000 C 
ATOM      4  C   UNL     1       2.365   4.412  19.317  0.00  0.00    +0.000 C 
ATOM      5  C   UNL     1       1.492   3.683  18.285  0.00  0.00    +0.000 C 
ATOM      6  C   UNL     1       1.946   2.243  18.091  0.00  0.00    +0.000 C 
ATOM      7  C   UNL     1       3.450   2.147  17.852  0.00  0.00    +0.000 C 
ATOM      8  C   UNL     1       4.270   2.985  18.834  0.00  0.00    +0.000 C 
ENDBRANCH   2   3
BRANCH   1   9
ATOM      9  O   UNL     1       3.110   7.198  18.521  0.00  0.00    +0.000 OA
BRANCH   9  11
ATOM     10  N   UNL     1       1.504   8.641  19.027  0.00  0.00    +0.000 N 
ATOM     11  C   UNL     1       2.446   8.314  18.087  0.00  0.00    +0.000 C 
ATOM     12  O   UNL     1       2.661   8.889  17.028  0.00  0.00    +0.000 OA
ATOM     13  H   UNL     1       1.386   7.954  19.760  0.00  0.00    +0.000 HD
BRANCH  10  18
ATOM     14  C   UNL     1      -1.172  11.031  18.201  0.00  0.00    +0.000 A 
ATOM     15  C   UNL     1      -0.897  12.082  19.075  0.00  0.00    +0.000 A 
ATOM     16  C   UNL     1       0.177  11.995  19.950  0.00  0.00    +0.000 A 
ATOM     17  C   UNL     1       0.986  10.860  19.942  0.00  0.00    +0.000 A 
ATOM     18  C   UNL     1       0.727   9.805  19.064  0.00  0.00    +0.000 A 
ATOM     19  C   UNL     1      -0.368   9.886  18.201  0.00  0.00    +0.000 A 
BRANCH  14  21
ATOM     20  N   UNL     1      -3.176  11.194  16.568  0.00  0.00    +0.000 NA
ATOM     21  C   UNL     1      -2.278  11.123  17.293  0.00  0.00    +0.000 C 
ENDBRANCH  14  21
ENDBRANCH  10  18
ENDBRANCH   9  11
ENDBRANCH   1   9
BRANCH   2  22
ATOM     22  C   UNL     1       5.327   5.005  16.581  0.00  0.00    +0.000 C 
BRANCH  22  23
ATOM     23  C   UNL     1       6.864   5.261  17.013  0.00  0.00    +0.000 C 
ATOM     24  C   UNL     1       7.375   6.665  16.608  0.00  0.00    +0.000 C 
ATOM     25  C   UNL     1       7.404   7.675  17.753  0.00  0.00    +0.000 C 
ATOM     26  C   UNL     1       8.355   7.195  18.832  0.00  0.00    +0.000 C 
ATOM     27  C   UNL     1       7.815   5.914  19.439  0.00  0.00    +0.000 C 
ATOM     28  C   UNL     1       7.437   4.843  18.409  0.00  0.00    +0.000 C 
ENDBRANCH  22  23
BRANCH  22  29
ATOM     29  C   UNL     1       5.033   5.326  15.114  0.00  0.00    +0.000 C 
BRANCH  29  30
ATOM     30  N   UNL     1       5.705   4.581  14.083  0.00  0.00    +0.000 N 
ATOM     31  C   UNL     1       6.953   4.751  13.577  0.00  0.00    +0.000 A 
ATOM     32  C   UNL     1       7.009   3.927  12.478  0.00  0.00    +0.000 A 
ATOM     33  N   UNL     1       5.851   3.210  12.348  0.00  0.00    +0.000 NA
ATOM     34  C   UNL     1       5.092   3.604  13.344  0.00  0.00    +0.000 A 
ENDBRANCH  29  30
ENDBRANCH  22  29
ENDBRANCH   2  22
TORSDOF 9
ENDMDL
MODEL 3
REMARK VINA RESULT:      -8.2      2.666      3.811
REMARK  Name = 
REMARK  9 active torsions:
REMARK  status: ('A' for Active; 'I' for Inactive)
REMARK    1  A    between atoms: C_2  and  C_3
REMARK    2  A    between atoms: C_7  and  N_8
REMARK    3  A    between atoms: C_9  and  O_11
REMARK    4  A    between atoms: O_11  and  N_12
REMARK    5  A    between atoms: C_13  and  C_14
REMARK    6  A    between atoms: C_13  and  C_20
REMARK    7  A    between atoms: C_20  and  C_21
REMARK    8  A    between atoms: C_20  and  C_27
REMARK    9  A    between atoms: C_21  and  N_22
REMARK                            x       y       z     vdW  Elec       q    Type
REMARK                         _______ _______ _______ _____ _____    ______ ____
ROOT
ATOM      1  N   UNL     1       1.085  10.899  21.783  0.00  0.00    +0.000 NA
ATOM      2  C   UNL     1       0.187  11.764  21.433  0.00  0.00    +0.000 C 
ENDROOT
BRANCH   2   3
ATOM      3  C   UNL     1      -1.325  11.782  21.936  0.00  0.00    +0.000 C 
ATOM      4  C   UNL     1      -1.599  12.318  23.368  0.00  0.00    +0.000 C 
ATOM      5  C   UNL     1      -1.371  13.833  23.470  0.00  0.00    +0.000 C 
ATOM      6  C   UNL     1      -2.295  14.599  22.534  0.00  0.00    +0.000 C 
ATOM      7  C   UNL     1      -2.270  14.032  21.118  0.00  0.00    +0.000 C 
ATOM      8  C   UNL     1      -2.384  12.507  21.077  0.00  0.00    +0.000 C 
ENDBRANCH   2   3
BRANCH   1   9
ATOM      9  O   UNL     1       0.666   9.845  22.572  0.00  0.00    +0.000 OA
BRANCH   9  11
ATOM     10  N   UNL     1       1.583   8.439  21.123  0.00  0.00    +0.000 N 
ATOM     11  C   UNL     1       0.432   8.736  21.804  0.00  0.00    +0.000 C 
ATOM     12  O   UNL     1      -0.636   8.142  21.740  0.00  0.00    +0.000 OA
ATOM     13  H   UNL     1       2.310   9.139  21.201  0.00  0.00    +0.000 HD
BRANCH  10  18
ATOM     14  C   UNL     1       1.829   4.874  20.234  0.00  0.00    +0.000 A 
ATOM     15  C   UNL     1       2.286   4.939  18.918  0.00  0.00    +0.000 A 
ATOM     16  C   UNL     1       2.506   6.171  18.318  0.00  0.00    +0.000 A 
ATOM     17  C   UNL     1       2.282   7.343  19.040  0.00  0.00    +0.000 A 
ATOM     18  C   UNL     1       1.834   7.291  20.362  0.00  0.00    +0.000 A 
ATOM     19  C   UNL     1       1.591   6.050  20.954  0.00  0.00    +0.000 A 
BRANCH  14  21
ATOM     20  N   UNL     1       1.417   2.575  21.352  0.00  0.00    +0.000 NA
ATOM     21  C   UNL     1       1.606   3.602  20.854  0.00  0.00    +0.000 C 
ENDBRANCH  14  21
ENDBRANCH  10  18
ENDBRANCH   9  11
ENDBRANCH   1   9
BRANCH   2  22
ATOM     22  C   UNL     1       0.694  12.691  20.252  0.00  0.00    +0.000 C 
BRANCH  22  23
ATOM     23  C   UNL     1       0.366  12.181  18.753  0.00  0.00    +0.000 C 
ATOM     24  C   UNL     1       0.529  10.650  18.591  0.00  0.00    +0.000 C 
ATOM     25  C   UNL     1      -0.787   9.875  18.612  0.00  0.00    +0.000 C 
ATOM     26  C   UNL     1      -1.655  10.314  17.448  0.00  0.00    +0.000 C 
ATOM     27  C   UNL     1      -2.042  11.768  17.635  0.00  0.00    +0.000 C 
ATOM     28  C   UNL     1      -0.858  12.700  17.927  0.00  0.00    +0.000 C 
ENDBRANCH  22  23
BRANCH  22  29
ATOM     29  C   UNL     1       2.080  13.322  20.403  0.00  0.00    +0.000 C 
BRANCH  29  30
ATOM     30  N   UNL     1       2.481  14.363  19.495  0.00  0.00    +0.000 N 
ATOM     31  C   UNL     1       1.999  15.626  19.372  0.00  0.00    +0.000 A 
ATOM     32  C   UNL     1       2.570  16.118  18.223  0.00  0.00    +0.000 A 
ATOM     33  N   UNL     1       3.440  15.208  17.684  0.00  0.00    +0.000 NA
ATOM     34  C   UNL     1       3.387  14.170  18.486  0.00  0.00    +0.000 A 
ENDBRANCH  29  30
ENDBRANCH  22  29
ENDBRANCH   2  22
TORSDOF 9
ENDMDL
MODEL 4
REMARK VINA RESULT:      -7.9      2.753      9.208
REMARK  Name = 
REMARK  9 active torsions:
REMARK  status: ('A' for Active; 'I' for Inactive)
REMARK    1  A    between atoms: C_2  and  C_3
REMARK    2  A    between atoms: C_7  and  N_8
REMARK    3  A    between atoms: C_9  and  O_11
REMARK    4  A    between atoms: O_11  and  N_12
REMARK    5  A    between atoms: C_13  and  C_14
REMARK    6  A    between atoms: C_13  and  C_20
REMARK    7  A    between atoms: C_20  and  C_21
REMARK    8  A    between atoms: C_20  and  C_27
REMARK    9  A    between atoms: C_21  and  N_22
REMARK                            x       y       z     vdW  Elec       q    Type
REMARK                         _______ _______ _______ _____ _____    ______ ____
ROOT
ATOM      1  N   UNL     1       2.926   7.586  18.071  0.00  0.00    +0.000 NA
ATOM      2  C   UNL     1       3.823   6.730  17.699  0.00  0.00    +0.000 C 
ENDROOT
BRANCH   2   3
ATOM      3  C   UNL     1       4.954   6.991  16.606  0.00  0.00    +0.000 C 
ATOM      4  C   UNL     1       6.402   7.231  17.116  0.00  0.00    +0.000 C 
ATOM      5  C   UNL     1       7.026   5.956  17.703  0.00  0.00    +0.000 C 
ATOM      6  C   UNL     1       7.109   4.849  16.662  0.00  0.00    +0.000 C 
ATOM      7  C   UNL     1       5.782   4.648  15.936  0.00  0.00    +0.000 C 
ATOM      8  C   UNL     1       5.144   5.958  15.474  0.00  0.00    +0.000 C 
ENDBRANCH   2   3
BRANCH   1   9
ATOM      9  O   UNL     1       2.883   8.786  17.388  0.00  0.00    +0.000 OA
BRANCH   9  11
ATOM     10  N   UNL     1       1.446   9.074  19.052  0.00  0.00    +0.000 N 
ATOM     11  C   UNL     1       2.204   9.726  18.115  0.00  0.00    +0.000 C 
ATOM     12  O   UNL     1       2.264  10.934  17.927  0.00  0.00    +0.000 OA
ATOM     13  H   UNL     1       1.422   8.068  18.946  0.00  0.00    +0.000 HD
BRANCH  10  18
ATOM     14  C   UNL     1      -0.945  11.247  20.818  0.00  0.00    +0.000 A 
ATOM     15  C   UNL     1      -0.748  10.869  22.145  0.00  0.00    +0.000 A 
ATOM     16  C   UNL     1       0.177   9.882  22.457  0.00  0.00    +0.000 A 
ATOM     17  C   UNL     1       0.917   9.280  21.440  0.00  0.00    +0.000 A 
ATOM     18  C   UNL     1       0.736   9.657  20.107  0.00  0.00    +0.000 A 
ATOM     19  C   UNL     1      -0.212  10.634  19.795  0.00  0.00    +0.000 A 
BRANCH  14  21
ATOM     20  N   UNL     1      -2.658  13.099  20.231  0.00  0.00    +0.000 NA
ATOM     21  C   UNL     1      -1.896  12.270  20.496  0.00  0.00    +0.000 C 
ENDBRANCH  14  21
ENDBRANCH  10  18
ENDBRANCH   9  11
ENDBRANCH   1   9
BRANCH   2  22
ATOM     22  C   UNL     1       3.536   5.286  18.287  0.00  0.00    +0.000 C 
BRANCH  22  23
ATOM     23  C   UNL     1       2.018   4.998  18.763  0.00  0.00    +0.000 C 
ATOM     24  C   UNL     1       1.289   3.978  17.856  0.00  0.00    +0.000 C 
ATOM     25  C   UNL     1       1.213   2.566  18.435  0.00  0.00    +0.000 C 
ATOM     26  C   UNL     1       0.426   2.590  19.731  0.00  0.00    +0.000 C 
ATOM     27  C   UNL     1       1.183   3.406  20.760  0.00  0.00    +0.000 C 
ATOM     28  C   UNL     1       1.622   4.790  20.263  0.00  0.00    +0.000 C 
ENDBRANCH  22  23
BRANCH  22  29
ATOM     29  C   UNL     1       4.600   4.681  19.206  0.00  0.00    +0.000 C 
BRANCH  29  30
ATOM     30  N   UNL     1       4.688   3.250  19.331  0.00  0.00    +0.000 N 
ATOM     31  C   UNL     1       4.454   2.292  18.400  0.00  0.00    +0.000 A 
ATOM     32  C   UNL     1       4.466   1.106  19.095  0.00  0.00    +0.000 A 
ATOM     33  N   UNL     1       4.768   1.317  20.413  0.00  0.00    +0.000 NA
ATOM     34  C   UNL     1       4.924   2.616  20.523  0.00  0.00    +0.000 A 
ENDBRANCH  29  30
ENDBRANCH  22  29
ENDBRANCH   2  22
TORSDOF 9
ENDMDL
MODEL 5
REMARK VINA RESULT:      -7.9      2.714      9.103
REMARK  Name = 
REMARK  9 active torsions:
REMARK  status: ('A' for Active; 'I' for Inactive)
REMARK    1  A    between atoms: C_2  and  C_3
REMARK    2  A    between atoms: C_7  and  N_8
REMARK    3  A    between atoms: C_9  and  O_11
REMARK    4  A    between atoms: O_11  and  N_12
REMARK    5  A    between atoms: C_13  and  C_14
REMARK    6  A    between atoms: C_13  and  C_20
REMARK    7  A    between atoms: C_20  and  C_21
REMARK    8  A    between atoms: C_20  and  C_27
REMARK    9  A    between atoms: C_21  and  N_22
REMARK                            x       y       z     vdW  Elec       q    Type
REMARK                         _______ _______ _______ _____ _____    ______ ____
ROOT
ATOM      1  N   UNL     1       3.109   7.526  17.785  0.00  0.00    +0.000 NA
ATOM      2  C   UNL     1       3.968   6.602  17.489  0.00  0.00    +0.000 C 
ENDROOT
BRANCH   2   3
ATOM      3  C   UNL     1       5.147   6.742  16.425  0.00  0.00    +0.000 C 
ATOM      4  C   UNL     1       6.572   7.039  16.968  0.00  0.00    +0.000 C 
ATOM      5  C   UNL     1       7.165   5.838  17.719  0.00  0.00    +0.000 C 
ATOM      6  C   UNL     1       7.290   4.622  16.812  0.00  0.00    +0.000 C 
ATOM      7  C   UNL     1       5.995   4.340  16.055  0.00  0.00    +0.000 C 
ATOM      8  C   UNL     1       5.382   5.591  15.423  0.00  0.00    +0.000 C 
ENDBRANCH   2   3
BRANCH   1   9
ATOM      9  O   UNL     1       3.157   8.688  17.039  0.00  0.00    +0.000 OA
BRANCH   9  11
ATOM     10  N   UNL     1       1.406   9.107  18.334  0.00  0.00    +0.000 N 
ATOM     11  C   UNL     1       2.452   9.683  17.660  0.00  0.00    +0.000 C 
ATOM     12  O   UNL     1       2.718  10.876  17.593  0.00  0.00    +0.000 OA
ATOM     13  H   UNL     1       1.274   8.123  18.143  0.00  0.00    +0.000 HD
BRANCH  10  18
ATOM     14  C   UNL     1      -0.113  10.101  21.538  0.00  0.00    +0.000 A 
ATOM     15  C   UNL     1      -1.120  10.969  21.119  0.00  0.00    +0.000 A 
ATOM     16  C   UNL     1      -1.293  11.234  19.767  0.00  0.00    +0.000 A 
ATOM     17  C   UNL     1      -0.464  10.619  18.830  0.00  0.00    +0.000 A 
ATOM     18  C   UNL     1       0.543   9.739  19.236  0.00  0.00    +0.000 A 
ATOM     19  C   UNL     1       0.728   9.494  20.599  0.00  0.00    +0.000 A 
BRANCH  14  21
ATOM     20  N   UNL     1       0.206   9.592  24.057  0.00  0.00    +0.000 NA
ATOM     21  C   UNL     1       0.062   9.824  22.933  0.00  0.00    +0.000 C 
ENDBRANCH  14  21
ENDBRANCH  10  18
ENDBRANCH   9  11
ENDBRANCH   1   9
BRANCH   2  22
ATOM     22  C   UNL     1       3.581   5.210  18.140  0.00  0.00    +0.000 C 
BRANCH  22  23
ATOM     23  C   UNL     1       2.055   5.063  18.656  0.00  0.00    +0.000 C 
ATOM     24  C   UNL     1       1.247   4.019  17.847  0.00  0.00    +0.000 C 
ATOM     25  C   UNL     1       1.091   2.670  18.545  0.00  0.00    +0.000 C 
ATOM     26  C   UNL     1       0.329   2.854  19.843  0.00  0.00    +0.000 C 
ATOM     27  C   UNL     1       1.153   3.703  20.790  0.00  0.00    +0.000 C 
ATOM     28  C   UNL     1       1.671   5.009  20.172  0.00  0.00    +0.000 C 
ENDBRANCH  22  23
BRANCH  22  29
ATOM     29  C   UNL     1       4.613   4.558  19.063  0.00  0.00    +0.000 C 
BRANCH  29  30
ATOM     30  N   UNL     1       4.492   3.159  19.375  0.00  0.00    +0.000 N 
ATOM     31  C   UNL     1       4.693   2.524  20.558  0.00  0.00    +0.000 A 
ATOM     32  C   UNL     1       4.660   1.184  20.255  0.00  0.00    +0.000 A 
ATOM     33  N   UNL     1       4.375   0.991  18.930  0.00  0.00    +0.000 NA
ATOM     34  C   UNL     1       4.251   2.198  18.429  0.00  0.00    +0.000 A 
ENDBRANCH  29  30
ENDBRANCH  22  29
ENDBRANCH   2  22
TORSDOF 9
ENDMDL
MODEL 6
REMARK VINA RESULT:      -7.9      2.609      3.517
REMARK  Name = 
REMARK  9 active torsions:
REMARK  status: ('A' for Active; 'I' for Inactive)
REMARK    1  A    between atoms: C_2  and  C_3
REMARK    2  A    between atoms: C_7  and  N_8
REMARK    3  A    between atoms: C_9  and  O_11
REMARK    4  A    between atoms: O_11  and  N_12
REMARK    5  A    between atoms: C_13  and  C_14
REMARK    6  A    between atoms: C_13  and  C_20
REMARK    7  A    between atoms: C_20  and  C_21
REMARK    8  A    between atoms: C_20  and  C_27
REMARK    9  A    between atoms: C_21  and  N_22
REMARK                            x       y       z     vdW  Elec       q    Type
REMARK                         _______ _______ _______ _____ _____    ______ ____
ROOT
ATOM      1  N   UNL     1      -0.131  11.121  20.820  0.00  0.00    +0.000 NA
ATOM      2  C   UNL     1      -0.918  12.147  20.754  0.00  0.00    +0.000 C 
ENDROOT
BRANCH   2   3
ATOM      3  C   UNL     1      -1.434  12.999  21.998  0.00  0.00    +0.000 C 
ATOM      4  C   UNL     1      -1.742  14.503  21.759  0.00  0.00    +0.000 C 
ATOM      5  C   UNL     1      -2.991  14.705  20.888  0.00  0.00    +0.000 C 
ATOM      6  C   UNL     1      -4.228  14.106  21.543  0.00  0.00    +0.000 C 
ATOM      7  C   UNL     1      -3.987  12.674  22.012  0.00  0.00    +0.000 C 
ATOM      8  C   UNL     1      -2.673  12.503  22.775  0.00  0.00    +0.000 C 
ENDBRANCH   2   3
BRANCH   1   9
ATOM      9  O   UNL     1       0.201  10.667  22.082  0.00  0.00    +0.000 OA
BRANCH   9  11
ATOM     10  N   UNL     1       0.714   8.846  20.924  0.00  0.00    +0.000 N 
ATOM     11  C   UNL     1       1.077   9.618  21.997  0.00  0.00    +0.000 C 
ATOM     12  O   UNL     1       2.004   9.416  22.770  0.00  0.00    +0.000 OA
ATOM     13  H   UNL     1      -0.169   9.102  20.503  0.00  0.00    +0.000 HD
BRANCH  10  18
ATOM     14  C   UNL     1       2.115   5.462  20.546  0.00  0.00    +0.000 A 
ATOM     15  C   UNL     1       2.835   5.582  19.357  0.00  0.00    +0.000 A 
ATOM     16  C   UNL     1       2.849   6.789  18.672  0.00  0.00    +0.000 A 
ATOM     17  C   UNL     1       2.153   7.884  19.183  0.00  0.00    +0.000 A 
ATOM     18  C   UNL     1       1.437   7.779  20.378  0.00  0.00    +0.000 A 
ATOM     19  C   UNL     1       1.406   6.556  21.053  0.00  0.00    +0.000 A 
BRANCH  14  21
ATOM     20  N   UNL     1       2.095   3.217  21.837  0.00  0.00    +0.000 NA
ATOM     21  C   UNL     1       2.104   4.217  21.256  0.00  0.00    +0.000 C 
ENDBRANCH  14  21
ENDBRANCH  10  18
ENDBRANCH   9  11
ENDBRANCH   1   9
BRANCH   2  22
ATOM     22  C   UNL     1      -1.514  12.336  19.297  0.00  0.00    +0.000 C 
BRANCH  22  23
ATOM     23  C   UNL     1      -2.323  11.076  18.687  0.00  0.00    +0.000 C 
ATOM     24  C   UNL     1      -3.829  11.370  18.486  0.00  0.00    +0.000 C 
ATOM     25  C   UNL     1      -4.218  11.686  17.043  0.00  0.00    +0.000 C 
ATOM     26  C   UNL     1      -3.919  10.488  16.162  0.00  0.00    +0.000 C 
ATOM     27  C   UNL     1      -2.422  10.252  16.132  0.00  0.00    +0.000 C 
ATOM     28  C   UNL     1      -1.768  10.194  17.519  0.00  0.00    +0.000 C 
ENDBRANCH  22  23
BRANCH  22  29
ATOM     29  C   UNL     1      -0.642  13.068  18.275  0.00  0.00    +0.000 C 
BRANCH  29  30
ATOM     30  N   UNL     1       0.657  13.542  18.670  0.00  0.00    +0.000 N 
ATOM     31  C   UNL     1       1.013  14.752  19.169  0.00  0.00    +0.000 A 
ATOM     32  C   UNL     1       2.387  14.751  19.165  0.00  0.00    +0.000 A 
ATOM     33  N   UNL     1       2.872  13.544  18.741  0.00  0.00    +0.000 NA
ATOM     34  C   UNL     1       1.808  12.824  18.474  0.00  0.00    +0.000 A 
ENDBRANCH  29  30
ENDBRANCH  22  29
ENDBRANCH   2  22
TORSDOF 9
ENDMDL
MODEL 7
REMARK VINA RESULT:      -7.9      3.095      9.086
REMARK  Name = 
REMARK  9 active torsions:
REMARK  status: ('A' for Active; 'I' for Inactive)
REMARK    1  A    between atoms: C_2  and  C_3
REMARK    2  A    between atoms: C_7  and  N_8
REMARK    3  A    between atoms: C_9  and  O_11
REMARK    4  A    between atoms: O_11  and  N_12
REMARK    5  A    between atoms: C_13  and  C_14
REMARK    6  A    between atoms: C_13  and  C_20
REMARK    7  A    between atoms: C_20  and  C_21
REMARK    8  A    between atoms: C_20  and  C_27
REMARK    9  A    between atoms: C_21  and  N_22
REMARK                            x       y       z     vdW  Elec       q    Type
REMARK                         _______ _______ _______ _____ _____    ______ ____
ROOT
ATOM      1  N   UNL     1       3.272   6.767  18.207  0.00  0.00    +0.000 NA
ATOM      2  C   UNL     1       4.277   6.115  17.714  0.00  0.00    +0.000 C 
ENDROOT
BRANCH   2   3
ATOM      3  C   UNL     1       5.385   6.721  16.742  0.00  0.00    +0.000 C 
ATOM      4  C   UNL     1       6.873   6.427  17.079  0.00  0.00    +0.000 C 
ATOM      5  C   UNL     1       7.235   4.952  16.849  0.00  0.00    +0.000 C 
ATOM      6  C   UNL     1       7.031   4.550  15.395  0.00  0.00    +0.000 C 
ATOM      7  C   UNL     1       5.659   4.970  14.875  0.00  0.00    +0.000 C 
ATOM      8  C   UNL     1       5.296   6.413  15.231  0.00  0.00    +0.000 C 
ENDBRANCH   2   3
BRANCH   1   9
ATOM      9  O   UNL     1       3.091   8.064  17.768  0.00  0.00    +0.000 OA
BRANCH   9  11
ATOM     10  N   UNL     1       1.996   8.423  19.663  0.00  0.00    +0.000 N 
ATOM     11  C   UNL     1       1.948   8.594  18.305  0.00  0.00    +0.000 C 
ATOM     12  O   UNL     1       1.046   9.110  17.658  0.00  0.00    +0.000 OA
ATOM     13  H   UNL     1       2.758   7.842  19.986  0.00  0.00    +0.000 HD
BRANCH  10  18
ATOM     14  C   UNL     1       0.093  10.944  21.556  0.00  0.00    +0.000 A 
ATOM     15  C   UNL     1      -0.630  10.149  22.444  0.00  0.00    +0.000 A 
ATOM     16  C   UNL     1      -0.493   8.768  22.411  0.00  0.00    +0.000 A 
ATOM     17  C   UNL     1       0.379   8.180  21.495  0.00  0.00    +0.000 A 
ATOM     18  C   UNL     1       1.117   8.967  20.607  0.00  0.00    +0.000 A 
ATOM     19  C   UNL     1       0.959  10.354  20.629  0.00  0.00    +0.000 A 
BRANCH  14  21
ATOM     20  N   UNL     1      -0.146  13.522  21.626  0.00  0.00    +0.000 NA
ATOM     21  C   UNL     1      -0.044  12.370  21.594  0.00  0.00    +0.000 C 
ENDBRANCH  14  21
ENDBRANCH  10  18
ENDBRANCH   9  11
ENDBRANCH   1   9
BRANCH   2  22
ATOM     22  C   UNL     1       4.163   4.560  17.997  0.00  0.00    +0.000 C 
BRANCH  22  23
ATOM     23  C   UNL     1       2.855   3.819  17.402  0.00  0.00    +0.000 C 
ATOM     24  C   UNL     1       3.012   2.280  17.345  0.00  0.00    +0.000 C 
ATOM     25  C   UNL     1       2.307   1.536  18.478  0.00  0.00    +0.000 C 
ATOM     26  C   UNL     1       0.814   1.794  18.406  0.00  0.00    +0.000 C 
ATOM     27  C   UNL     1       0.549   3.264  18.663  0.00  0.00    +0.000 C 
ATOM     28  C   UNL     1       1.396   4.214  17.806  0.00  0.00    +0.000 C 
ENDBRANCH  22  23
BRANCH  22  29
ATOM     29  C   UNL     1       4.574   4.070  19.388  0.00  0.00    +0.000 C 
BRANCH  29  30
ATOM     30  N   UNL     1       3.555   3.787  20.363  0.00  0.00    +0.000 N 
ATOM     31  C   UNL     1       2.626   4.619  20.898  0.00  0.00    +0.000 A 
ATOM     32  C   UNL     1       2.057   3.907  21.926  0.00  0.00    +0.000 A 
ATOM     33  N   UNL     1       2.570   2.639  21.982  0.00  0.00    +0.000 NA
ATOM     34  C   UNL     1       3.452   2.585  21.012  0.00  0.00    +0.000 A 
ENDBRANCH  29  30
ENDBRANCH  22  29
ENDBRANCH   2  22
TORSDOF 9
ENDMDL
MODEL 8
REMARK VINA RESULT:      -7.8      7.091      9.253
REMARK  Name = 
REMARK  9 active torsions:
REMARK  status: ('A' for Active; 'I' for Inactive)
REMARK    1  A    between atoms: C_2  and  C_3
REMARK    2  A    between atoms: C_7  and  N_8
REMARK    3  A    between atoms: C_9  and  O_11
REMARK    4  A    between atoms: O_11  and  N_12
REMARK    5  A    between atoms: C_13  and  C_14
REMARK    6  A    between atoms: C_13  and  C_20
REMARK    7  A    between atoms: C_20  and  C_21
REMARK    8  A    between atoms: C_20  and  C_27
REMARK    9  A    between atoms: C_21  and  N_22
REMARK                            x       y       z     vdW  Elec       q    Type
REMARK                         _______ _______ _______ _____ _____    ______ ____
ROOT
ATOM      1  N   UNL     1       8.776  10.553  19.320  0.00  0.00    +0.000 NA
ATOM      2  C   UNL     1       9.651  11.498  19.450  0.00  0.00    +0.000 C 
ENDROOT
BRANCH   2   3
ATOM      3  C   UNL     1      11.200  11.381  19.091  0.00  0.00    +0.000 C 
ATOM      4  C   UNL     1      11.607  11.562  17.602  0.00  0.00    +0.000 C 
ATOM      5  C   UNL     1      11.434  13.012  17.129  0.00  0.00    +0.000 C 
ATOM      6  C   UNL     1      12.301  13.968  17.935  0.00  0.00    +0.000 C 
ATOM      7  C   UNL     1      12.142  13.751  19.437  0.00  0.00    +0.000 C 
ATOM      8  C   UNL     1      12.206  12.278  19.844  0.00  0.00    +0.000 C 
ENDBRANCH   2   3
BRANCH   1   9
ATOM      9  O   UNL     1       9.247   9.311  18.939  0.00  0.00    +0.000 OA
BRANCH   9  11
ATOM     10  N   UNL     1       8.332   7.312  18.643  0.00  0.00    +0.000 N 
ATOM     11  C   UNL     1       8.284   8.625  18.251  0.00  0.00    +0.000 C 
ATOM     12  O   UNL     1       7.533   9.118  17.419  0.00  0.00    +0.000 OA
ATOM     13  H   UNL     1       9.122   7.079  19.231  0.00  0.00    +0.000 HD
BRANCH  10  18
ATOM     14  C   UNL     1       6.484   4.848  16.626  0.00  0.00    +0.000 A 
ATOM     15  C   UNL     1       5.629   4.287  17.574  0.00  0.00    +0.000 A 
ATOM     16  C   UNL     1       5.670   4.722  18.891  0.00  0.00    +0.000 A 
ATOM     17  C   UNL     1       6.560   5.730  19.260  0.00  0.00    +0.000 A 
ATOM     18  C   UNL     1       7.415   6.307  18.318  0.00  0.00    +0.000 A 
ATOM     19  C   UNL     1       7.386   5.851  16.998  0.00  0.00    +0.000 A 
BRANCH  14  21
ATOM     20  N   UNL     1       6.396   4.035  14.168  0.00  0.00    +0.000 NA
ATOM     21  C   UNL     1       6.438   4.403  15.265  0.00  0.00    +0.000 C 
ENDBRANCH  14  21
ENDBRANCH  10  18
ENDBRANCH   9  11
ENDBRANCH   1   9
BRANCH   2  22
ATOM     22  C   UNL     1       9.059  12.742  20.234  0.00  0.00    +0.000 C 
BRANCH  22  23
ATOM     23  C   UNL     1       8.968  14.129  19.408  0.00  0.00    +0.000 C 
ATOM     24  C   UNL     1       8.088  14.015  18.139  0.00  0.00    +0.000 C 
ATOM     25  C   UNL     1       6.682  14.591  18.298  0.00  0.00    +0.000 C 
ATOM     26  C   UNL     1       6.772  16.076  18.595  0.00  0.00    +0.000 C 
ATOM     27  C   UNL     1       7.442  16.276  19.940  0.00  0.00    +0.000 C 
ATOM     28  C   UNL     1       8.768  15.520  20.099  0.00  0.00    +0.000 C 
ENDBRANCH  22  23
BRANCH  22  29
ATOM     29  C   UNL     1       9.485  12.916  21.693  0.00  0.00    +0.000 C 
BRANCH  29  30
ATOM     30  N   UNL     1       8.505  12.761  22.734  0.00  0.00    +0.000 N 
ATOM     31  C   UNL     1       7.742  11.680  23.039  0.00  0.00    +0.000 A 
ATOM     32  C   UNL     1       6.832  12.134  23.964  0.00  0.00    +0.000 A 
ATOM     33  N   UNL     1       7.068  13.445  24.277  0.00  0.00    +0.000 NA
ATOM     34  C   UNL     1       8.099  13.791  23.541  0.00  0.00    +0.000 A 
ENDBRANCH  29  30
ENDBRANCH  22  29
ENDBRANCH   2  22
TORSDOF 9
ENDMDL
MODEL 9
REMARK VINA RESULT:      -7.8      2.605      9.006
REMARK  Name = 
REMARK  9 active torsions:
REMARK  status: ('A' for Active; 'I' for Inactive)
REMARK    1  A    between atoms: C_2  and  C_3
REMARK    2  A    between atoms: C_7  and  N_8
REMARK    3  A    between atoms: C_9  and  O_11
REMARK    4  A    between atoms: O_11  and  N_12
REMARK    5  A    between atoms: C_13  and  C_14
REMARK    6  A    between atoms: C_13  and  C_20
REMARK    7  A    between atoms: C_20  and  C_21
REMARK    8  A    between atoms: C_20  and  C_27
REMARK    9  A    between atoms: C_21  and  N_22
REMARK                            x       y       z     vdW  Elec       q    Type
REMARK                         _______ _______ _______ _____ _____    ______ ____
ROOT
ATOM      1  N   UNL     1       3.006   7.568  17.887  0.00  0.00    +0.000 NA
ATOM      2  C   UNL     1       3.890   6.647  17.670  0.00  0.00    +0.000 C 
ENDROOT
BRANCH   2   3
ATOM      3  C   UNL     1       5.082   6.740  16.614  0.00  0.00    +0.000 C 
ATOM      4  C   UNL     1       6.477   7.172  17.144  0.00  0.00    +0.000 C 
ATOM      5  C   UNL     1       7.118   6.092  18.027  0.00  0.00    +0.000 C 
ATOM      6  C   UNL     1       7.328   4.796  17.257  0.00  0.00    +0.000 C 
ATOM      7  C   UNL     1       6.066   4.364  16.516  0.00  0.00    +0.000 C 
ATOM      8  C   UNL     1       5.400   5.504  15.745  0.00  0.00    +0.000 C 
ENDBRANCH   2   3
BRANCH   1   9
ATOM      9  O   UNL     1       3.037   8.675  17.060  0.00  0.00    +0.000 OA
BRANCH   9  11
ATOM     10  N   UNL     1       1.259   9.230  18.264  0.00  0.00    +0.000 N 
ATOM     11  C   UNL     1       2.376   9.723  17.641  0.00  0.00    +0.000 C 
ATOM     12  O   UNL     1       2.731  10.893  17.582  0.00  0.00    +0.000 OA
ATOM     13  H   UNL     1       1.066   8.256  18.071  0.00  0.00    +0.000 HD
BRANCH  10  18
ATOM     14  C   UNL     1      -0.320  10.380  21.386  0.00  0.00    +0.000 A 
ATOM     15  C   UNL     1      -1.259  11.294  20.910  0.00  0.00    +0.000 A 
ATOM     16  C   UNL     1      -1.365  11.538  19.548  0.00  0.00    +0.000 A 
ATOM     17  C   UNL     1      -0.538  10.856  18.656  0.00  0.00    +0.000 A 
ATOM     18  C   UNL     1       0.400   9.930  19.119  0.00  0.00    +0.000 A 
ATOM     19  C   UNL     1       0.519   9.704  20.493  0.00  0.00    +0.000 A 
BRANCH  14  21
ATOM     20  N   UNL     1      -0.133   9.910  23.926  0.00  0.00    +0.000 NA
ATOM     21  C   UNL     1      -0.214  10.124  22.792  0.00  0.00    +0.000 C 
ENDBRANCH  14  21
ENDBRANCH  10  18
ENDBRANCH   9  11
ENDBRANCH   1   9
BRANCH   2  22
ATOM     22  C   UNL     1       3.526   5.296  18.413  0.00  0.00    +0.000 C 
BRANCH  22  23
ATOM     23  C   UNL     1       2.374   4.391  17.728  0.00  0.00    +0.000 C 
ATOM     24  C   UNL     1       2.930   3.093  17.094  0.00  0.00    +0.000 C 
ATOM     25  C   UNL     1       2.716   1.841  17.942  0.00  0.00    +0.000 C 
ATOM     26  C   UNL     1       1.230   1.598  18.125  0.00  0.00    +0.000 C 
ATOM     27  C   UNL     1       0.634   2.735  18.930  0.00  0.00    +0.000 C 
ATOM     28  C   UNL     1       0.984   4.131  18.398  0.00  0.00    +0.000 C 
ENDBRANCH  22  23
BRANCH  22  29
ATOM     29  C   UNL     1       3.456   5.335  19.941  0.00  0.00    +0.000 C 
BRANCH  29  30
ATOM     30  N   UNL     1       3.402   4.099  20.675  0.00  0.00    +0.000 N 
ATOM     31  C   UNL     1       4.151   2.978  20.521  0.00  0.00    +0.000 A 
ATOM     32  C   UNL     1       3.550   2.032  21.316  0.00  0.00    +0.000 A 
ATOM     33  N   UNL     1       2.495   2.572  22.001  0.00  0.00    +0.000 NA
ATOM     34  C   UNL     1       2.445   3.827  21.616  0.00  0.00    +0.000 A 
ENDBRANCH  29  30
ENDBRANCH  22  29
ENDBRANCH   2  22
TORSDOF 9
ENDMDL
