MODEL 1
REMARK VINA RESULT:      -6.5      0.000      0.000
REMARK  Name = 
REMARK  4 active torsions:
REMARK  status: ('A' for Active; 'I' for Inactive)
REMARK    1  A    between atoms: C_1  and  N_2
REMARK    2  A    between atoms: N_5  and  C_6
REMARK    3  A    between atoms: C_6  and  C_7
REMARK    4  A    between atoms: C_7  and  C_8
REMARK                            x       y       z     vdW  Elec       q    Type
REMARK                         _______ _______ _______ _____ _____    ______ ____
ROOT
ATOM      1  C   UNL     1       4.369   3.537  16.501  0.00  0.00    +0.000 C 
ENDROOT
BRANCH   1   2
ATOM      2  C   UNL     1       5.286   4.701  16.816  0.00  0.00    +0.000 A 
ATOM      3  C   UNL     1       5.223   5.861  16.044  0.00  0.00    +0.000 A 
ATOM      4  C   UNL     1       6.031   6.964  16.339  0.00  0.00    +0.000 A 
ATOM      5  C   UNL     1       6.915   6.919  17.420  0.00  0.00    +0.000 A 
ATOM      6 CL   UNL     1       7.864   8.326  17.739  0.00  0.00    +0.000 Cl
ATOM      7  C   UNL     1       7.000   5.763  18.192  0.00  0.00    +0.000 A 
ATOM      8 CL   UNL     1       8.066   5.629  19.548  0.00  0.00    +0.000 Cl
ATOM      9  C   UNL     1       6.194   4.652  17.888  0.00  0.00    +0.000 A 
ENDBRANCH   1   2
BRANCH   1  10
ATOM     10  C   UNL     1       2.994   3.649  17.182  0.00  0.00    +0.000 C 
BRANCH  10  15
ATOM     11  C   UNL     1       2.188   3.270  21.965  0.00  0.00    +0.000 C 
ATOM     12  N   UNL     1       2.134   2.596  20.675  0.00  0.00    +0.000 NA
ATOM     13  C   UNL     1       3.470   2.476  20.064  0.00  0.00    +0.000 C 
ATOM     14  C   UNL     1       3.411   1.781  18.676  0.00  0.00    +0.000 C 
ATOM     15  N   UNL     1       2.451   2.381  17.712  0.00  0.00    +0.000 NA
ATOM     16  C   UNL     1       1.148   2.524  18.401  0.00  0.00    +0.000 C 
ATOM     17  C   UNL     1       1.217   3.278  19.748  0.00  0.00    +0.000 C 
ENDBRANCH  10  15
ENDBRANCH   1  10
TORSDOF 3
ENDMDL
MODEL 2
REMARK VINA RESULT:      -6.2      2.944      3.403
REMARK  Name = 
REMARK  4 active torsions:
REMARK  status: ('A' for Active; 'I' for Inactive)
REMARK    1  A    between atoms: C_1  and  N_2
REMARK    2  A    between atoms: N_5  and  C_6
REMARK    3  A    between atoms: C_6  and  C_7
REMARK    4  A    between atoms: C_7  and  C_8
REMARK                            x       y       z     vdW  Elec       q    Type
REMARK                         _______ _______ _______ _____ _____    ______ ____
ROOT
ATOM      1  C   UNL     1       4.371   3.583  17.096  0.00  0.00    +0.000 C 
ENDROOT
BRANCH   1   2
ATOM      2  C   UNL     1       5.307   4.076  16.012  0.00  0.00    +0.000 A 
ATOM      3  C   UNL     1       6.280   5.027  16.316  0.00  0.00    +0.000 A 
ATOM      4  C   UNL     1       7.181   5.470  15.342  0.00  0.00    +0.000 A 
ATOM      5  C   UNL     1       7.120   4.957  14.043  0.00  0.00    +0.000 A 
ATOM      6 CL   UNL     1       8.280   5.531  12.899  0.00  0.00    +0.000 Cl
ATOM      7  C   UNL     1       6.146   4.017  13.719  0.00  0.00    +0.000 A 
ATOM      8 CL   UNL     1       6.006   3.332  12.137  0.00  0.00    +0.000 Cl
ATOM      9  C   UNL     1       5.235   3.581  14.698  0.00  0.00    +0.000 A 
ENDBRANCH   1   2
BRANCH   1  10
ATOM     10  C   UNL     1       4.089   4.640  18.178  0.00  0.00    +0.000 C 
BRANCH  10  15
ATOM     11  C   UNL     1       1.348   2.670  21.682  0.00  0.00    +0.000 C 
ATOM     12  N   UNL     1       1.387   3.592  20.555  0.00  0.00    +0.000 NA
ATOM     13  C   UNL     1       1.715   2.902  19.295  0.00  0.00    +0.000 C 
ATOM     14  C   UNL     1       1.782   3.887  18.096  0.00  0.00    +0.000 C 
ATOM     15  N   UNL     1       2.677   5.058  18.294  0.00  0.00    +0.000 NA
ATOM     16  C   UNL     1       2.335   5.673  19.596  0.00  0.00    +0.000 C 
ATOM     17  C   UNL     1       2.339   4.690  20.788  0.00  0.00    +0.000 C 
ENDBRANCH  10  15
ENDBRANCH   1  10
TORSDOF 3
ENDMDL
MODEL 3
REMARK VINA RESULT:      -6.2      1.033      1.421
REMARK  Name = 
REMARK  4 active torsions:
REMARK  status: ('A' for Active; 'I' for Inactive)
REMARK    1  A    between atoms: C_1  and  N_2
REMARK    2  A    between atoms: N_5  and  C_6
REMARK    3  A    between atoms: C_6  and  C_7
REMARK    4  A    between atoms: C_7  and  C_8
REMARK                            x       y       z     vdW  Elec       q    Type
REMARK                         _______ _______ _______ _____ _____    ______ ____
ROOT
ATOM      1  C   UNL     1       4.638   3.682  16.446  0.00  0.00    +0.000 C 
ENDROOT
BRANCH   1   2
ATOM      2  C   UNL     1       5.554   4.821  16.843  0.00  0.00    +0.000 A 
ATOM      3  C   UNL     1       5.507   6.025  16.140  0.00  0.00    +0.000 A 
ATOM      4  C   UNL     1       6.315   7.105  16.512  0.00  0.00    +0.000 A 
ATOM      5  C   UNL     1       7.181   6.992  17.602  0.00  0.00    +0.000 A 
ATOM      6 CL   UNL     1       8.131   8.374  18.019  0.00  0.00    +0.000 Cl
ATOM      7  C   UNL     1       7.250   5.793  18.306  0.00  0.00    +0.000 A 
ATOM      8 CL   UNL     1       8.294   5.574  19.668  0.00  0.00    +0.000 Cl
ATOM      9  C   UNL     1       6.445   4.705  17.924  0.00  0.00    +0.000 A 
ENDBRANCH   1   2
BRANCH   1  10
ATOM     10  C   UNL     1       3.691   3.244  17.578  0.00  0.00    +0.000 C 
BRANCH  10  15
ATOM     11  C   UNL     1       1.325   2.721  21.796  0.00  0.00    +0.000 C 
ATOM     12  N   UNL     1       1.454   3.503  20.573  0.00  0.00    +0.000 NA
ATOM     13  C   UNL     1       1.167   2.695  19.375  0.00  0.00    +0.000 C 
ATOM     14  C   UNL     1       1.330   3.520  18.068  0.00  0.00    +0.000 C 
ATOM     15  N   UNL     1       2.635   4.218  17.924  0.00  0.00    +0.000 NA
ATOM     16  C   UNL     1       2.890   4.964  19.177  0.00  0.00    +0.000 C 
ATOM     17  C   UNL     1       2.789   4.111  20.460  0.00  0.00    +0.000 C 
ENDBRANCH  10  15
ENDBRANCH   1  10
TORSDOF 3
ENDMDL
MODEL 4
REMARK VINA RESULT:      -6.1      2.846      3.174
REMARK  Name = 
REMARK  4 active torsions:
REMARK  status: ('A' for Active; 'I' for Inactive)
REMARK    1  A    between atoms: C_1  and  N_2
REMARK    2  A    between atoms: N_5  and  C_6
REMARK    3  A    between atoms: C_6  and  C_7
REMARK    4  A    between atoms: C_7  and  C_8
REMARK                            x       y       z     vdW  Elec       q    Type
REMARK                         _______ _______ _______ _____ _____    ______ ____
ROOT
ATOM      1  C   UNL     1       5.120   4.008  17.603  0.00  0.00    +0.000 C 
ENDROOT
BRANCH   1   2
ATOM      2  C   UNL     1       5.781   4.334  16.279  0.00  0.00    +0.000 A 
ATOM      3  C   UNL     1       6.907   5.155  16.251  0.00  0.00    +0.000 A 
ATOM      4  C   UNL     1       7.559   5.439  15.047  0.00  0.00    +0.000 A 
ATOM      5  C   UNL     1       7.089   4.896  13.848  0.00  0.00    +0.000 A 
ATOM      6 CL   UNL     1       7.958   5.269  12.402  0.00  0.00    +0.000 Cl
ATOM      7  C   UNL     1       5.957   4.084  13.857  0.00  0.00    +0.000 A 
ATOM      8 CL   UNL     1       5.315   3.372  12.418  0.00  0.00    +0.000 Cl
ATOM      9  C   UNL     1       5.298   3.809  15.068  0.00  0.00    +0.000 A 
ENDBRANCH   1   2
BRANCH   1  10
ATOM     10  C   UNL     1       3.682   4.545  17.710  0.00  0.00    +0.000 C 
BRANCH  10  15
ATOM     11  C   UNL     1       1.475   2.635  21.602  0.00  0.00    +0.000 C 
ATOM     12  N   UNL     1       1.566   2.641  20.147  0.00  0.00    +0.000 NA
ATOM     13  C   UNL     1       2.899   2.221  19.681  0.00  0.00    +0.000 C 
ATOM     14  C   UNL     1       3.007   2.252  18.132  0.00  0.00    +0.000 C 
ATOM     15  N   UNL     1       2.619   3.541  17.501  0.00  0.00    +0.000 NA
ATOM     16  C   UNL     1       1.301   3.934  18.049  0.00  0.00    +0.000 C 
ATOM     17  C   UNL     1       1.234   3.962  19.592  0.00  0.00    +0.000 C 
ENDBRANCH  10  15
ENDBRANCH   1  10
TORSDOF 3
ENDMDL
MODEL 5
REMARK VINA RESULT:      -6.1      4.563      5.209
REMARK  Name = 
REMARK  4 active torsions:
REMARK  status: ('A' for Active; 'I' for Inactive)
REMARK    1  A    between atoms: C_1  and  N_2
REMARK    2  A    between atoms: N_5  and  C_6
REMARK    3  A    between atoms: C_6  and  C_7
REMARK    4  A    between atoms: C_7  and  C_8
REMARK                            x       y       z     vdW  Elec       q    Type
REMARK                         _______ _______ _______ _____ _____    ______ ____
ROOT
ATOM      1  C   UNL     1       3.096   7.016  17.813  0.00  0.00    +0.000 C 
ENDROOT
BRANCH   1   2
ATOM      2  C   UNL     1       2.241   7.855  18.740  0.00  0.00    +0.000 A 
ATOM      3  C   UNL     1       2.051   7.452  20.062  0.00  0.00    +0.000 A 
ATOM      4  C   UNL     1       1.299   8.229  20.948  0.00  0.00    +0.000 A 
ATOM      5  C   UNL     1       0.728   9.430  20.520  0.00  0.00    +0.000 A 
ATOM      6 CL   UNL     1      -0.168  10.349  21.676  0.00  0.00    +0.000 Cl
ATOM      7  C   UNL     1       0.896   9.840  19.200  0.00  0.00    +0.000 A 
ATOM      8 CL   UNL     1       0.225  11.314  18.593  0.00  0.00    +0.000 Cl
ATOM      9  C   UNL     1       1.645   9.052  18.308  0.00  0.00    +0.000 A 
ENDBRANCH   1   2
BRANCH   1  10
ATOM     10  C   UNL     1       3.703   5.781  18.501  0.00  0.00    +0.000 C 
BRANCH  10  15
ATOM     11  C   UNL     1       1.524   2.576  21.441  0.00  0.00    +0.000 C 
ATOM     12  N   UNL     1       2.012   2.841  20.094  0.00  0.00    +0.000 NA
ATOM     13  C   UNL     1       3.468   3.066  20.074  0.00  0.00    +0.000 C 
ATOM     14  C   UNL     1       3.986   3.374  18.642  0.00  0.00    +0.000 C 
ATOM     15  N   UNL     1       3.280   4.480  17.943  0.00  0.00    +0.000 NA
ATOM     16  C   UNL     1       1.826   4.224  18.045  0.00  0.00    +0.000 C 
ATOM     17  C   UNL     1       1.319   3.987  19.484  0.00  0.00    +0.000 C 
ENDBRANCH  10  15
ENDBRANCH   1  10
TORSDOF 3
ENDMDL
MODEL 6
REMARK VINA RESULT:      -6.1      1.370      1.683
REMARK  Name = 
REMARK  4 active torsions:
REMARK  status: ('A' for Active; 'I' for Inactive)
REMARK    1  A    between atoms: C_1  and  N_2
REMARK    2  A    between atoms: N_5  and  C_6
REMARK    3  A    between atoms: C_6  and  C_7
REMARK    4  A    between atoms: C_7  and  C_8
REMARK                            x       y       z     vdW  Elec       q    Type
REMARK                         _______ _______ _______ _____ _____    ______ ____
ROOT
ATOM      1  C   UNL     1       3.933   2.934  17.537  0.00  0.00    +0.000 C 
ENDROOT
BRANCH   1   2
ATOM      2  C   UNL     1       4.891   4.106  17.493  0.00  0.00    +0.000 A 
ATOM      3  C   UNL     1       4.839   5.005  16.427  0.00  0.00    +0.000 A 
ATOM      4  C   UNL     1       5.686   6.117  16.383  0.00  0.00    +0.000 A 
ATOM      5  C   UNL     1       6.600   6.345  17.415  0.00  0.00    +0.000 A 
ATOM      6 CL   UNL     1       7.598   7.751  17.307  0.00  0.00    +0.000 Cl
ATOM      7  C   UNL     1       6.675   5.450  18.480  0.00  0.00    +0.000 A 
ATOM      8 CL   UNL     1       7.776   5.664  19.796  0.00  0.00    +0.000 Cl
ATOM      9  C   UNL     1       5.829   4.328  18.517  0.00  0.00    +0.000 A 
ENDBRANCH   1   2
BRANCH   1  10
ATOM     10  C   UNL     1       3.658   2.432  18.965  0.00  0.00    +0.000 C 
BRANCH  10  15
ATOM     11  C   UNL     1       1.553   6.381  20.874  0.00  0.00    +0.000 C 
ATOM     12  N   UNL     1       1.374   4.990  20.476  0.00  0.00    +0.000 NA
ATOM     13  C   UNL     1       2.250   4.086  21.242  0.00  0.00    +0.000 C 
ATOM     14  C   UNL     1       2.079   2.606  20.802  0.00  0.00    +0.000 C 
ATOM     15  N   UNL     1       2.231   2.363  19.343  0.00  0.00    +0.000 NA
ATOM     16  C   UNL     1       1.371   3.335  18.630  0.00  0.00    +0.000 C 
ATOM     17  C   UNL     1       1.602   4.808  19.034  0.00  0.00    +0.000 C 
ENDBRANCH  10  15
ENDBRANCH   1  10
TORSDOF 3
ENDMDL
MODEL 7
REMARK VINA RESULT:      -6.1      1.806      2.467
REMARK  Name = 
REMARK  4 active torsions:
REMARK  status: ('A' for Active; 'I' for Inactive)
REMARK    1  A    between atoms: C_1  and  N_2
REMARK    2  A    between atoms: N_5  and  C_6
REMARK    3  A    between atoms: C_6  and  C_7
REMARK    4  A    between atoms: C_7  and  C_8
REMARK                            x       y       z     vdW  Elec       q    Type
REMARK                         _______ _______ _______ _____ _____    ______ ____
ROOT
ATOM      1  C   UNL     1       3.473   2.557  17.718  0.00  0.00    +0.000 C 
ENDROOT
BRANCH   1   2
ATOM      2  C   UNL     1       4.488   3.670  17.558  0.00  0.00    +0.000 A 
ATOM      3  C   UNL     1       4.748   4.530  18.624  0.00  0.00    +0.000 A 
ATOM      4  C   UNL     1       5.709   5.540  18.514  0.00  0.00    +0.000 A 
ATOM      5  C   UNL     1       6.430   5.698  17.328  0.00  0.00    +0.000 A 
ATOM      6 CL   UNL     1       7.618   6.951  17.272  0.00  0.00    +0.000 Cl
ATOM      7  C   UNL     1       6.173   4.856  16.249  0.00  0.00    +0.000 A 
ATOM      8 CL   UNL     1       7.024   4.985  14.748  0.00  0.00    +0.000 Cl
ATOM      9  C   UNL     1       5.200   3.848  16.358  0.00  0.00    +0.000 A 
ENDBRANCH   1   2
BRANCH   1  10
ATOM     10  C   UNL     1       3.327   2.075  19.173  0.00  0.00    +0.000 C 
BRANCH  10  15
ATOM     11  C   UNL     1       1.566   6.314  20.784  0.00  0.00    +0.000 C 
ATOM     12  N   UNL     1       1.305   4.894  20.590  0.00  0.00    +0.000 NA
ATOM     13  C   UNL     1       2.238   4.055  21.362  0.00  0.00    +0.000 C 
ATOM     14  C   UNL     1       1.978   2.540  21.136  0.00  0.00    +0.000 C 
ATOM     15  N   UNL     1       1.953   2.113  19.712  0.00  0.00    +0.000 NA
ATOM     16  C   UNL     1       1.043   3.024  18.982  0.00  0.00    +0.000 C 
ATOM     17  C   UNL     1       1.360   4.525  19.167  0.00  0.00    +0.000 C 
ENDBRANCH  10  15
ENDBRANCH   1  10
TORSDOF 3
ENDMDL
MODEL 8
REMARK VINA RESULT:      -6.0      4.549      5.938
REMARK  Name = 
REMARK  4 active torsions:
REMARK  status: ('A' for Active; 'I' for Inactive)
REMARK    1  A    between atoms: C_1  and  N_2
REMARK    2  A    between atoms: N_5  and  C_6
REMARK    3  A    between atoms: C_6  and  C_7
REMARK    4  A    between atoms: C_7  and  C_8
REMARK                            x       y       z     vdW  Elec       q    Type
REMARK                         _______ _______ _______ _____ _____    ______ ____
ROOT
ATOM      1  C   UNL     1       3.011   6.048  18.137  0.00  0.00    +0.000 C 
ENDROOT
BRANCH   1   2
ATOM      2  C   UNL     1       2.352   7.321  18.626  0.00  0.00    +0.000 A 
ATOM      3  C   UNL     1       2.043   8.334  17.718  0.00  0.00    +0.000 A 
ATOM      4  C   UNL     1       1.399   9.502  18.138  0.00  0.00    +0.000 A 
ATOM      5  C   UNL     1       1.051   9.669  19.481  0.00  0.00    +0.000 A 
ATOM      6 CL   UNL     1       0.236  11.127  19.924  0.00  0.00    +0.000 Cl
ATOM      7  C   UNL     1       1.365   8.674  20.403  0.00  0.00    +0.000 A 
ATOM      8 CL   UNL     1       0.965   8.803  22.080  0.00  0.00    +0.000 Cl
ATOM      9  C   UNL     1       2.021   7.504  19.980  0.00  0.00    +0.000 A 
ENDBRANCH   1   2
BRANCH   1  10
ATOM     10  C   UNL     1       4.508   5.969  18.484  0.00  0.00    +0.000 C 
BRANCH  10  15
ATOM     11  C   UNL     1       7.017   4.770  14.492  0.00  0.00    +0.000 C 
ATOM     12  N   UNL     1       6.526   4.323  15.789  0.00  0.00    +0.000 NA
ATOM     13  C   UNL     1       5.054   4.336  15.851  0.00  0.00    +0.000 C 
ATOM     14  C   UNL     1       4.529   3.884  17.241  0.00  0.00    +0.000 C 
ATOM     15  N   UNL     1       5.103   4.620  18.399  0.00  0.00    +0.000 NA
ATOM     16  C   UNL     1       6.576   4.618  18.251  0.00  0.00    +0.000 C 
ATOM     17  C   UNL     1       7.081   5.133  16.885  0.00  0.00    +0.000 C 
ENDBRANCH  10  15
ENDBRANCH   1  10
TORSDOF 3
ENDMDL
MODEL 9
REMARK VINA RESULT:      -5.9      3.670      6.276
REMARK  Name = 
REMARK  4 active torsions:
REMARK  status: ('A' for Active; 'I' for Inactive)
REMARK    1  A    between atoms: C_1  and  N_2
REMARK    2  A    between atoms: N_5  and  C_6
REMARK    3  A    between atoms: C_6  and  C_7
REMARK    4  A    between atoms: C_7  and  C_8
REMARK                            x       y       z     vdW  Elec       q    Type
REMARK                         _______ _______ _______ _____ _____    ______ ____
ROOT
ATOM      1  C   UNL     1       2.861   6.680  17.806  0.00  0.00    +0.000 C 
ENDROOT
BRANCH   1   2
ATOM      2  C   UNL     1       2.456   5.600  18.789  0.00  0.00    +0.000 A 
ATOM      3  C   UNL     1       2.721   5.766  20.148  0.00  0.00    +0.000 A 
ATOM      4  C   UNL     1       2.322   4.802  21.080  0.00  0.00    +0.000 A 
ATOM      5  C   UNL     1       1.643   3.656  20.659  0.00  0.00    +0.000 A 
ATOM      6 CL   UNL     1       1.159   2.520  21.868  0.00  0.00    +0.000 Cl
ATOM      7  C   UNL     1       1.382   3.468  19.304  0.00  0.00    +0.000 A 
ATOM      8 CL   UNL     1       0.545   2.080  18.703  0.00  0.00    +0.000 Cl
ATOM      9  C   UNL     1       1.793   4.434  18.368  0.00  0.00    +0.000 A 
ENDBRANCH   1   2
BRANCH   1  10
ATOM     10  C   UNL     1       4.320   6.551  17.334  0.00  0.00    +0.000 C 
BRANCH  10  15
ATOM     11  C   UNL     1       7.450   4.909  13.992  0.00  0.00    +0.000 C 
ATOM     12  N   UNL     1       6.756   4.622  15.240  0.00  0.00    +0.000 NA
ATOM     13  C   UNL     1       5.294   4.605  15.062  0.00  0.00    +0.000 C 
ATOM     14  C   UNL     1       4.551   4.324  16.397  0.00  0.00    +0.000 C 
ATOM     15  N   UNL     1       4.926   5.217  17.524  0.00  0.00    +0.000 NA
ATOM     16  C   UNL     1       6.403   5.234  17.617  0.00  0.00    +0.000 C 
ATOM     17  C   UNL     1       7.122   5.581  16.294  0.00  0.00    +0.000 C 
ENDBRANCH  10  15
ENDBRANCH   1  10
TORSDOF 3
ENDMDL
