MODEL 1
REMARK VINA RESULT:      -9.1      0.000      0.000
REMARK  Name = 
REMARK  1 active torsions:
REMARK  status: ('A' for Active; 'I' for Inactive)
REMARK    1  A    between atoms: N_2  and  C_4
REMARK                            x       y       z     vdW  Elec       q    Type
REMARK                         _______ _______ _______ _____ _____    ______ ____
ROOT
ATOM      1  C   UNL     1       2.610   4.178  20.577  0.00  0.00    +0.000 C 
ATOM      2  C   UNL     1       2.302   5.442  20.920  0.00  0.00    +0.000 C 
ATOM      3  C   UNL     1       2.526   6.311  19.705  0.00  0.00    +0.000 A 
ATOM      4  C   UNL     1       3.174   5.509  18.761  0.00  0.00    +0.000 A 
ATOM      5  C   UNL     1       3.234   4.187  19.212  0.00  0.00    +0.000 A 
ATOM      6  C   UNL     1       3.799   3.199  18.414  0.00  0.00    +0.000 A 
ATOM      7  C   UNL     1       4.355   3.625  17.192  0.00  0.00    +0.000 A 
ATOM      8  C   UNL     1       4.285   4.971  16.762  0.00  0.00    +0.000 A 
ATOM      9  C   UNL     1       3.647   5.944  17.559  0.00  0.00    +0.000 A 
ATOM     10  C   UNL     1       3.426   7.303  17.268  0.00  0.00    +0.000 A 
ATOM     11  C   UNL     1       2.664   8.124  18.148  0.00  0.00    +0.000 A 
ATOM     12  C   UNL     1       2.335   9.436  17.799  0.00  0.00    +0.000 A 
ATOM     13  C   UNL     1       1.517  10.220  18.625  0.00  0.00    +0.000 A 
ATOM     14  C   UNL     1       0.961   9.710  19.812  0.00  0.00    +0.000 A 
ATOM     15  C   UNL     1       0.102  10.512  20.592  0.00  0.00    +0.000 A 
ATOM     16  C   UNL     1      -0.514  10.022  21.743  0.00  0.00    +0.000 A 
ATOM     17  C   UNL     1      -0.333   8.711  22.097  0.00  0.00    +0.000 A 
ATOM     18  C   UNL     1       0.487   7.902  21.316  0.00  0.00    +0.000 A 
ATOM     19  C   UNL     1       1.231   8.381  20.198  0.00  0.00    +0.000 A 
ATOM     20  C   UNL     1       2.149   7.623  19.390  0.00  0.00    +0.000 A 
ENDROOT
BRANCH   1  22
ATOM     21  O   UNL     1       0.886   2.845  21.326  0.00  0.00    +0.000 OA
ATOM     22  N   UNL     1       2.097   3.106  21.393  0.00  0.00    +0.000 N 
ATOM     23  O   UNL     1       2.919   2.462  22.057  0.00  0.00    +0.000 OA
ENDBRANCH   1  22
TORSDOF 1
ENDMDL
MODEL 2
REMARK VINA RESULT:      -8.0      2.950      5.995
REMARK  Name = 
REMARK  1 active torsions:
REMARK  status: ('A' for Active; 'I' for Inactive)
REMARK    1  A    between atoms: N_2  and  C_4
REMARK                            x       y       z     vdW  Elec       q    Type
REMARK                         _______ _______ _______ _____ _____    ______ ____
ROOT
ATOM      1  C   UNL     1      -0.020   9.910  21.768  0.00  0.00    +0.000 C 
ATOM      2  C   UNL     1       0.256   8.693  21.264  0.00  0.00    +0.000 C 
ATOM      3  C   UNL     1       1.096   8.893  20.025  0.00  0.00    +0.000 A 
ATOM      4  C   UNL     1       1.081  10.265  19.755  0.00  0.00    +0.000 A 
ATOM      5  C   UNL     1       0.442  10.952  20.793  0.00  0.00    +0.000 A 
ATOM      6  C   UNL     1       0.346  12.339  20.759  0.00  0.00    +0.000 A 
ATOM      7  C   UNL     1       0.856  12.973  19.609  0.00  0.00    +0.000 A 
ATOM      8  C   UNL     1       1.493  12.253  18.573  0.00  0.00    +0.000 A 
ATOM      9  C   UNL     1       1.638  10.853  18.659  0.00  0.00    +0.000 A 
ATOM     10  C   UNL     1       2.293   9.985  17.765  0.00  0.00    +0.000 A 
ATOM     11  C   UNL     1       2.438   8.600  18.064  0.00  0.00    +0.000 A 
ATOM     12  C   UNL     1       3.199   7.765  17.243  0.00  0.00    +0.000 A 
ATOM     13  C   UNL     1       3.411   6.420  17.577  0.00  0.00    +0.000 A 
ATOM     14  C   UNL     1       2.905   5.867  18.767  0.00  0.00    +0.000 A 
ATOM     15  C   UNL     1       3.181   4.523  19.095  0.00  0.00    +0.000 A 
ATOM     16  C   UNL     1       2.748   3.957  20.293  0.00  0.00    +0.000 A 
ATOM     17  C   UNL     1       2.089   4.737  21.207  0.00  0.00    +0.000 A 
ATOM     18  C   UNL     1       1.840   6.073  20.907  0.00  0.00    +0.000 A 
ATOM     19  C   UNL     1       2.159   6.671  19.652  0.00  0.00    +0.000 A 
ATOM     20  C   UNL     1       1.869   8.021  19.247  0.00  0.00    +0.000 A 
ENDROOT
BRANCH   1  22
ATOM     21  O   UNL     1       0.326   9.555  24.018  0.00  0.00    +0.000 OA
ATOM     22  N   UNL     1      -0.436   9.998  23.145  0.00  0.00    +0.000 N 
ATOM     23  O   UNL     1      -1.501  10.584  23.374  0.00  0.00    +0.000 OA
ENDBRANCH   1  22
TORSDOF 1
ENDMDL
MODEL 3
REMARK VINA RESULT:      -7.9      2.706      5.616
REMARK  Name = 
REMARK  1 active torsions:
REMARK  status: ('A' for Active; 'I' for Inactive)
REMARK    1  A    between atoms: N_2  and  C_4
REMARK                            x       y       z     vdW  Elec       q    Type
REMARK                         _______ _______ _______ _____ _____    ______ ____
ROOT
ATOM      1  C   UNL     1       0.532   8.932  21.448  0.00  0.00    +0.000 C 
ATOM      2  C   UNL     1       0.724   7.632  21.158  0.00  0.00    +0.000 C 
ATOM      3  C   UNL     1       1.560   7.563  19.902  0.00  0.00    +0.000 A 
ATOM      4  C   UNL     1       1.628   8.867  19.403  0.00  0.00    +0.000 A 
ATOM      5  C   UNL     1       1.048   9.761  20.309  0.00  0.00    +0.000 A 
ATOM      6  C   UNL     1       1.040  11.125  20.040  0.00  0.00    +0.000 A 
ATOM      7  C   UNL     1       1.575  11.520  18.798  0.00  0.00    +0.000 A 
ATOM      8  C   UNL     1       2.151  10.594  17.898  0.00  0.00    +0.000 A 
ATOM      9  C   UNL     1       2.208   9.223  18.222  0.00  0.00    +0.000 A 
ATOM     10  C   UNL     1       2.796   8.175  17.487  0.00  0.00    +0.000 A 
ATOM     11  C   UNL     1       2.856   6.855  18.018  0.00  0.00    +0.000 A 
ATOM     12  C   UNL     1       3.551   5.845  17.350  0.00  0.00    +0.000 A 
ATOM     13  C   UNL     1       3.680   4.565  17.907  0.00  0.00    +0.000 A 
ATOM     14  C   UNL     1       3.156   4.256  19.175  0.00  0.00    +0.000 A 
ATOM     15  C   UNL     1       3.350   2.972  19.727  0.00  0.00    +0.000 A 
ATOM     16  C   UNL     1       2.896   2.647  21.005  0.00  0.00    +0.000 A 
ATOM     17  C   UNL     1       2.300   3.613  21.773  0.00  0.00    +0.000 A 
ATOM     18  C   UNL     1       2.133   4.891  21.250  0.00  0.00    +0.000 A 
ATOM     19  C   UNL     1       2.474   5.246  19.912  0.00  0.00    +0.000 A 
ATOM     20  C   UNL     1       2.266   6.524  19.283  0.00  0.00    +0.000 A 
ENDROOT
BRANCH   1  22
ATOM     21  O   UNL     1       1.026   9.609  23.594  0.00  0.00    +0.000 OA
ATOM     22  N   UNL     1       0.140   9.279  22.791  0.00  0.00    +0.000 N 
ATOM     23  O   UNL     1      -1.072   9.299  23.035  0.00  0.00    +0.000 OA
ENDBRANCH   1  22
TORSDOF 1
ENDMDL
MODEL 4
REMARK VINA RESULT:      -7.8      2.982      4.049
REMARK  Name = 
REMARK  1 active torsions:
REMARK  status: ('A' for Active; 'I' for Inactive)
REMARK    1  A    between atoms: N_2  and  C_4
REMARK                            x       y       z     vdW  Elec       q    Type
REMARK                         _______ _______ _______ _____ _____    ______ ____
ROOT
ATOM      1  C   UNL     1       4.423   6.299  17.135  0.00  0.00    +0.000 C 
ATOM      2  C   UNL     1       3.496   7.259  17.308  0.00  0.00    +0.000 C 
ATOM      3  C   UNL     1       2.779   6.972  18.605  0.00  0.00    +0.000 A 
ATOM      4  C   UNL     1       3.201   5.705  19.017  0.00  0.00    +0.000 A 
ATOM      5  C   UNL     1       4.226   5.245  18.184  0.00  0.00    +0.000 A 
ATOM      6  C   UNL     1       4.832   4.018  18.432  0.00  0.00    +0.000 A 
ATOM      7  C   UNL     1       4.307   3.265  19.500  0.00  0.00    +0.000 A 
ATOM      8  C   UNL     1       3.266   3.753  20.324  0.00  0.00    +0.000 A 
ATOM      9  C   UNL     1       2.712   5.030  20.096  0.00  0.00    +0.000 A 
ATOM     10  C   UNL     1       1.726   5.701  20.843  0.00  0.00    +0.000 A 
ATOM     11  C   UNL     1       1.356   7.040  20.530  0.00  0.00    +0.000 A 
ATOM     12  C   UNL     1       0.475   7.751  21.348  0.00  0.00    +0.000 A 
ATOM     13  C   UNL     1       0.172   9.095  21.088  0.00  0.00    +0.000 A 
ATOM     14  C   UNL     1       0.770   9.795  20.025  0.00  0.00    +0.000 A 
ATOM     15  C   UNL     1       0.480  11.160  19.825  0.00  0.00    +0.000 A 
ATOM     16  C   UNL     1       1.098  11.902  18.819  0.00  0.00    +0.000 A 
ATOM     17  C   UNL     1       2.058  11.310  18.040  0.00  0.00    +0.000 A 
ATOM     18  C   UNL     1       2.375   9.972  18.251  0.00  0.00    +0.000 A 
ATOM     19  C   UNL     1       1.694   9.139  19.186  0.00  0.00    +0.000 A 
ATOM     20  C   UNL     1       1.919   7.734  19.408  0.00  0.00    +0.000 A 
ENDROOT
BRANCH   1  22
ATOM     21  O   UNL     1       5.382   6.189  15.043  0.00  0.00    +0.000 OA
ATOM     22  N   UNL     1       5.507   6.556  16.221  0.00  0.00    +0.000 N 
ATOM     23  O   UNL     1       6.470   7.199  16.658  0.00  0.00    +0.000 OA
ENDBRANCH   1  22
TORSDOF 1
ENDMDL
MODEL 5
REMARK VINA RESULT:      -7.4      5.619      7.789
REMARK  Name = 
REMARK  1 active torsions:
REMARK  status: ('A' for Active; 'I' for Inactive)
REMARK    1  A    between atoms: N_2  and  C_4
REMARK                            x       y       z     vdW  Elec       q    Type
REMARK                         _______ _______ _______ _____ _____    ______ ____
ROOT
ATOM      1  C   UNL     1      -1.086  11.784  21.440  0.00  0.00    +0.000 C 
ATOM      2  C   UNL     1      -2.211  12.367  20.985  0.00  0.00    +0.000 C 
ATOM      3  C   UNL     1      -2.491  11.808  19.611  0.00  0.00    +0.000 A 
ATOM      4  C   UNL     1      -1.362  11.067  19.249  0.00  0.00    +0.000 A 
ATOM      5  C   UNL     1      -0.475  10.984  20.327  0.00  0.00    +0.000 A 
ATOM      6  C   UNL     1       0.703  10.255  20.210  0.00  0.00    +0.000 A 
ATOM      7  C   UNL     1       0.965   9.688  18.947  0.00  0.00    +0.000 A 
ATOM      8  C   UNL     1       0.052   9.792  17.872  0.00  0.00    +0.000 A 
ATOM      9  C   UNL     1      -1.168  10.480  18.034  0.00  0.00    +0.000 A 
ATOM     10  C   UNL     1      -2.217  10.630  17.107  0.00  0.00    +0.000 A 
ATOM     11  C   UNL     1      -3.433  11.271  17.476  0.00  0.00    +0.000 A 
ATOM     12  C   UNL     1      -4.521  11.305  16.601  0.00  0.00    +0.000 A 
ATOM     13  C   UNL     1      -5.746  11.864  16.990  0.00  0.00    +0.000 A 
ATOM     14  C   UNL     1      -5.947  12.373  18.286  0.00  0.00    +0.000 A 
ATOM     15  C   UNL     1      -7.208  12.882  18.659  0.00  0.00    +0.000 A 
ATOM     16  C   UNL     1      -7.461  13.340  19.951  0.00  0.00    +0.000 A 
ATOM     17  C   UNL     1      -6.482  13.241  20.904  0.00  0.00    +0.000 A 
ATOM     18  C   UNL     1      -5.244  12.710  20.555  0.00  0.00    +0.000 A 
ATOM     19  C   UNL     1      -4.895  12.334  19.224  0.00  0.00    +0.000 A 
ATOM     20  C   UNL     1      -3.617  11.847  18.778  0.00  0.00    +0.000 A 
ENDROOT
BRANCH   1  22
ATOM     21  O   UNL     1      -0.433  10.773  23.404  0.00  0.00    +0.000 OA
ATOM     22  N   UNL     1      -0.829  11.813  22.857  0.00  0.00    +0.000 N 
ATOM     23  O   UNL     1      -0.949  12.904  23.427  0.00  0.00    +0.000 OA
ENDBRANCH   1  22
TORSDOF 1
ENDMDL
MODEL 6
REMARK VINA RESULT:      -7.3      1.096      1.286
REMARK  Name = 
REMARK  1 active torsions:
REMARK  status: ('A' for Active; 'I' for Inactive)
REMARK    1  A    between atoms: N_2  and  C_4
REMARK                            x       y       z     vdW  Elec       q    Type
REMARK                         _______ _______ _______ _____ _____    ______ ____
ROOT
ATOM      1  C   UNL     1       3.869   4.092  19.572  0.00  0.00    +0.000 C 
ATOM      2  C   UNL     1       3.344   5.215  20.098  0.00  0.00    +0.000 C 
ATOM      3  C   UNL     1       3.312   6.257  19.006  0.00  0.00    +0.000 A 
ATOM      4  C   UNL     1       4.038   5.729  17.935  0.00  0.00    +0.000 A 
ATOM      5  C   UNL     1       4.385   4.400  18.197  0.00  0.00    +0.000 A 
ATOM      6  C   UNL     1       5.078   3.656  17.248  0.00  0.00    +0.000 A 
ATOM      7  C   UNL     1       5.456   4.338  16.075  0.00  0.00    +0.000 A 
ATOM      8  C   UNL     1       5.096   5.684  15.837  0.00  0.00    +0.000 A 
ATOM      9  C   UNL     1       4.335   6.399  16.786  0.00  0.00    +0.000 A 
ATOM     10  C   UNL     1       3.834   7.712  16.694  0.00  0.00    +0.000 A 
ATOM     11  C   UNL     1       2.987   8.243  17.708  0.00  0.00    +0.000 A 
ATOM     12  C   UNL     1       2.386   9.494  17.557  0.00  0.00    +0.000 A 
ATOM     13  C   UNL     1       1.488   9.986  18.516  0.00  0.00    +0.000 A 
ATOM     14  C   UNL     1       1.124   9.228  19.643  0.00  0.00    +0.000 A 
ATOM     15  C   UNL     1       0.179   9.734  20.560  0.00  0.00    +0.000 A 
ATOM     16  C   UNL     1      -0.250   8.988  21.657  0.00  0.00    +0.000 A 
ATOM     17  C   UNL     1       0.207   7.706  21.820  0.00  0.00    +0.000 A 
ATOM     18  C   UNL     1       1.115   7.186  20.903  0.00  0.00    +0.000 A 
ATOM     19  C   UNL     1       1.673   7.943  19.831  0.00  0.00    +0.000 A 
ATOM     20  C   UNL     1       2.665   7.495  18.890  0.00  0.00    +0.000 A 
ENDROOT
BRANCH   1  22
ATOM     21  O   UNL     1       2.462   2.546  20.541  0.00  0.00    +0.000 OA
ATOM     22  N   UNL     1       3.631   2.845  20.254  0.00  0.00    +0.000 N 
ATOM     23  O   UNL     1       4.610   2.112  20.442  0.00  0.00    +0.000 OA
ENDBRANCH   1  22
TORSDOF 1
ENDMDL
MODEL 7
REMARK VINA RESULT:      -7.2      9.190     10.041
REMARK  Name = 
REMARK  1 active torsions:
REMARK  status: ('A' for Active; 'I' for Inactive)
REMARK    1  A    between atoms: N_2  and  C_4
REMARK                            x       y       z     vdW  Elec       q    Type
REMARK                         _______ _______ _______ _____ _____    ______ ____
ROOT
ATOM      1  C   UNL     1       9.468  10.681  19.234  0.00  0.00    +0.000 C 
ATOM      2  C   UNL     1       9.239  10.955  20.532  0.00  0.00    +0.000 C 
ATOM      3  C   UNL     1       9.681  12.377  20.782  0.00  0.00    +0.000 A 
ATOM      4  C   UNL     1      10.356  12.789  19.630  0.00  0.00    +0.000 A 
ATOM      5  C   UNL     1      10.242  11.816  18.631  0.00  0.00    +0.000 A 
ATOM      6  C   UNL     1      10.803  12.031  17.377  0.00  0.00    +0.000 A 
ATOM      7  C   UNL     1      11.533  13.225  17.215  0.00  0.00    +0.000 A 
ATOM      8  C   UNL     1      11.636  14.189  18.244  0.00  0.00    +0.000 A 
ATOM      9  C   UNL     1      11.002  13.980  19.486  0.00  0.00    +0.000 A 
ATOM     10  C   UNL     1      10.942  14.848  20.593  0.00  0.00    +0.000 A 
ATOM     11  C   UNL     1      10.162  14.518  21.738  0.00  0.00    +0.000 A 
ATOM     12  C   UNL     1       9.996  15.433  22.780  0.00  0.00    +0.000 A 
ATOM     13  C   UNL     1       9.164  15.144  23.871  0.00  0.00    +0.000 A 
ATOM     14  C   UNL     1       8.432  13.946  23.944  0.00  0.00    +0.000 A 
ATOM     15  C   UNL     1       7.565  13.711  25.032  0.00  0.00    +0.000 A 
ATOM     16  C   UNL     1       6.779  12.562  25.108  0.00  0.00    +0.000 A 
ATOM     17  C   UNL     1       6.797  11.664  24.073  0.00  0.00    +0.000 A 
ATOM     18  C   UNL     1       7.624  11.902  22.980  0.00  0.00    +0.000 A 
ATOM     19  C   UNL     1       8.532  12.999  22.904  0.00  0.00    +0.000 A 
ATOM     20  C   UNL     1       9.464  13.269  21.841  0.00  0.00    +0.000 A 
ENDROOT
BRANCH   1  22
ATOM     21  O   UNL     1       8.950   8.439  19.113  0.00  0.00    +0.000 OA
ATOM     22  N   UNL     1       8.768   9.571  18.638  0.00  0.00    +0.000 N 
ATOM     23  O   UNL     1       7.967   9.832  17.733  0.00  0.00    +0.000 OA
ENDBRANCH   1  22
TORSDOF 1
ENDMDL
MODEL 8
REMARK VINA RESULT:      -7.1      6.091      8.272
REMARK  Name = 
REMARK  1 active torsions:
REMARK  status: ('A' for Active; 'I' for Inactive)
REMARK    1  A    between atoms: N_2  and  C_4
REMARK                            x       y       z     vdW  Elec       q    Type
REMARK                         _______ _______ _______ _____ _____    ______ ____
ROOT
ATOM      1  C   UNL     1      -1.103  10.839  18.962  0.00  0.00    +0.000 C 
ATOM      2  C   UNL     1      -1.654  11.687  19.850  0.00  0.00    +0.000 C 
ATOM      3  C   UNL     1      -3.076  11.943  19.412  0.00  0.00    +0.000 A 
ATOM      4  C   UNL     1      -3.205  11.379  18.140  0.00  0.00    +0.000 A 
ATOM      5  C   UNL     1      -2.050  10.663  17.812  0.00  0.00    +0.000 A 
ATOM      6  C   UNL     1      -1.970   9.978  16.604  0.00  0.00    +0.000 A 
ATOM      7  C   UNL     1      -3.069  10.114  15.734  0.00  0.00    +0.000 A 
ATOM      8  C   UNL     1      -4.224  10.849  16.090  0.00  0.00    +0.000 A 
ATOM      9  C   UNL     1      -4.310  11.480  17.348  0.00  0.00    +0.000 A 
ATOM     10  C   UNL     1      -5.394  12.193  17.896  0.00  0.00    +0.000 A 
ATOM     11  C   UNL     1      -5.348  12.677  19.234  0.00  0.00    +0.000 A 
ATOM     12  C   UNL     1      -6.469  13.269  19.821  0.00  0.00    +0.000 A 
ATOM     13  C   UNL     1      -6.453  13.674  21.163  0.00  0.00    +0.000 A 
ATOM     14  C   UNL     1      -5.331  13.466  21.984  0.00  0.00    +0.000 A 
ATOM     15  C   UNL     1      -5.370  13.840  23.344  0.00  0.00    +0.000 A 
ATOM     16  C   UNL     1      -4.299  13.596  24.203  0.00  0.00    +0.000 A 
ATOM     17  C   UNL     1      -3.202  12.920  23.735  0.00  0.00    +0.000 A 
ATOM     18  C   UNL     1      -3.168  12.517  22.404  0.00  0.00    +0.000 A 
ATOM     19  C   UNL     1      -4.182  12.841  21.456  0.00  0.00    +0.000 A 
ATOM     20  C   UNL     1      -4.180  12.521  20.053  0.00  0.00    +0.000 A 
ENDROOT
BRANCH   1  22
ATOM     21  O   UNL     1       0.062   9.514  20.445  0.00  0.00    +0.000 OA
ATOM     22  N   UNL     1       0.077  10.110  19.357  0.00  0.00    +0.000 N 
ATOM     23  O   UNL     1       1.007  10.065  18.544  0.00  0.00    +0.000 OA
ENDBRANCH   1  22
TORSDOF 1
ENDMDL
MODEL 9
REMARK VINA RESULT:      -6.8      6.065      8.642
REMARK  Name = 
REMARK  1 active torsions:
REMARK  status: ('A' for Active; 'I' for Inactive)
REMARK    1  A    between atoms: N_2  and  C_4
REMARK                            x       y       z     vdW  Elec       q    Type
REMARK                         _______ _______ _______ _____ _____    ______ ____
ROOT
ATOM      1  C   UNL     1      -1.163  12.128  20.655  0.00  0.00    +0.000 C 
ATOM      2  C   UNL     1      -2.318  12.770  20.911  0.00  0.00    +0.000 C 
ATOM      3  C   UNL     1      -3.351  12.256  19.937  0.00  0.00    +0.000 A 
ATOM      4  C   UNL     1      -2.661  11.476  19.005  0.00  0.00    +0.000 A 
ATOM      5  C   UNL     1      -1.325  11.330  19.395  0.00  0.00    +0.000 A 
ATOM      6  C   UNL     1      -0.456  10.553  18.637  0.00  0.00    +0.000 A 
ATOM      7  C   UNL     1      -0.979  10.005  17.450  0.00  0.00    +0.000 A 
ATOM      8  C   UNL     1      -2.333  10.173  17.077  0.00  0.00    +0.000 A 
ATOM      9  C   UNL     1      -3.214  10.909  17.896  0.00  0.00    +0.000 A 
ATOM     10  C   UNL     1      -4.595  11.125  17.721  0.00  0.00    +0.000 A 
ATOM     11  C   UNL     1      -5.358  11.809  18.710  0.00  0.00    +0.000 A 
ATOM     12  C   UNL     1      -6.746  11.910  18.600  0.00  0.00    +0.000 A 
ATOM     13  C   UNL     1      -7.510  12.512  19.611  0.00  0.00    +0.000 A 
ATOM     14  C   UNL     1      -6.920  12.999  20.791  0.00  0.00    +0.000 A 
ATOM     15  C   UNL     1      -7.725  13.552  21.808  0.00  0.00    +0.000 A 
ATOM     16  C   UNL     1      -7.183  13.991  23.016  0.00  0.00    +0.000 A 
ATOM     17  C   UNL     1      -5.843  13.827  23.250  0.00  0.00    +0.000 A 
ATOM     18  C   UNL     1      -5.045  13.253  22.266  0.00  0.00    +0.000 A 
ATOM     19  C   UNL     1      -5.526  12.893  20.973  0.00  0.00    +0.000 A 
ATOM     20  C   UNL     1      -4.747  12.362  19.885  0.00  0.00    +0.000 A 
ENDROOT
BRANCH   1  22
ATOM     21  O   UNL     1      -0.451  11.666  22.797  0.00  0.00    +0.000 OA
ATOM     22  N   UNL     1      -0.150  12.114  21.680  0.00  0.00    +0.000 N 
ATOM     23  O   UNL     1       0.985  12.481  21.353  0.00  0.00    +0.000 OA
ENDBRANCH   1  22
TORSDOF 1
ENDMDL
