MODEL 1
REMARK VINA RESULT:      -7.5      0.000      0.000
REMARK  Name = 
REMARK  13 active torsions:
REMARK  status: ('A' for Active; 'I' for Inactive)
REMARK    1  A    between atoms: C_1  and  N_2
REMARK    2  A    between atoms: N_2  and  C_3
REMARK    3  A    between atoms: N_2  and  C_16
REMARK    4  A    between atoms: C_3  and  C_4
REMARK    5  A    between atoms: C_4  and  C_5
REMARK    6  A    between atoms: C_5  and  O_6
REMARK    7  A    between atoms: O_6  and  C_7
REMARK    8  A    between atoms: C_10  and  N_11
REMARK    9  A    between atoms: C_16  and  C_17
REMARK   10  A    between atoms: C_17  and  O_18
REMARK   11  A    between atoms: C_17  and  C_19
REMARK   12  A    between atoms: C_17  and  C_25
REMARK   13  A    between atoms: C_19  and  N_20
REMARK                            x       y       z     vdW  Elec       q    Type
REMARK                         _______ _______ _______ _____ _____    ______ ____
ROOT
ATOM      1  C   UNL     1       3.302   5.526  18.400  0.00  0.00    +0.000 C 
ENDROOT
BRANCH   1   2
ATOM      2  C   UNL     1       2.615   4.626  19.441  0.00  0.00    +0.000 A 
ATOM      3  C   UNL     1       3.107   4.498  20.758  0.00  0.00    +0.000 A 
ATOM      4  C   UNL     1       2.468   3.678  21.694  0.00  0.00    +0.000 A 
ATOM      5  C   UNL     1       1.346   2.955  21.317  0.00  0.00    +0.000 A 
ATOM      6  F   UNL     1       0.714   2.201  22.225  0.00  0.00    +0.000 F 
ATOM      7  C   UNL     1       0.853   3.032  20.025  0.00  0.00    +0.000 A 
ATOM      8  C   UNL     1       1.487   3.860  19.102  0.00  0.00    +0.000 A 
ATOM      9  F   UNL     1       0.983   3.901  17.861  0.00  0.00    +0.000 F 
ENDBRANCH   1   2
BRANCH   1  10
ATOM     10  O   UNL     1       3.611   4.782  17.215  0.00  0.00    +0.000 OA
ATOM     11  H   UNL     1       2.910   4.119  17.084  0.00  0.00    +0.000 HD
ENDBRANCH   1  10
BRANCH   1  12
ATOM     12  C   UNL     1       2.433   6.776  17.980  0.00  0.00    +0.000 C 
BRANCH  12  14
ATOM     13  C   UNL     1       1.755   9.080  18.187  0.00  0.00    +0.000 C 
ATOM     14  N   UNL     1       2.420   7.964  18.894  0.00  0.00    +0.000 NA
BRANCH  14  15
ATOM     15  C   UNL     1       1.703   7.782  20.185  0.00  0.00    +0.000 C 
BRANCH  15  16
ATOM     16  C   UNL     1       0.703   8.833  20.681  0.00  0.00    +0.000 C 
BRANCH  16  17
ATOM     17  C   UNL     1       1.096   9.556  21.963  0.00  0.00    +0.000 C 
BRANCH  17  18
ATOM     18  O   UNL     1       1.014  10.962  21.693  0.00  0.00    +0.000 OA
BRANCH  18  19
ATOM     19  C   UNL     1      -0.227  11.531  21.724  0.00  0.00    +0.000 A 
ATOM     20  C   UNL     1      -0.931  11.340  22.916  0.00  0.00    +0.000 A 
ATOM     21  C   UNL     1      -2.229  11.837  23.064  0.00  0.00    +0.000 A 
ATOM     22  C   UNL     1      -2.805  12.568  22.018  0.00  0.00    +0.000 A 
ATOM     23  C   UNL     1      -2.085  12.812  20.844  0.00  0.00    +0.000 A 
ATOM     24  C   UNL     1      -0.804  12.275  20.695  0.00  0.00    +0.000 A 
BRANCH  22  25
ATOM     25  N   UNL     1      -4.179  13.065  22.144  0.00  0.00    +0.000 N 
ATOM     26  O   UNL     1      -4.360  14.288  22.061  0.00  0.00    +0.000 OA
ATOM     27  O   UNL     1      -5.077  12.233  22.340  0.00  0.00    +0.000 OA
ENDBRANCH  22  25
ENDBRANCH  18  19
ENDBRANCH  17  18
ENDBRANCH  16  17
ENDBRANCH  15  16
ENDBRANCH  14  15
ENDBRANCH  12  14
ENDBRANCH   1  12
BRANCH   1  28
ATOM     28  C   UNL     1       4.684   5.891  19.003  0.00  0.00    +0.000 C 
BRANCH  28  29
ATOM     29  N   UNL     1       5.780   5.670  18.084  0.00  0.00    +0.000 N 
ATOM     30  C   UNL     1       6.299   6.549  17.181  0.00  0.00    +0.000 A 
ATOM     31  N   UNL     1       7.349   6.007  16.608  0.00  0.00    +0.000 NA
ATOM     32  C   UNL     1       7.415   4.772  17.185  0.00  0.00    +0.000 A 
ATOM     33  N   UNL     1       6.483   4.523  18.112  0.00  0.00    +0.000 NA
ENDBRANCH  28  29
ENDBRANCH   1  28
TORSDOF 12
ENDMDL
MODEL 2
REMARK VINA RESULT:      -7.2      2.540      4.505
REMARK  Name = 
REMARK  13 active torsions:
REMARK  status: ('A' for Active; 'I' for Inactive)
REMARK    1  A    between atoms: C_1  and  N_2
REMARK    2  A    between atoms: N_2  and  C_3
REMARK    3  A    between atoms: N_2  and  C_16
REMARK    4  A    between atoms: C_3  and  C_4
REMARK    5  A    between atoms: C_4  and  C_5
REMARK    6  A    between atoms: C_5  and  O_6
REMARK    7  A    between atoms: O_6  and  C_7
REMARK    8  A    between atoms: C_10  and  N_11
REMARK    9  A    between atoms: C_16  and  C_17
REMARK   10  A    between atoms: C_17  and  O_18
REMARK   11  A    between atoms: C_17  and  C_19
REMARK   12  A    between atoms: C_17  and  C_25
REMARK   13  A    between atoms: C_19  and  N_20
REMARK                            x       y       z     vdW  Elec       q    Type
REMARK                         _______ _______ _______ _____ _____    ______ ____
ROOT
ATOM      1  C   UNL     1       3.742   4.982  18.322  0.00  0.00    +0.000 C 
ENDROOT
BRANCH   1   2
ATOM      2  C   UNL     1       4.794   4.963  17.202  0.00  0.00    +0.000 A 
ATOM      3  C   UNL     1       4.926   3.867  16.321  0.00  0.00    +0.000 A 
ATOM      4  C   UNL     1       5.887   3.867  15.304  0.00  0.00    +0.000 A 
ATOM      5  C   UNL     1       6.744   4.949  15.172  0.00  0.00    +0.000 A 
ATOM      6  F   UNL     1       7.637   4.965  14.174  0.00  0.00    +0.000 F 
ATOM      7  C   UNL     1       6.664   6.028  16.037  0.00  0.00    +0.000 A 
ATOM      8  C   UNL     1       5.698   6.027  17.040  0.00  0.00    +0.000 A 
ATOM      9  F   UNL     1       5.657   7.085  17.861  0.00  0.00    +0.000 F 
ENDBRANCH   1   2
BRANCH   1  10
ATOM     10  O   UNL     1       4.357   5.249  19.589  0.00  0.00    +0.000 OA
ATOM     11  H   UNL     1       4.895   6.056  19.498  0.00  0.00    +0.000 HD
ENDBRANCH   1  10
BRANCH   1  12
ATOM     12  C   UNL     1       2.603   6.052  18.097  0.00  0.00    +0.000 C 
BRANCH  12  14
ATOM     13  C   UNL     1       2.375   8.436  17.823  0.00  0.00    +0.000 C 
ATOM     14  N   UNL     1       2.731   7.375  18.790  0.00  0.00    +0.000 NA
BRANCH  14  15
ATOM     15  C   UNL     1       1.863   7.568  19.983  0.00  0.00    +0.000 C 
BRANCH  15  16
ATOM     16  C   UNL     1       1.269   8.945  20.304  0.00  0.00    +0.000 C 
BRANCH  16  17
ATOM     17  C   UNL     1       0.663   9.087  21.694  0.00  0.00    +0.000 C 
BRANCH  17  18
ATOM     18  O   UNL     1       0.682  10.485  22.019  0.00  0.00    +0.000 OA
BRANCH  18  19
ATOM     19  C   UNL     1      -0.522  11.124  22.090  0.00  0.00    +0.000 A 
ATOM     20  C   UNL     1      -0.948  11.708  20.894  0.00  0.00    +0.000 A 
ATOM     21  C   UNL     1      -2.146  12.427  20.840  0.00  0.00    +0.000 A 
ATOM     22  C   UNL     1      -2.938  12.523  21.990  0.00  0.00    +0.000 A 
ATOM     23  C   UNL     1      -2.546  11.895  23.176  0.00  0.00    +0.000 A 
ATOM     24  C   UNL     1      -1.327  11.213  23.225  0.00  0.00    +0.000 A 
BRANCH  22  25
ATOM     25  N   UNL     1      -4.179  13.305  21.959  0.00  0.00    +0.000 N 
ATOM     26  O   UNL     1      -4.965  13.178  22.908  0.00  0.00    +0.000 OA
ATOM     27  O   UNL     1      -4.374  14.036  20.977  0.00  0.00    +0.000 OA
ENDBRANCH  22  25
ENDBRANCH  18  19
ENDBRANCH  17  18
ENDBRANCH  16  17
ENDBRANCH  15  16
ENDBRANCH  14  15
ENDBRANCH  12  14
ENDBRANCH   1  12
BRANCH   1  28
ATOM     28  C   UNL     1       3.224   3.524  18.442  0.00  0.00    +0.000 C 
BRANCH  28  29
ATOM     29  N   UNL     1       2.570   3.256  19.705  0.00  0.00    +0.000 N 
ATOM     30  C   UNL     1       1.238   3.319  19.982  0.00  0.00    +0.000 A 
ATOM     31  N   UNL     1       1.034   2.906  21.212  0.00  0.00    +0.000 NA
ATOM     32  C   UNL     1       2.292   2.621  21.656  0.00  0.00    +0.000 A 
ATOM     33  N   UNL     1       3.270   2.802  20.761  0.00  0.00    +0.000 NA
ENDBRANCH  28  29
ENDBRANCH   1  28
TORSDOF 12
ENDMDL
MODEL 3
REMARK VINA RESULT:      -7.1      1.019      1.457
REMARK  Name = 
REMARK  13 active torsions:
REMARK  status: ('A' for Active; 'I' for Inactive)
REMARK    1  A    between atoms: C_1  and  N_2
REMARK    2  A    between atoms: N_2  and  C_3
REMARK    3  A    between atoms: N_2  and  C_16
REMARK    4  A    between atoms: C_3  and  C_4
REMARK    5  A    between atoms: C_4  and  C_5
REMARK    6  A    between atoms: C_5  and  O_6
REMARK    7  A    between atoms: O_6  and  C_7
REMARK    8  A    between atoms: C_10  and  N_11
REMARK    9  A    between atoms: C_16  and  C_17
REMARK   10  A    between atoms: C_17  and  O_18
REMARK   11  A    between atoms: C_17  and  C_19
REMARK   12  A    between atoms: C_17  and  C_25
REMARK   13  A    between atoms: C_19  and  N_20
REMARK                            x       y       z     vdW  Elec       q    Type
REMARK                         _______ _______ _______ _____ _____    ______ ____
ROOT
ATOM      1  C   UNL     1       3.388   5.185  18.383  0.00  0.00    +0.000 C 
ENDROOT
BRANCH   1   2
ATOM      2  C   UNL     1       2.812   4.267  19.472  0.00  0.00    +0.000 A 
ATOM      3  C   UNL     1       1.501   4.430  19.969  0.00  0.00    +0.000 A 
ATOM      4  C   UNL     1       0.990   3.583  20.958  0.00  0.00    +0.000 A 
ATOM      5  C   UNL     1       1.793   2.581  21.482  0.00  0.00    +0.000 A 
ATOM      6  F   UNL     1       1.289   1.747  22.402  0.00  0.00    +0.000 F 
ATOM      7  C   UNL     1       3.094   2.411  21.042  0.00  0.00    +0.000 A 
ATOM      8  C   UNL     1       3.593   3.250  20.048  0.00  0.00    +0.000 A 
ATOM      9  F   UNL     1       4.859   3.057  19.654  0.00  0.00    +0.000 F 
ENDBRANCH   1   2
BRANCH   1  10
ATOM     10  O   UNL     1       3.696   4.435  17.200  0.00  0.00    +0.000 OA
ATOM     11  H   UNL     1       4.059   3.574  17.476  0.00  0.00    +0.000 HD
ENDBRANCH   1  10
BRANCH   1  12
ATOM     12  C   UNL     1       2.418   6.363  17.976  0.00  0.00    +0.000 C 
BRANCH  12  14
ATOM     13  C   UNL     1       2.218   8.747  17.682  0.00  0.00    +0.000 C 
ATOM     14  N   UNL     1       2.604   7.692  18.644  0.00  0.00    +0.000 NA
BRANCH  14  15
ATOM     15  C   UNL     1       1.802   7.916  19.878  0.00  0.00    +0.000 C 
BRANCH  15  16
ATOM     16  C   UNL     1       1.165   9.282  20.159  0.00  0.00    +0.000 C 
BRANCH  16  17
ATOM     17  C   UNL     1       0.789   9.540  21.613  0.00  0.00    +0.000 C 
BRANCH  17  18
ATOM     18  O   UNL     1       0.653  10.960  21.765  0.00  0.00    +0.000 OA
BRANCH  18  19
ATOM     19  C   UNL     1      -0.609  11.451  21.936  0.00  0.00    +0.000 A 
ATOM     20  C   UNL     1      -1.198  11.974  20.782  0.00  0.00    +0.000 A 
ATOM     21  C   UNL     1      -2.473  12.544  20.829  0.00  0.00    +0.000 A 
ATOM     22  C   UNL     1      -3.176  12.549  22.039  0.00  0.00    +0.000 A 
ATOM     23  C   UNL     1      -2.617  11.977  23.187  0.00  0.00    +0.000 A 
ATOM     24  C   UNL     1      -1.325  11.446  23.133  0.00  0.00    +0.000 A 
BRANCH  22  25
ATOM     25  N   UNL     1      -4.500  13.176  22.113  0.00  0.00    +0.000 N 
ATOM     26  O   UNL     1      -4.656  14.101  22.922  0.00  0.00    +0.000 OA
ATOM     27  O   UNL     1      -5.389  12.732  21.372  0.00  0.00    +0.000 OA
ENDBRANCH  22  25
ENDBRANCH  18  19
ENDBRANCH  17  18
ENDBRANCH  16  17
ENDBRANCH  15  16
ENDBRANCH  14  15
ENDBRANCH  12  14
ENDBRANCH   1  12
BRANCH   1  28
ATOM     28  C   UNL     1       4.768   5.659  18.913  0.00  0.00    +0.000 C 
BRANCH  28  29
ATOM     29  N   UNL     1       5.793   5.676  17.891  0.00  0.00    +0.000 N 
ATOM     30  C   UNL     1       6.270   6.755  17.210  0.00  0.00    +0.000 A 
ATOM     31  N   UNL     1       7.266   6.373  16.443  0.00  0.00    +0.000 NA
ATOM     32  C   UNL     1       7.341   5.031  16.677  0.00  0.00    +0.000 A 
ATOM     33  N   UNL     1       6.469   4.556  17.573  0.00  0.00    +0.000 NA
ENDBRANCH  28  29
ENDBRANCH   1  28
TORSDOF 12
ENDMDL
MODEL 4
REMARK VINA RESULT:      -7.1      2.233      2.671
REMARK  Name = 
REMARK  13 active torsions:
REMARK  status: ('A' for Active; 'I' for Inactive)
REMARK    1  A    between atoms: C_1  and  N_2
REMARK    2  A    between atoms: N_2  and  C_3
REMARK    3  A    between atoms: N_2  and  C_16
REMARK    4  A    between atoms: C_3  and  C_4
REMARK    5  A    between atoms: C_4  and  C_5
REMARK    6  A    between atoms: C_5  and  O_6
REMARK    7  A    between atoms: O_6  and  C_7
REMARK    8  A    between atoms: C_10  and  N_11
REMARK    9  A    between atoms: C_16  and  C_17
REMARK   10  A    between atoms: C_17  and  O_18
REMARK   11  A    between atoms: C_17  and  C_19
REMARK   12  A    between atoms: C_17  and  C_25
REMARK   13  A    between atoms: C_19  and  N_20
REMARK                            x       y       z     vdW  Elec       q    Type
REMARK                         _______ _______ _______ _____ _____    ______ ____
ROOT
ATOM      1  C   UNL     1       4.032   3.961  18.172  0.00  0.00    +0.000 C 
ENDROOT
BRANCH   1   2
ATOM      2  C   UNL     1       3.116   3.519  19.325  0.00  0.00    +0.000 A 
ATOM      3  C   UNL     1       3.631   2.969  20.519  0.00  0.00    +0.000 A 
ATOM      4  C   UNL     1       2.784   2.575  21.560  0.00  0.00    +0.000 A 
ATOM      5  C   UNL     1       1.411   2.700  21.409  0.00  0.00    +0.000 A 
ATOM      6  F   UNL     1       0.604   2.358  22.422  0.00  0.00    +0.000 F 
ATOM      7  C   UNL     1       0.869   3.206  20.240  0.00  0.00    +0.000 A 
ATOM      8  C   UNL     1       1.718   3.608  19.212  0.00  0.00    +0.000 A 
ATOM      9  F   UNL     1       1.153   4.086  18.095  0.00  0.00    +0.000 F 
ENDBRANCH   1   2
BRANCH   1  10
ATOM     10  O   UNL     1       4.176   2.909  17.209  0.00  0.00    +0.000 OA
ATOM     11  H   UNL     1       4.674   3.262  16.450  0.00  0.00    +0.000 HD
ENDBRANCH   1  10
BRANCH   1  12
ATOM     12  C   UNL     1       3.515   5.247  17.416  0.00  0.00    +0.000 C 
BRANCH  12  14
ATOM     13  C   UNL     1       4.191   7.534  17.059  0.00  0.00    +0.000 C 
ATOM     14  N   UNL     1       3.706   6.579  18.078  0.00  0.00    +0.000 NA
BRANCH  14  15
ATOM     15  C   UNL     1       2.489   7.180  18.690  0.00  0.00    +0.000 C 
BRANCH  15  16
ATOM     16  C   UNL     1       2.084   8.624  18.371  0.00  0.00    +0.000 C 
BRANCH  16  17
ATOM     17  C   UNL     1       1.040   9.230  19.299  0.00  0.00    +0.000 C 
BRANCH  17  18
ATOM     18  O   UNL     1       0.671  10.500  18.743  0.00  0.00    +0.000 OA
BRANCH  18  19
ATOM     19  C   UNL     1      -0.653  10.704  18.480  0.00  0.00    +0.000 A 
ATOM     20  C   UNL     1      -1.268  11.672  19.278  0.00  0.00    +0.000 A 
ATOM     21  C   UNL     1      -2.631  11.949  19.138  0.00  0.00    +0.000 A 
ATOM     22  C   UNL     1      -3.369  11.275  18.159  0.00  0.00    +0.000 A 
ATOM     23  C   UNL     1      -2.748  10.345  17.318  0.00  0.00    +0.000 A 
ATOM     24  C   UNL     1      -1.394  10.050  17.497  0.00  0.00    +0.000 A 
BRANCH  22  25
ATOM     25  N   UNL     1      -4.808  11.528  18.024  0.00  0.00    +0.000 N 
ATOM     26  O   UNL     1      -5.257  11.706  16.884  0.00  0.00    +0.000 OA
ATOM     27  O   UNL     1      -5.485  11.563  19.061  0.00  0.00    +0.000 OA
ENDBRANCH  22  25
ENDBRANCH  18  19
ENDBRANCH  17  18
ENDBRANCH  16  17
ENDBRANCH  15  16
ENDBRANCH  14  15
ENDBRANCH  12  14
ENDBRANCH   1  12
BRANCH   1  28
ATOM     28  C   UNL     1       5.446   4.119  18.791  0.00  0.00    +0.000 C 
BRANCH  28  29
ATOM     29  N   UNL     1       6.338   4.911  17.973  0.00  0.00    +0.000 N 
ATOM     30  C   UNL     1       6.605   4.760  16.645  0.00  0.00    +0.000 A 
ATOM     31  N   UNL     1       7.387   5.738  16.249  0.00  0.00    +0.000 NA
ATOM     32  C   UNL     1       7.591   6.455  17.392  0.00  0.00    +0.000 A 
ATOM     33  N   UNL     1       6.953   5.998  18.476  0.00  0.00    +0.000 NA
ENDBRANCH  28  29
ENDBRANCH   1  28
TORSDOF 12
ENDMDL
MODEL 5
REMARK VINA RESULT:      -7.1      6.224      8.722
REMARK  Name = 
REMARK  13 active torsions:
REMARK  status: ('A' for Active; 'I' for Inactive)
REMARK    1  A    between atoms: C_1  and  N_2
REMARK    2  A    between atoms: N_2  and  C_3
REMARK    3  A    between atoms: N_2  and  C_16
REMARK    4  A    between atoms: C_3  and  C_4
REMARK    5  A    between atoms: C_4  and  C_5
REMARK    6  A    between atoms: C_5  and  O_6
REMARK    7  A    between atoms: O_6  and  C_7
REMARK    8  A    between atoms: C_10  and  N_11
REMARK    9  A    between atoms: C_16  and  C_17
REMARK   10  A    between atoms: C_17  and  O_18
REMARK   11  A    between atoms: C_17  and  C_19
REMARK   12  A    between atoms: C_17  and  C_25
REMARK   13  A    between atoms: C_19  and  N_20
REMARK                            x       y       z     vdW  Elec       q    Type
REMARK                         _______ _______ _______ _____ _____    ______ ____
ROOT
ATOM      1  C   UNL     1       5.753   5.386  16.031  0.00  0.00    +0.000 C 
ENDROOT
BRANCH   1   2
ATOM      2  C   UNL     1       4.667   5.171  17.097  0.00  0.00    +0.000 A 
ATOM      3  C   UNL     1       4.416   3.901  17.660  0.00  0.00    +0.000 A 
ATOM      4  C   UNL     1       3.427   3.722  18.632  0.00  0.00    +0.000 A 
ATOM      5  C   UNL     1       2.657   4.804  19.033  0.00  0.00    +0.000 A 
ATOM      6  F   UNL     1       1.736   4.639  19.991  0.00  0.00    +0.000 F 
ATOM      7  C   UNL     1       2.854   6.058  18.479  0.00  0.00    +0.000 A 
ATOM      8  C   UNL     1       3.849   6.232  17.521  0.00  0.00    +0.000 A 
ATOM      9  F   UNL     1       4.003   7.459  17.005  0.00  0.00    +0.000 F 
ENDBRANCH   1   2
BRANCH   1  10
ATOM     10  O   UNL     1       5.281   6.261  14.998  0.00  0.00    +0.000 OA
ATOM     11  H   UNL     1       6.055   6.596  14.510  0.00  0.00    +0.000 HD
ENDBRANCH   1  10
BRANCH   1  12
ATOM     12  C   UNL     1       7.091   5.992  16.610  0.00  0.00    +0.000 C 
BRANCH  12  14
ATOM     13  C   UNL     1       7.813   6.005  18.910  0.00  0.00    +0.000 C 
ATOM     14  N   UNL     1       7.021   6.745  17.905  0.00  0.00    +0.000 NA
BRANCH  14  15
ATOM     15  C   UNL     1       7.551   8.136  17.875  0.00  0.00    +0.000 C 
BRANCH  15  16
ATOM     16  C   UNL     1       8.789   8.520  18.695  0.00  0.00    +0.000 C 
BRANCH  16  17
ATOM     17  C   UNL     1       8.886   9.990  19.082  0.00  0.00    +0.000 C 
BRANCH  17  18
ATOM     18  O   UNL     1       8.943  10.742  17.862  0.00  0.00    +0.000 OA
BRANCH  18  19
ATOM     19  C   UNL     1       9.627  11.923  17.889  0.00  0.00    +0.000 A 
ATOM     20  C   UNL     1       8.824  13.067  17.904  0.00  0.00    +0.000 A 
ATOM     21  C   UNL     1       9.399  14.340  17.892  0.00  0.00    +0.000 A 
ATOM     22  C   UNL     1      10.793  14.461  17.907  0.00  0.00    +0.000 A 
ATOM     23  C   UNL     1      11.604  13.322  17.950  0.00  0.00    +0.000 A 
ATOM     24  C   UNL     1      11.015  12.055  17.921  0.00  0.00    +0.000 A 
BRANCH  22  25
ATOM     25  N   UNL     1      11.412  15.791  17.859  0.00  0.00    +0.000 N 
ATOM     26  O   UNL     1      12.304  15.981  17.020  0.00  0.00    +0.000 OA
ATOM     27  O   UNL     1      11.016  16.640  18.670  0.00  0.00    +0.000 OA
ENDBRANCH  22  25
ENDBRANCH  18  19
ENDBRANCH  17  18
ENDBRANCH  16  17
ENDBRANCH  15  16
ENDBRANCH  14  15
ENDBRANCH  12  14
ENDBRANCH   1  12
BRANCH   1  28
ATOM     28  C   UNL     1       5.935   4.015  15.326  0.00  0.00    +0.000 C 
BRANCH  28  29
ATOM     29  N   UNL     1       6.469   4.132  13.987  0.00  0.00    +0.000 N 
ATOM     30  C   UNL     1       6.044   3.490  12.863  0.00  0.00    +0.000 A 
ATOM     31  N   UNL     1       6.717   3.940  11.829  0.00  0.00    +0.000 NA
ATOM     32  C   UNL     1       7.569   4.849  12.386  0.00  0.00    +0.000 A 
ATOM     33  N   UNL     1       7.443   5.017  13.707  0.00  0.00    +0.000 NA
ENDBRANCH  28  29
ENDBRANCH   1  28
TORSDOF 12
ENDMDL
MODEL 6
REMARK VINA RESULT:      -7.0      5.080      8.194
REMARK  Name = 
REMARK  13 active torsions:
REMARK  status: ('A' for Active; 'I' for Inactive)
REMARK    1  A    between atoms: C_1  and  N_2
REMARK    2  A    between atoms: N_2  and  C_3
REMARK    3  A    between atoms: N_2  and  C_16
REMARK    4  A    between atoms: C_3  and  C_4
REMARK    5  A    between atoms: C_4  and  C_5
REMARK    6  A    between atoms: C_5  and  O_6
REMARK    7  A    between atoms: O_6  and  C_7
REMARK    8  A    between atoms: C_10  and  N_11
REMARK    9  A    between atoms: C_16  and  C_17
REMARK   10  A    between atoms: C_17  and  O_18
REMARK   11  A    between atoms: C_17  and  C_19
REMARK   12  A    between atoms: C_17  and  C_25
REMARK   13  A    between atoms: C_19  and  N_20
REMARK                            x       y       z     vdW  Elec       q    Type
REMARK                         _______ _______ _______ _____ _____    ______ ____
ROOT
ATOM      1  C   UNL     1       3.668   6.114  18.344  0.00  0.00    +0.000 C 
ENDROOT
BRANCH   1   2
ATOM      2  C   UNL     1       2.743   7.187  18.939  0.00  0.00    +0.000 A 
ATOM      3  C   UNL     1       2.240   7.093  20.255  0.00  0.00    +0.000 A 
ATOM      4  C   UNL     1       1.401   8.080  20.783  0.00  0.00    +0.000 A 
ATOM      5  C   UNL     1       1.033   9.159  19.993  0.00  0.00    +0.000 A 
ATOM      6  F   UNL     1       0.261  10.122  20.513  0.00  0.00    +0.000 F 
ATOM      7  C   UNL     1       1.482   9.269  18.688  0.00  0.00    +0.000 A 
ATOM      8  C   UNL     1       2.327   8.289  18.173  0.00  0.00    +0.000 A 
ATOM      9  F   UNL     1       2.734   8.429  16.904  0.00  0.00    +0.000 F 
ENDBRANCH   1   2
BRANCH   1  10
ATOM     10  O   UNL     1       2.945   5.266  17.443  0.00  0.00    +0.000 OA
ATOM     11  H   UNL     1       3.278   5.431  16.543  0.00  0.00    +0.000 HD
ENDBRANCH   1  10
BRANCH   1  12
ATOM     12  C   UNL     1       4.905   6.713  17.566  0.00  0.00    +0.000 C 
BRANCH  12  14
ATOM     13  C   UNL     1       6.522   5.524  16.230  0.00  0.00    +0.000 C 
ATOM     14  N   UNL     1       6.198   5.955  17.607  0.00  0.00    +0.000 NA
BRANCH  14  15
ATOM     15  C   UNL     1       7.377   6.711  18.113  0.00  0.00    +0.000 C 
BRANCH  15  16
ATOM     16  C   UNL     1       7.722   8.093  17.546  0.00  0.00    +0.000 C 
BRANCH  16  17
ATOM     17  C   UNL     1       8.438   9.033  18.508  0.00  0.00    +0.000 C 
BRANCH  17  18
ATOM     18  O   UNL     1       9.166   9.976  17.708  0.00  0.00    +0.000 OA
BRANCH  18  19
ATOM     19  C   UNL     1       9.335  11.229  18.222  0.00  0.00    +0.000 A 
ATOM     20  C   UNL     1      10.195  11.302  19.321  0.00  0.00    +0.000 A 
ATOM     21  C   UNL     1      10.424  12.521  19.966  0.00  0.00    +0.000 A 
ATOM     22  C   UNL     1       9.814  13.680  19.475  0.00  0.00    +0.000 A 
ATOM     23  C   UNL     1       8.996  13.626  18.341  0.00  0.00    +0.000 A 
ATOM     24  C   UNL     1       8.746  12.394  17.731  0.00  0.00    +0.000 A 
BRANCH  22  25
ATOM     25  N   UNL     1      10.016  14.960  20.163  0.00  0.00    +0.000 N 
ATOM     26  O   UNL     1      10.914  15.023  21.014  0.00  0.00    +0.000 OA
ATOM     27  O   UNL     1       9.266  15.900  19.861  0.00  0.00    +0.000 OA
ENDBRANCH  22  25
ENDBRANCH  18  19
ENDBRANCH  17  18
ENDBRANCH  16  17
ENDBRANCH  15  16
ENDBRANCH  14  15
ENDBRANCH  12  14
ENDBRANCH   1  12
BRANCH   1  28
ATOM     28  C   UNL     1       4.056   5.186  19.526  0.00  0.00    +0.000 C 
BRANCH  28  29
ATOM     29  N   UNL     1       3.543   3.841  19.383  0.00  0.00    +0.000 N 
ATOM     30  C   UNL     1       2.432   3.308  19.963  0.00  0.00    +0.000 A 
ATOM     31  N   UNL     1       2.248   2.091  19.504  0.00  0.00    +0.000 NA
ATOM     32  C   UNL     1       3.302   1.917  18.654  0.00  0.00    +0.000 A 
ATOM     33  N   UNL     1       4.117   2.971  18.531  0.00  0.00    +0.000 NA
ENDBRANCH  28  29
ENDBRANCH   1  28
TORSDOF 12
ENDMDL
MODEL 7
REMARK VINA RESULT:      -7.0      3.583      9.629
REMARK  Name = 
REMARK  13 active torsions:
REMARK  status: ('A' for Active; 'I' for Inactive)
REMARK    1  A    between atoms: C_1  and  N_2
REMARK    2  A    between atoms: N_2  and  C_3
REMARK    3  A    between atoms: N_2  and  C_16
REMARK    4  A    between atoms: C_3  and  C_4
REMARK    5  A    between atoms: C_4  and  C_5
REMARK    6  A    between atoms: C_5  and  O_6
REMARK    7  A    between atoms: O_6  and  C_7
REMARK    8  A    between atoms: C_10  and  N_11
REMARK    9  A    between atoms: C_16  and  C_17
REMARK   10  A    between atoms: C_17  and  O_18
REMARK   11  A    between atoms: C_17  and  C_19
REMARK   12  A    between atoms: C_17  and  C_25
REMARK   13  A    between atoms: C_19  and  N_20
REMARK                            x       y       z     vdW  Elec       q    Type
REMARK                         _______ _______ _______ _____ _____    ______ ____
ROOT
ATOM      1  C   UNL     1      -0.645  11.063  19.861  0.00  0.00    +0.000 C 
ENDROOT
BRANCH   1   2
ATOM      2  C   UNL     1      -1.709  11.053  18.751  0.00  0.00    +0.000 A 
ATOM      3  C   UNL     1      -2.918  11.772  18.871  0.00  0.00    +0.000 A 
ATOM      4  C   UNL     1      -3.875  11.756  17.850  0.00  0.00    +0.000 A 
ATOM      5  C   UNL     1      -3.646  10.999  16.710  0.00  0.00    +0.000 A 
ATOM      6  F   UNL     1      -4.545  11.015  15.718  0.00  0.00    +0.000 F 
ATOM      7  C   UNL     1      -2.485  10.257  16.572  0.00  0.00    +0.000 A 
ATOM      8  C   UNL     1      -1.531  10.287  17.587  0.00  0.00    +0.000 A 
ATOM      9  F   UNL     1      -0.425   9.550  17.418  0.00  0.00    +0.000 F 
ENDBRANCH   1   2
BRANCH   1  10
ATOM     10  O   UNL     1      -1.006  11.984  20.899  0.00  0.00    +0.000 OA
ATOM     11  H   UNL     1      -1.162  12.854  20.489  0.00  0.00    +0.000 HD
ENDBRANCH   1  10
BRANCH   1  12
ATOM     12  C   UNL     1      -0.413   9.648  20.522  0.00  0.00    +0.000 C 
BRANCH  12  14
ATOM     13  C   UNL     1       0.148   9.543  22.864  0.00  0.00    +0.000 C 
ATOM     14  N   UNL     1       0.714   9.502  21.499  0.00  0.00    +0.000 NA
BRANCH  14  15
ATOM     15  C   UNL     1       1.503   8.244  21.395  0.00  0.00    +0.000 C 
BRANCH  15  16
ATOM     16  C   UNL     1       2.058   7.777  20.044  0.00  0.00    +0.000 C 
BRANCH  16  17
ATOM     17  C   UNL     1       2.437   6.303  19.968  0.00  0.00    +0.000 C 
BRANCH  17  18
ATOM     18  O   UNL     1       2.178   5.873  18.624  0.00  0.00    +0.000 OA
BRANCH  18  19
ATOM     19  C   UNL     1       3.256   5.525  17.862  0.00  0.00    +0.000 A 
ATOM     20  C   UNL     1       4.052   6.596  17.447  0.00  0.00    +0.000 A 
ATOM     21  C   UNL     1       5.164   6.380  16.629  0.00  0.00    +0.000 A 
ATOM     22  C   UNL     1       5.500   5.072  16.262  0.00  0.00    +0.000 A 
ATOM     23  C   UNL     1       4.742   3.990  16.720  0.00  0.00    +0.000 A 
ATOM     24  C   UNL     1       3.609   4.224  17.505  0.00  0.00    +0.000 A 
BRANCH  22  25
ATOM     25  N   UNL     1       6.644   4.832  15.374  0.00  0.00    +0.000 N 
ATOM     26  O   UNL     1       6.420   4.729  14.160  0.00  0.00    +0.000 OA
ATOM     27  O   UNL     1       7.765   4.733  15.894  0.00  0.00    +0.000 OA
ENDBRANCH  22  25
ENDBRANCH  18  19
ENDBRANCH  17  18
ENDBRANCH  16  17
ENDBRANCH  15  16
ENDBRANCH  14  15
ENDBRANCH  12  14
ENDBRANCH   1  12
BRANCH   1  28
ATOM     28  C   UNL     1       0.629  11.677  19.222  0.00  0.00    +0.000 C 
BRANCH  28  29
ATOM     29  N   UNL     1       1.029  12.923  19.839  0.00  0.00    +0.000 N 
ATOM     30  C   UNL     1       0.811  14.187  19.380  0.00  0.00    +0.000 A 
ATOM     31  N   UNL     1       1.237  15.050  20.274  0.00  0.00    +0.000 NA
ATOM     32  C   UNL     1       1.735  14.252  21.263  0.00  0.00    +0.000 A 
ATOM     33  N   UNL     1       1.614  12.936  21.051  0.00  0.00    +0.000 NA
ENDBRANCH  28  29
ENDBRANCH   1  28
TORSDOF 12
ENDMDL
MODEL 8
REMARK VINA RESULT:      -6.9      3.555      5.263
REMARK  Name = 
REMARK  13 active torsions:
REMARK  status: ('A' for Active; 'I' for Inactive)
REMARK    1  A    between atoms: C_1  and  N_2
REMARK    2  A    between atoms: N_2  and  C_3
REMARK    3  A    between atoms: N_2  and  C_16
REMARK    4  A    between atoms: C_3  and  C_4
REMARK    5  A    between atoms: C_4  and  C_5
REMARK    6  A    between atoms: C_5  and  O_6
REMARK    7  A    between atoms: O_6  and  C_7
REMARK    8  A    between atoms: C_10  and  N_11
REMARK    9  A    between atoms: C_16  and  C_17
REMARK   10  A    between atoms: C_17  and  O_18
REMARK   11  A    between atoms: C_17  and  C_19
REMARK   12  A    between atoms: C_17  and  C_25
REMARK   13  A    between atoms: C_19  and  N_20
REMARK                            x       y       z     vdW  Elec       q    Type
REMARK                         _______ _______ _______ _____ _____    ______ ____
ROOT
ATOM      1  C   UNL     1       3.588   5.741  18.318  0.00  0.00    +0.000 C 
ENDROOT
BRANCH   1   2
ATOM      2  C   UNL     1       4.690   5.368  17.313  0.00  0.00    +0.000 A 
ATOM      3  C   UNL     1       4.407   4.658  16.126  0.00  0.00    +0.000 A 
ATOM      4  C   UNL     1       5.420   4.330  15.219  0.00  0.00    +0.000 A 
ATOM      5  C   UNL     1       6.732   4.683  15.501  0.00  0.00    +0.000 A 
ATOM      6  F   UNL     1       7.695   4.402  14.614  0.00  0.00    +0.000 F 
ATOM      7  C   UNL     1       7.050   5.353  16.671  0.00  0.00    +0.000 A 
ATOM      8  C   UNL     1       6.035   5.688  17.563  0.00  0.00    +0.000 A 
ATOM      9  F   UNL     1       6.385   6.329  18.686  0.00  0.00    +0.000 F 
ENDBRANCH   1   2
BRANCH   1  10
ATOM     10  O   UNL     1       3.909   5.248  19.626  0.00  0.00    +0.000 OA
ATOM     11  H   UNL     1       3.582   4.332  19.691  0.00  0.00    +0.000 HD
ENDBRANCH   1  10
BRANCH   1  12
ATOM     12  C   UNL     1       3.339   7.296  18.430  0.00  0.00    +0.000 C 
BRANCH  12  14
ATOM     13  C   UNL     1       1.878   7.748  20.294  0.00  0.00    +0.000 C 
ATOM     14  N   UNL     1       1.969   7.765  18.818  0.00  0.00    +0.000 NA
BRANCH  14  15
ATOM     15  C   UNL     1       1.605   9.140  18.379  0.00  0.00    +0.000 C 
BRANCH  15  16
ATOM     16  C   UNL     1       0.797  10.066  19.295  0.00  0.00    +0.000 C 
BRANCH  16  17
ATOM     17  C   UNL     1      -0.025  11.134  18.584  0.00  0.00    +0.000 C 
BRANCH  17  18
ATOM     18  O   UNL     1      -0.967  10.450  17.746  0.00  0.00    +0.000 OA
BRANCH  18  19
ATOM     19  C   UNL     1      -2.257  10.896  17.765  0.00  0.00    +0.000 A 
ATOM     20  C   UNL     1      -2.967  10.691  16.579  0.00  0.00    +0.000 A 
ATOM     21  C   UNL     1      -4.286  11.137  16.453  0.00  0.00    +0.000 A 
ATOM     22  C   UNL     1      -4.906  11.755  17.545  0.00  0.00    +0.000 A 
ATOM     23  C   UNL     1      -4.221  11.913  18.754  0.00  0.00    +0.000 A 
ATOM     24  C   UNL     1      -2.890  11.498  18.852  0.00  0.00    +0.000 A 
BRANCH  22  25
ATOM     25  N   UNL     1      -6.277  12.261  17.417  0.00  0.00    +0.000 N 
ATOM     26  O   UNL     1      -7.169  11.675  18.045  0.00  0.00    +0.000 OA
ATOM     27  O   UNL     1      -6.464  13.237  16.676  0.00  0.00    +0.000 OA
ENDBRANCH  22  25
ENDBRANCH  18  19
ENDBRANCH  17  18
ENDBRANCH  16  17
ENDBRANCH  15  16
ENDBRANCH  14  15
ENDBRANCH  12  14
ENDBRANCH   1  12
BRANCH   1  28
ATOM     28  C   UNL     1       2.334   4.930  17.894  0.00  0.00    +0.000 C 
BRANCH  28  29
ATOM     29  N   UNL     1       1.960   3.919  18.858  0.00  0.00    +0.000 N 
ATOM     30  C   UNL     1       2.262   2.590  18.830  0.00  0.00    +0.000 A 
ATOM     31  N   UNL     1       1.829   2.027  19.935  0.00  0.00    +0.000 NA
ATOM     32  C   UNL     1       1.240   3.062  20.601  0.00  0.00    +0.000 A 
ATOM     33  N   UNL     1       1.310   4.250  19.989  0.00  0.00    +0.000 NA
ENDBRANCH  28  29
ENDBRANCH   1  28
TORSDOF 12
ENDMDL
MODEL 9
REMARK VINA RESULT:      -6.9      4.003      6.245
REMARK  Name = 
REMARK  13 active torsions:
REMARK  status: ('A' for Active; 'I' for Inactive)
REMARK    1  A    between atoms: C_1  and  N_2
REMARK    2  A    between atoms: N_2  and  C_3
REMARK    3  A    between atoms: N_2  and  C_16
REMARK    4  A    between atoms: C_3  and  C_4
REMARK    5  A    between atoms: C_4  and  C_5
REMARK    6  A    between atoms: C_5  and  O_6
REMARK    7  A    between atoms: O_6  and  C_7
REMARK    8  A    between atoms: C_10  and  N_11
REMARK    9  A    between atoms: C_16  and  C_17
REMARK   10  A    between atoms: C_17  and  O_18
REMARK   11  A    between atoms: C_17  and  C_19
REMARK   12  A    between atoms: C_17  and  C_25
REMARK   13  A    between atoms: C_19  and  N_20
REMARK                            x       y       z     vdW  Elec       q    Type
REMARK                         _______ _______ _______ _____ _____    ______ ____
ROOT
ATOM      1  C   UNL     1       5.214   4.275  16.073  0.00  0.00    +0.000 C 
ENDROOT
BRANCH   1   2
ATOM      2  C   UNL     1       6.163   5.189  16.864  0.00  0.00    +0.000 A 
ATOM      3  C   UNL     1       7.251   4.675  17.603  0.00  0.00    +0.000 A 
ATOM      4  C   UNL     1       8.108   5.520  18.315  0.00  0.00    +0.000 A 
ATOM      5  C   UNL     1       7.871   6.887  18.320  0.00  0.00    +0.000 A 
ATOM      6  F   UNL     1       8.715   7.699  18.971  0.00  0.00    +0.000 F 
ATOM      7  C   UNL     1       6.796   7.424  17.632  0.00  0.00    +0.000 A 
ATOM      8  C   UNL     1       5.954   6.577  16.915  0.00  0.00    +0.000 A 
ATOM      9  F   UNL     1       4.921   7.135  16.269  0.00  0.00    +0.000 F 
ENDBRANCH   1   2
BRANCH   1  10
ATOM     10  O   UNL     1       5.858   3.035  15.751  0.00  0.00    +0.000 OA
ATOM     11  H   UNL     1       5.259   2.525  15.176  0.00  0.00    +0.000 HD
ENDBRANCH   1  10
BRANCH   1  12
ATOM     12  C   UNL     1       3.874   3.945  16.840  0.00  0.00    +0.000 C 
BRANCH  12  14
ATOM     13  C   UNL     1       4.721   3.300  19.003  0.00  0.00    +0.000 C 
ATOM     14  N   UNL     1       3.898   2.848  17.861  0.00  0.00    +0.000 NA
BRANCH  14  15
ATOM     15  C   UNL     1       2.575   2.447  18.413  0.00  0.00    +0.000 C 
BRANCH  15  16
ATOM     16  C   UNL     1       2.281   2.577  19.913  0.00  0.00    +0.000 C 
BRANCH  16  17
ATOM     17  C   UNL     1       1.298   3.677  20.293  0.00  0.00    +0.000 C 
BRANCH  17  18
ATOM     18  O   UNL     1       2.058   4.722  20.916  0.00  0.00    +0.000 OA
BRANCH  18  19
ATOM     19  C   UNL     1       1.925   5.980  20.403  0.00  0.00    +0.000 A 
ATOM     20  C   UNL     1       2.437   6.145  19.112  0.00  0.00    +0.000 A 
ATOM     21  C   UNL     1       2.400   7.394  18.486  0.00  0.00    +0.000 A 
ATOM     22  C   UNL     1       1.806   8.474  19.149  0.00  0.00    +0.000 A 
ATOM     23  C   UNL     1       1.241   8.304  20.418  0.00  0.00    +0.000 A 
ATOM     24  C   UNL     1       1.321   7.059  21.047  0.00  0.00    +0.000 A 
BRANCH  22  25
ATOM     25  N   UNL     1       1.792   9.800  18.521  0.00  0.00    +0.000 N 
ATOM     26  O   UNL     1       2.106   9.874  17.325  0.00  0.00    +0.000 OA
ATOM     27  O   UNL     1       1.480  10.768  19.228  0.00  0.00    +0.000 OA
ENDBRANCH  22  25
ENDBRANCH  18  19
ENDBRANCH  17  18
ENDBRANCH  16  17
ENDBRANCH  15  16
ENDBRANCH  14  15
ENDBRANCH  12  14
ENDBRANCH   1  12
BRANCH   1  28
ATOM     28  C   UNL     1       5.002   4.970  14.701  0.00  0.00    +0.000 C 
BRANCH  28  29
ATOM     29  N   UNL     1       5.742   4.344  13.627  0.00  0.00    +0.000 N 
ATOM     30  C   UNL     1       7.031   4.582  13.256  0.00  0.00    +0.000 A 
ATOM     31  N   UNL     1       7.368   3.741  12.305  0.00  0.00    +0.000 NA
ATOM     32  C   UNL     1       6.227   3.018  12.112  0.00  0.00    +0.000 A 
ATOM     33  N   UNL     1       5.204   3.338  12.913  0.00  0.00    +0.000 NA
ENDBRANCH  28  29
ENDBRANCH   1  28
TORSDOF 12
ENDMDL
