MODEL 1
REMARK VINA RESULT:      -8.9      0.000      0.000
REMARK  Name = 
REMARK  16 active torsions:
REMARK  status: ('A' for Active; 'I' for Inactive)
REMARK    1  A    between atoms: C_1  and  C_2
REMARK    2  A    between atoms: C_2  and  C_3
REMARK    3  A    between atoms: C_4  and  C_5
REMARK    4  A    between atoms: C_5  and  C_6
REMARK    5  A    between atoms: C_6  and  C_7
REMARK    6  A    between atoms: C_7  and  C_8
REMARK    7  A    between atoms: C_9  and  C_10
REMARK    8  A    between atoms: C_10  and  C_11
REMARK    9  A    between atoms: C_11  and  C_12
REMARK   10  A    between atoms: C_12  and  C_13
REMARK   11  A    between atoms: C_14  and  C_15
REMARK   12  A    between atoms: C_15  and  C_16
REMARK   13  A    between atoms: C_17  and  O_18
REMARK   14  A    between atoms: C_20  and  O_21
REMARK   15  A    between atoms: C_23  and  C_24
REMARK   16  A    between atoms: C_29  and  O_30
REMARK                            x       y       z     vdW  Elec       q    Type
REMARK                         _______ _______ _______ _____ _____    ______ ____
ROOT
ATOM      1  C   UNL     1       3.788   4.940  17.765  0.00  0.00    +0.000 A 
ATOM      2  C   UNL     1       4.033   3.595  17.397  0.00  0.00    +0.000 A 
ATOM      3  C   UNL     1       3.064   2.606  17.528  0.00  0.00    +0.000 A 
ATOM      4  C   UNL     1       1.822   2.946  18.028  0.00  0.00    +0.000 A 
ATOM      5  C   UNL     1       1.537   4.260  18.392  0.00  0.00    +0.000 A 
ATOM      6  C   UNL     1       2.507   5.277  18.273  0.00  0.00    +0.000 A 
ENDROOT
BRANCH   6   7
ATOM      7  C   UNL     1       2.123   6.618  18.733  0.00  0.00    +0.000 A 
ATOM      8  C   UNL     1       1.961   7.831  18.092  0.00  0.00    +0.000 A 
ATOM      9  C   UNL     1       1.578   8.781  19.074  0.00  0.00    +0.000 A 
ATOM     10  C   UNL     1       1.256  10.151  19.080  0.00  0.00    +0.000 A 
ATOM     11  C   UNL     1       0.895  10.754  20.295  0.00  0.00    +0.000 A 
ATOM     12  C   UNL     1       0.848  10.003  21.469  0.00  0.00    +0.000 A 
ATOM     13  C   UNL     1       1.162   8.643  21.492  0.00  0.00    +0.000 A 
ATOM     14  C   UNL     1       1.532   8.083  20.272  0.00  0.00    +0.000 A 
ATOM     15  O   UNL     1       1.895   6.786  20.070  0.00  0.00    +0.000 OA
BRANCH  12  16
ATOM     16  O   UNL     1       0.490  10.581  22.655  0.00  0.00    +0.000 OA
ATOM     17  H   UNL     1       0.975  11.417  22.756  0.00  0.00    +0.000 HD
ENDBRANCH  12  16
ENDBRANCH   6   7
BRANCH   2  18
ATOM     18  O   UNL     1       5.224   3.131  16.903  0.00  0.00    +0.000 OA
ATOM     19  H   UNL     1       5.695   3.837  16.439  0.00  0.00    +0.000 HD
ENDBRANCH   2  18
BRANCH   4  20
ATOM     20  O   UNL     1       0.846   2.007  18.195  0.00  0.00    +0.000 OA
ATOM     21  H   UNL     1       1.265   1.195  18.528  0.00  0.00    +0.000 HD
ENDBRANCH   4  20
BRANCH   1  22
ATOM     22  C   UNL     1       4.907   5.951  17.690  0.00  0.00    +0.000 C 
BRANCH  22  25
ATOM     23  C   UNL     1       7.332   6.115  18.515  0.00  0.00    +0.000 C 
ATOM     24  C   UNL     1       8.420   5.518  19.367  0.00  0.00    +0.000 C 
ATOM     25  C   UNL     1       6.115   5.526  18.485  0.00  0.00    +0.000 C 
BRANCH  23  26
ATOM     26  C   UNL     1       7.680   7.354  17.722  0.00  0.00    +0.000 C 
BRANCH  26  27
ATOM     27  C   UNL     1       8.526   8.354  18.524  0.00  0.00    +0.000 C 
BRANCH  27  30
ATOM     28  C   UNL     1       9.040  10.845  18.484  0.00  0.00    +0.000 C 
ATOM     29  C   UNL     1       8.818  12.161  17.779  0.00  0.00    +0.000 C 
ATOM     30  C   UNL     1       8.388   9.760  18.011  0.00  0.00    +0.000 C 
BRANCH  28  31
ATOM     31  C   UNL     1      10.014  10.747  19.652  0.00  0.00    +0.000 C 
BRANCH  31  32
ATOM     32  C   UNL     1      10.990  11.913  19.832  0.00  0.00    +0.000 C 
BRANCH  32  36
ATOM     33  C   UNL     1      10.257  15.337  21.527  0.00  0.00    +0.000 C 
ATOM     34  C   UNL     1      10.775  14.300  20.575  0.00  0.00    +0.000 C 
ATOM     35  C   UNL     1      11.609  14.775  19.417  0.00  0.00    +0.000 C 
ATOM     36  C   UNL     1      10.499  12.992  20.760  0.00  0.00    +0.000 C 
ENDBRANCH  32  36
ENDBRANCH  31  32
ENDBRANCH  28  31
ENDBRANCH  27  30
ENDBRANCH  26  27
ENDBRANCH  23  26
ENDBRANCH  22  25
ENDBRANCH   1  22
TORSDOF 12
ENDMDL
MODEL 2
REMARK VINA RESULT:      -8.8      4.046      6.610
REMARK  Name = 
REMARK  16 active torsions:
REMARK  status: ('A' for Active; 'I' for Inactive)
REMARK    1  A    between atoms: C_1  and  C_2
REMARK    2  A    between atoms: C_2  and  C_3
REMARK    3  A    between atoms: C_4  and  C_5
REMARK    4  A    between atoms: C_5  and  C_6
REMARK    5  A    between atoms: C_6  and  C_7
REMARK    6  A    between atoms: C_7  and  C_8
REMARK    7  A    between atoms: C_9  and  C_10
REMARK    8  A    between atoms: C_10  and  C_11
REMARK    9  A    between atoms: C_11  and  C_12
REMARK   10  A    between atoms: C_12  and  C_13
REMARK   11  A    between atoms: C_14  and  C_15
REMARK   12  A    between atoms: C_15  and  C_16
REMARK   13  A    between atoms: C_17  and  O_18
REMARK   14  A    between atoms: C_20  and  O_21
REMARK   15  A    between atoms: C_23  and  C_24
REMARK   16  A    between atoms: C_29  and  O_30
REMARK                            x       y       z     vdW  Elec       q    Type
REMARK                         _______ _______ _______ _____ _____    ______ ____
ROOT
ATOM      1  C   UNL     1       3.703   4.029  19.461  0.00  0.00    +0.000 A 
ATOM      2  C   UNL     1       3.902   2.727  19.981  0.00  0.00    +0.000 A 
ATOM      3  C   UNL     1       3.095   2.203  20.985  0.00  0.00    +0.000 A 
ATOM      4  C   UNL     1       2.064   2.973  21.489  0.00  0.00    +0.000 A 
ATOM      5  C   UNL     1       1.829   4.255  20.997  0.00  0.00    +0.000 A 
ATOM      6  C   UNL     1       2.638   4.808  19.983  0.00  0.00    +0.000 A 
ENDROOT
BRANCH   6   7
ATOM      7  C   UNL     1       2.339   6.186  19.573  0.00  0.00    +0.000 A 
ATOM      8  C   UNL     1       2.521   6.886  18.396  0.00  0.00    +0.000 A 
ATOM      9  C   UNL     1       2.032   8.202  18.605  0.00  0.00    +0.000 A 
ATOM     10  C   UNL     1       1.914   9.369  17.829  0.00  0.00    +0.000 A 
ATOM     11  C   UNL     1       1.338  10.511  18.409  0.00  0.00    +0.000 A 
ATOM     12  C   UNL     1       0.883  10.479  19.726  0.00  0.00    +0.000 A 
ATOM     13  C   UNL     1       0.988   9.335  20.520  0.00  0.00    +0.000 A 
ATOM     14  C   UNL     1       1.579   8.228  19.917  0.00  0.00    +0.000 A 
ATOM     15  O   UNL     1       1.798   7.022  20.509  0.00  0.00    +0.000 OA
BRANCH  12  16
ATOM     16  O   UNL     1       0.314  11.583  20.297  0.00  0.00    +0.000 OA
ATOM     17  H   UNL     1      -0.022  12.162  19.592  0.00  0.00    +0.000 HD
ENDBRANCH  12  16
ENDBRANCH   6   7
BRANCH   2  18
ATOM     18  O   UNL     1       4.894   1.875  19.576  0.00  0.00    +0.000 OA
ATOM     19  H   UNL     1       5.267   1.405  20.334  0.00  0.00    +0.000 HD
ENDBRANCH   2  18
BRANCH   4  20
ATOM     20  O   UNL     1       1.259   2.510  22.488  0.00  0.00    +0.000 OA
ATOM     21  H   UNL     1       0.601   3.197  22.686  0.00  0.00    +0.000 HD
ENDBRANCH   4  20
BRANCH   1  22
ATOM     22  C   UNL     1       4.668   4.581  18.439  0.00  0.00    +0.000 C 
BRANCH  22  25
ATOM     23  C   UNL     1       7.119   5.236  18.826  0.00  0.00    +0.000 C 
ATOM     24  C   UNL     1       8.094   6.090  19.592  0.00  0.00    +0.000 C 
ATOM     25  C   UNL     1       5.796   5.352  19.077  0.00  0.00    +0.000 C 
BRANCH  23  26
ATOM     26  C   UNL     1       7.696   4.275  17.812  0.00  0.00    +0.000 C 
BRANCH  26  27
ATOM     27  C   UNL     1       7.726   4.858  16.392  0.00  0.00    +0.000 C 
BRANCH  27  30
ATOM     28  C   UNL     1       5.644   5.798  15.271  0.00  0.00    +0.000 C 
ATOM     29  C   UNL     1       4.617   6.903  15.258  0.00  0.00    +0.000 C 
ATOM     30  C   UNL     1       6.648   5.883  16.171  0.00  0.00    +0.000 C 
BRANCH  28  31
ATOM     31  C   UNL     1       5.510   4.604  14.334  0.00  0.00    +0.000 C 
BRANCH  31  32
ATOM     32  C   UNL     1       6.487   4.542  13.156  0.00  0.00    +0.000 C 
BRANCH  32  36
ATOM     33  C   UNL     1       5.844   1.250  11.185  0.00  0.00    +0.000 C 
ATOM     34  C   UNL     1       5.657   2.613  11.782  0.00  0.00    +0.000 C 
ATOM     35  C   UNL     1       4.359   3.321  11.504  0.00  0.00    +0.000 C 
ATOM     36  C   UNL     1       6.623   3.175  12.538  0.00  0.00    +0.000 C 
ENDBRANCH  32  36
ENDBRANCH  31  32
ENDBRANCH  28  31
ENDBRANCH  27  30
ENDBRANCH  26  27
ENDBRANCH  23  26
ENDBRANCH  22  25
ENDBRANCH   1  22
TORSDOF 12
ENDMDL
MODEL 3
REMARK VINA RESULT:      -8.7      4.134      6.693
REMARK  Name = 
REMARK  16 active torsions:
REMARK  status: ('A' for Active; 'I' for Inactive)
REMARK    1  A    between atoms: C_1  and  C_2
REMARK    2  A    between atoms: C_2  and  C_3
REMARK    3  A    between atoms: C_4  and  C_5
REMARK    4  A    between atoms: C_5  and  C_6
REMARK    5  A    between atoms: C_6  and  C_7
REMARK    6  A    between atoms: C_7  and  C_8
REMARK    7  A    between atoms: C_9  and  C_10
REMARK    8  A    between atoms: C_10  and  C_11
REMARK    9  A    between atoms: C_11  and  C_12
REMARK   10  A    between atoms: C_12  and  C_13
REMARK   11  A    between atoms: C_14  and  C_15
REMARK   12  A    between atoms: C_15  and  C_16
REMARK   13  A    between atoms: C_17  and  O_18
REMARK   14  A    between atoms: C_20  and  O_21
REMARK   15  A    between atoms: C_23  and  C_24
REMARK   16  A    between atoms: C_29  and  O_30
REMARK                            x       y       z     vdW  Elec       q    Type
REMARK                         _______ _______ _______ _____ _____    ______ ____
ROOT
ATOM      1  C   UNL     1       3.907   4.526  19.286  0.00  0.00    +0.000 A 
ATOM      2  C   UNL     1       4.135   3.133  19.174  0.00  0.00    +0.000 A 
ATOM      3  C   UNL     1       3.161   2.262  18.697  0.00  0.00    +0.000 A 
ATOM      4  C   UNL     1       1.934   2.771  18.316  0.00  0.00    +0.000 A 
ATOM      5  C   UNL     1       1.674   4.137  18.401  0.00  0.00    +0.000 A 
ATOM      6  C   UNL     1       2.645   5.037  18.887  0.00  0.00    +0.000 A 
ENDROOT
BRANCH   6   7
ATOM      7  C   UNL     1       2.252   6.448  18.985  0.00  0.00    +0.000 A 
ATOM      8  C   UNL     1       2.122   7.463  18.058  0.00  0.00    +0.000 A 
ATOM      9  C   UNL     1       1.707   8.627  18.758  0.00  0.00    +0.000 A 
ATOM     10  C   UNL     1       1.393   9.953  18.412  0.00  0.00    +0.000 A 
ATOM     11  C   UNL     1       0.990  10.838  19.424  0.00  0.00    +0.000 A 
ATOM     12  C   UNL     1       0.893  10.401  20.745  0.00  0.00    +0.000 A 
ATOM     13  C   UNL     1       1.199   9.091  21.117  0.00  0.00    +0.000 A 
ATOM     14  C   UNL     1       1.611   8.247  20.089  0.00  0.00    +0.000 A 
ATOM     15  O   UNL     1       1.974   6.942  20.229  0.00  0.00    +0.000 OA
BRANCH  12  16
ATOM     16  O   UNL     1       0.494  11.254  21.736  0.00  0.00    +0.000 OA
ATOM     17  H   UNL     1       1.282  11.616  22.175  0.00  0.00    +0.000 HD
ENDBRANCH  12  16
ENDBRANCH   6   7
BRANCH   2  18
ATOM     18  O   UNL     1       5.300   2.508  19.532  0.00  0.00    +0.000 OA
ATOM     19  H   UNL     1       5.182   2.020  20.358  0.00  0.00    +0.000 HD
ENDBRANCH   2  18
BRANCH   4  20
ATOM     20  O   UNL     1       0.941   1.954  17.862  0.00  0.00    +0.000 OA
ATOM     21  H   UNL     1       1.036   1.092  18.302  0.00  0.00    +0.000 HD
ENDBRANCH   4  20
BRANCH   1  22
ATOM     22  C   UNL     1       4.967   5.410  19.899  0.00  0.00    +0.000 C 
BRANCH  22  25
ATOM     23  C   UNL     1       6.524   6.098  17.979  0.00  0.00    +0.000 C 
ATOM     24  C   UNL     1       7.868   5.933  17.320  0.00  0.00    +0.000 C 
ATOM     25  C   UNL     1       6.247   5.401  19.104  0.00  0.00    +0.000 C 
BRANCH  23  26
ATOM     26  C   UNL     1       5.546   7.045  17.321  0.00  0.00    +0.000 C 
BRANCH  26  27
ATOM     27  C   UNL     1       5.034   6.525  15.970  0.00  0.00    +0.000 C 
BRANCH  27  30
ATOM     28  C   UNL     1       5.483   4.096  15.359  0.00  0.00    +0.000 C 
ATOM     29  C   UNL     1       5.086   2.656  15.570  0.00  0.00    +0.000 C 
ATOM     30  C   UNL     1       4.761   5.047  15.992  0.00  0.00    +0.000 C 
BRANCH  28  31
ATOM     31  C   UNL     1       6.695   4.450  14.506  0.00  0.00    +0.000 C 
BRANCH  31  32
ATOM     32  C   UNL     1       6.710   3.905  13.074  0.00  0.00    +0.000 C 
BRANCH  32  36
ATOM     33  C   UNL     1       3.572   3.076  10.930  0.00  0.00    +0.000 C 
ATOM     34  C   UNL     1       4.910   2.968  11.598  0.00  0.00    +0.000 C 
ATOM     35  C   UNL     1       5.703   1.711  11.366  0.00  0.00    +0.000 C 
ATOM     36  C   UNL     1       5.376   3.966  12.377  0.00  0.00    +0.000 C 
ENDBRANCH  32  36
ENDBRANCH  31  32
ENDBRANCH  28  31
ENDBRANCH  27  30
ENDBRANCH  26  27
ENDBRANCH  23  26
ENDBRANCH  22  25
ENDBRANCH   1  22
TORSDOF 12
ENDMDL
MODEL 4
REMARK VINA RESULT:      -8.7      1.992      3.518
REMARK  Name = 
REMARK  16 active torsions:
REMARK  status: ('A' for Active; 'I' for Inactive)
REMARK    1  A    between atoms: C_1  and  C_2
REMARK    2  A    between atoms: C_2  and  C_3
REMARK    3  A    between atoms: C_4  and  C_5
REMARK    4  A    between atoms: C_5  and  C_6
REMARK    5  A    between atoms: C_6  and  C_7
REMARK    6  A    between atoms: C_7  and  C_8
REMARK    7  A    between atoms: C_9  and  C_10
REMARK    8  A    between atoms: C_10  and  C_11
REMARK    9  A    between atoms: C_11  and  C_12
REMARK   10  A    between atoms: C_12  and  C_13
REMARK   11  A    between atoms: C_14  and  C_15
REMARK   12  A    between atoms: C_15  and  C_16
REMARK   13  A    between atoms: C_17  and  O_18
REMARK   14  A    between atoms: C_20  and  O_21
REMARK   15  A    between atoms: C_23  and  C_24
REMARK   16  A    between atoms: C_29  and  O_30
REMARK                            x       y       z     vdW  Elec       q    Type
REMARK                         _______ _______ _______ _____ _____    ______ ____
ROOT
ATOM      1  C   UNL     1       3.699   4.177  19.410  0.00  0.00    +0.000 A 
ATOM      2  C   UNL     1       3.928   2.874  19.912  0.00  0.00    +0.000 A 
ATOM      3  C   UNL     1       3.158   2.332  20.937  0.00  0.00    +0.000 A 
ATOM      4  C   UNL     1       2.135   3.087  21.478  0.00  0.00    +0.000 A 
ATOM      5  C   UNL     1       1.871   4.370  21.005  0.00  0.00    +0.000 A 
ATOM      6  C   UNL     1       2.642   4.941  19.970  0.00  0.00    +0.000 A 
ENDROOT
BRANCH   6   7
ATOM      7  C   UNL     1       2.316   6.318  19.581  0.00  0.00    +0.000 A 
ATOM      8  C   UNL     1       2.469   7.034  18.410  0.00  0.00    +0.000 A 
ATOM      9  C   UNL     1       1.963   8.340  18.642  0.00  0.00    +0.000 A 
ATOM     10  C   UNL     1       1.816   9.514  17.882  0.00  0.00    +0.000 A 
ATOM     11  C   UNL     1       1.231  10.640  18.483  0.00  0.00    +0.000 A 
ATOM     12  C   UNL     1       0.796  10.585  19.807  0.00  0.00    +0.000 A 
ATOM     13  C   UNL     1       0.930   9.434  20.585  0.00  0.00    +0.000 A 
ATOM     14  C   UNL     1       1.529   8.343  19.960  0.00  0.00    +0.000 A 
ATOM     15  O   UNL     1       1.775   7.134  20.535  0.00  0.00    +0.000 OA
BRANCH  12  16
ATOM     16  O   UNL     1       0.218  11.674  20.398  0.00  0.00    +0.000 OA
ATOM     17  H   UNL     1       0.408  11.652  21.351  0.00  0.00    +0.000 HD
ENDBRANCH  12  16
ENDBRANCH   6   7
BRANCH   2  18
ATOM     18  O   UNL     1       4.916   2.035  19.469  0.00  0.00    +0.000 OA
ATOM     19  H   UNL     1       5.445   1.715  20.213  0.00  0.00    +0.000 HD
ENDBRANCH   2  18
BRANCH   4  20
ATOM     20  O   UNL     1       1.366   2.607  22.498  0.00  0.00    +0.000 OA
ATOM     21  H   UNL     1       0.592   2.168  22.109  0.00  0.00    +0.000 HD
ENDBRANCH   4  20
BRANCH   1  22
ATOM     22  C   UNL     1       4.626   4.748  18.363  0.00  0.00    +0.000 C 
BRANCH  22  25
ATOM     23  C   UNL     1       4.979   4.492  15.834  0.00  0.00    +0.000 C 
ATOM     24  C   UNL     1       4.577   3.787  14.567  0.00  0.00    +0.000 C 
ATOM     25  C   UNL     1       4.382   4.155  16.999  0.00  0.00    +0.000 C 
BRANCH  23  26
ATOM     26  C   UNL     1       6.040   5.563  15.719  0.00  0.00    +0.000 C 
BRANCH  26  27
ATOM     27  C   UNL     1       7.454   5.031  15.996  0.00  0.00    +0.000 C 
BRANCH  27  30
ATOM     28  C   UNL     1       7.644   6.078  18.308  0.00  0.00    +0.000 C 
ATOM     29  C   UNL     1       7.968   5.852  19.764  0.00  0.00    +0.000 C 
ATOM     30  C   UNL     1       7.788   5.034  17.462  0.00  0.00    +0.000 C 
BRANCH  28  31
ATOM     31  C   UNL     1       7.116   7.425  17.831  0.00  0.00    +0.000 C 
BRANCH  31  32
ATOM     32  C   UNL     1       8.152   8.534  17.623  0.00  0.00    +0.000 C 
BRANCH  32  36
ATOM     33  C   UNL     1       9.725  10.836  20.335  0.00  0.00    +0.000 C 
ATOM     34  C   UNL     1       9.141  10.352  19.041  0.00  0.00    +0.000 C 
ATOM     35  C   UNL     1       9.011  11.348  17.922  0.00  0.00    +0.000 C 
ATOM     36  C   UNL     1       8.749   9.069  18.898  0.00  0.00    +0.000 C 
ENDBRANCH  32  36
ENDBRANCH  31  32
ENDBRANCH  28  31
ENDBRANCH  27  30
ENDBRANCH  26  27
ENDBRANCH  23  26
ENDBRANCH  22  25
ENDBRANCH   1  22
TORSDOF 12
ENDMDL
MODEL 5
REMARK VINA RESULT:      -8.6      1.441      2.022
REMARK  Name = 
REMARK  16 active torsions:
REMARK  status: ('A' for Active; 'I' for Inactive)
REMARK    1  A    between atoms: C_1  and  C_2
REMARK    2  A    between atoms: C_2  and  C_3
REMARK    3  A    between atoms: C_4  and  C_5
REMARK    4  A    between atoms: C_5  and  C_6
REMARK    5  A    between atoms: C_6  and  C_7
REMARK    6  A    between atoms: C_7  and  C_8
REMARK    7  A    between atoms: C_9  and  C_10
REMARK    8  A    between atoms: C_10  and  C_11
REMARK    9  A    between atoms: C_11  and  C_12
REMARK   10  A    between atoms: C_12  and  C_13
REMARK   11  A    between atoms: C_14  and  C_15
REMARK   12  A    between atoms: C_15  and  C_16
REMARK   13  A    between atoms: C_17  and  O_18
REMARK   14  A    between atoms: C_20  and  O_21
REMARK   15  A    between atoms: C_23  and  C_24
REMARK   16  A    between atoms: C_29  and  O_30
REMARK                            x       y       z     vdW  Elec       q    Type
REMARK                         _______ _______ _______ _____ _____    ______ ____
ROOT
ATOM      1  C   UNL     1       3.739   4.811  19.497  0.00  0.00    +0.000 A 
ATOM      2  C   UNL     1       3.903   3.421  19.707  0.00  0.00    +0.000 A 
ATOM      3  C   UNL     1       2.838   2.597  20.058  0.00  0.00    +0.000 A 
ATOM      4  C   UNL     1       1.581   3.151  20.201  0.00  0.00    +0.000 A 
ATOM      5  C   UNL     1       1.375   4.513  19.993  0.00  0.00    +0.000 A 
ATOM      6  C   UNL     1       2.442   5.367  19.642  0.00  0.00    +0.000 A 
ENDROOT
BRANCH   6   7
ATOM      7  C   UNL     1       2.129   6.794  19.497  0.00  0.00    +0.000 A 
ATOM      8  C   UNL     1       2.179   7.672  18.432  0.00  0.00    +0.000 A 
ATOM      9  C   UNL     1       1.754   8.941  18.908  0.00  0.00    +0.000 A 
ATOM     10  C   UNL     1       1.569  10.218  18.348  0.00  0.00    +0.000 A 
ATOM     11  C   UNL     1       1.101  11.255  19.170  0.00  0.00    +0.000 A 
ATOM     12  C   UNL     1       0.814  11.014  20.513  0.00  0.00    +0.000 A 
ATOM     13  C   UNL     1       0.988   9.758  21.095  0.00  0.00    +0.000 A 
ATOM     14  C   UNL     1       1.470   8.758  20.254  0.00  0.00    +0.000 A 
ATOM     15  O   UNL     1       1.731   7.472  20.615  0.00  0.00    +0.000 OA
BRANCH  12  16
ATOM     16  O   UNL     1       0.349  12.016  21.318  0.00  0.00    +0.000 OA
ATOM     17  H   UNL     1       0.768  12.851  21.054  0.00  0.00    +0.000 HD
ENDBRANCH  12  16
ENDBRANCH   6   7
BRANCH   2  18
ATOM     18  O   UNL     1       5.098   2.758  19.610  0.00  0.00    +0.000 OA
ATOM     19  H   UNL     1       5.227   2.424  18.711  0.00  0.00    +0.000 HD
ENDBRANCH   2  18
BRANCH   4  20
ATOM     20  O   UNL     1       0.510   2.387  20.565  0.00  0.00    +0.000 OA
ATOM     21  H   UNL     1       0.733   1.935  21.396  0.00  0.00    +0.000 HD
ENDBRANCH   4  20
BRANCH   1  22
ATOM     22  C   UNL     1       4.947   5.671  19.211  0.00  0.00    +0.000 C 
BRANCH  22  25
ATOM     23  C   UNL     1       6.570   5.967  17.245  0.00  0.00    +0.000 C 
ATOM     24  C   UNL     1       6.810   5.802  15.768  0.00  0.00    +0.000 C 
ATOM     25  C   UNL     1       5.388   5.576  17.773  0.00  0.00    +0.000 C 
BRANCH  23  26
ATOM     26  C   UNL     1       7.686   6.581  18.059  0.00  0.00    +0.000 C 
BRANCH  26  27
ATOM     27  C   UNL     1       7.898   8.070  17.749  0.00  0.00    +0.000 C 
BRANCH  27  30
ATOM     28  C   UNL     1       9.016  10.079  18.839  0.00  0.00    +0.000 C 
ATOM     29  C   UNL     1       9.661  10.632  20.085  0.00  0.00    +0.000 C 
ATOM     30  C   UNL     1       8.619   8.788  18.856  0.00  0.00    +0.000 C 
BRANCH  28  31
ATOM     31  C   UNL     1       8.772  10.973  17.630  0.00  0.00    +0.000 C 
BRANCH  31  32
ATOM     32  C   UNL     1       8.807  12.485  17.875  0.00  0.00    +0.000 C 
BRANCH  32  36
ATOM     33  C   UNL     1      12.087  14.570  17.709  0.00  0.00    +0.000 C 
ATOM     34  C   UNL     1      10.832  13.926  18.219  0.00  0.00    +0.000 C 
ATOM     35  C   UNL     1      10.460  14.172  19.656  0.00  0.00    +0.000 C 
ATOM     36  C   UNL     1      10.073  13.157  17.412  0.00  0.00    +0.000 C 
ENDBRANCH  32  36
ENDBRANCH  31  32
ENDBRANCH  28  31
ENDBRANCH  27  30
ENDBRANCH  26  27
ENDBRANCH  23  26
ENDBRANCH  22  25
ENDBRANCH   1  22
TORSDOF 12
ENDMDL
MODEL 6
REMARK VINA RESULT:      -8.6      3.919      7.375
REMARK  Name = 
REMARK  16 active torsions:
REMARK  status: ('A' for Active; 'I' for Inactive)
REMARK    1  A    between atoms: C_1  and  C_2
REMARK    2  A    between atoms: C_2  and  C_3
REMARK    3  A    between atoms: C_4  and  C_5
REMARK    4  A    between atoms: C_5  and  C_6
REMARK    5  A    between atoms: C_6  and  C_7
REMARK    6  A    between atoms: C_7  and  C_8
REMARK    7  A    between atoms: C_9  and  C_10
REMARK    8  A    between atoms: C_10  and  C_11
REMARK    9  A    between atoms: C_11  and  C_12
REMARK   10  A    between atoms: C_12  and  C_13
REMARK   11  A    between atoms: C_14  and  C_15
REMARK   12  A    between atoms: C_15  and  C_16
REMARK   13  A    between atoms: C_17  and  O_18
REMARK   14  A    between atoms: C_20  and  O_21
REMARK   15  A    between atoms: C_23  and  C_24
REMARK   16  A    between atoms: C_29  and  O_30
REMARK                            x       y       z     vdW  Elec       q    Type
REMARK                         _______ _______ _______ _____ _____    ______ ____
ROOT
ATOM      1  C   UNL     1       3.414   4.719  18.856  0.00  0.00    +0.000 A 
ATOM      2  C   UNL     1       3.775   3.356  18.983  0.00  0.00    +0.000 A 
ATOM      3  C   UNL     1       3.332   2.571  20.042  0.00  0.00    +0.000 A 
ATOM      4  C   UNL     1       2.510   3.136  20.998  0.00  0.00    +0.000 A 
ATOM      5  C   UNL     1       2.123   4.470  20.905  0.00  0.00    +0.000 A 
ATOM      6  C   UNL     1       2.565   5.287  19.842  0.00  0.00    +0.000 A 
ENDROOT
BRANCH   6   7
ATOM      7  C   UNL     1       2.143   6.693  19.865  0.00  0.00    +0.000 A 
ATOM      8  C   UNL     1       1.544   7.487  20.823  0.00  0.00    +0.000 A 
ATOM      9  C   UNL     1       1.376   8.779  20.258  0.00  0.00    +0.000 A 
ATOM     10  C   UNL     1       0.859  10.011  20.696  0.00  0.00    +0.000 A 
ATOM     11  C   UNL     1       0.883  11.105  19.817  0.00  0.00    +0.000 A 
ATOM     12  C   UNL     1       1.422  10.969  18.538  0.00  0.00    +0.000 A 
ATOM     13  C   UNL     1       1.942   9.759  18.077  0.00  0.00    +0.000 A 
ATOM     14  C   UNL     1       1.885   8.692  18.970  0.00  0.00    +0.000 A 
ATOM     15  O   UNL     1       2.315   7.424  18.724  0.00  0.00    +0.000 OA
BRANCH  12  16
ATOM     16  O   UNL     1       1.458  12.031  17.678  0.00  0.00    +0.000 OA
ATOM     17  H   UNL     1       2.289  12.001  17.176  0.00  0.00    +0.000 HD
ENDBRANCH  12  16
ENDBRANCH   6   7
BRANCH   2  18
ATOM     18  O   UNL     1       4.592   2.687  18.110  0.00  0.00    +0.000 OA
ATOM     19  H   UNL     1       4.941   3.294  17.443  0.00  0.00    +0.000 HD
ENDBRANCH   2  18
BRANCH   4  20
ATOM     20  O   UNL     1       2.067   2.411  22.066  0.00  0.00    +0.000 OA
ATOM     21  H   UNL     1       1.835   3.034  22.775  0.00  0.00    +0.000 HD
ENDBRANCH   4  20
BRANCH   1  22
ATOM     22  C   UNL     1       4.001   5.548  17.738  0.00  0.00    +0.000 C 
BRANCH  22  25
ATOM     23  C   UNL     1       6.548   5.817  17.893  0.00  0.00    +0.000 C 
ATOM     24  C   UNL     1       7.704   6.634  18.407  0.00  0.00    +0.000 C 
ATOM     25  C   UNL     1       5.284   6.226  18.144  0.00  0.00    +0.000 C 
BRANCH  23  26
ATOM     26  C   UNL     1       6.882   4.561  17.121  0.00  0.00    +0.000 C 
BRANCH  26  27
ATOM     27  C   UNL     1       6.110   4.454  15.799  0.00  0.00    +0.000 C 
BRANCH  27  30
ATOM     28  C   UNL     1       6.640   4.580  13.313  0.00  0.00    +0.000 C 
ATOM     29  C   UNL     1       7.609   5.057  12.260  0.00  0.00    +0.000 C 
ATOM     30  C   UNL     1       6.965   4.788  14.608  0.00  0.00    +0.000 C 
BRANCH  28  31
ATOM     31  C   UNL     1       5.315   3.942  12.915  0.00  0.00    +0.000 C 
BRANCH  31  32
ATOM     32  C   UNL     1       5.228   3.369  11.496  0.00  0.00    +0.000 C 
BRANCH  32  36
ATOM     33  C   UNL     1       6.078  -0.415  11.199  0.00  0.00    +0.000 C 
ATOM     34  C   UNL     1       6.217   1.078  11.241  0.00  0.00    +0.000 C 
ATOM     35  C   UNL     1       7.595   1.652  11.053  0.00  0.00    +0.000 C 
ATOM     36  C   UNL     1       5.141   1.867  11.441  0.00  0.00    +0.000 C 
ENDBRANCH  32  36
ENDBRANCH  31  32
ENDBRANCH  28  31
ENDBRANCH  27  30
ENDBRANCH  26  27
ENDBRANCH  23  26
ENDBRANCH  22  25
ENDBRANCH   1  22
TORSDOF 12
ENDMDL
MODEL 7
REMARK VINA RESULT:      -8.5      4.077      7.512
REMARK  Name = 
REMARK  16 active torsions:
REMARK  status: ('A' for Active; 'I' for Inactive)
REMARK    1  A    between atoms: C_1  and  C_2
REMARK    2  A    between atoms: C_2  and  C_3
REMARK    3  A    between atoms: C_4  and  C_5
REMARK    4  A    between atoms: C_5  and  C_6
REMARK    5  A    between atoms: C_6  and  C_7
REMARK    6  A    between atoms: C_7  and  C_8
REMARK    7  A    between atoms: C_9  and  C_10
REMARK    8  A    between atoms: C_10  and  C_11
REMARK    9  A    between atoms: C_11  and  C_12
REMARK   10  A    between atoms: C_12  and  C_13
REMARK   11  A    between atoms: C_14  and  C_15
REMARK   12  A    between atoms: C_15  and  C_16
REMARK   13  A    between atoms: C_17  and  O_18
REMARK   14  A    between atoms: C_20  and  O_21
REMARK   15  A    between atoms: C_23  and  C_24
REMARK   16  A    between atoms: C_29  and  O_30
REMARK                            x       y       z     vdW  Elec       q    Type
REMARK                         _______ _______ _______ _____ _____    ______ ____
ROOT
ATOM      1  C   UNL     1       2.833   5.292  18.899  0.00  0.00    +0.000 A 
ATOM      2  C   UNL     1       3.226   3.932  18.917  0.00  0.00    +0.000 A 
ATOM      3  C   UNL     1       2.965   3.103  20.004  0.00  0.00    +0.000 A 
ATOM      4  C   UNL     1       2.297   3.621  21.097  0.00  0.00    +0.000 A 
ATOM      5  C   UNL     1       1.885   4.951  21.114  0.00  0.00    +0.000 A 
ATOM      6  C   UNL     1       2.145   5.810  20.026  0.00  0.00    +0.000 A 
ENDROOT
BRANCH   6   7
ATOM      7  C   UNL     1       1.715   7.207  20.166  0.00  0.00    +0.000 A 
ATOM      8  C   UNL     1       1.260   7.957  21.233  0.00  0.00    +0.000 A 
ATOM      9  C   UNL     1       0.993   9.265  20.750  0.00  0.00    +0.000 A 
ATOM     10  C   UNL     1       0.534  10.472  21.308  0.00  0.00    +0.000 A 
ATOM     11  C   UNL     1       0.413  11.597  20.477  0.00  0.00    +0.000 A 
ATOM     12  C   UNL     1       0.753  11.516  19.127  0.00  0.00    +0.000 A 
ATOM     13  C   UNL     1       1.210  10.332  18.547  0.00  0.00    +0.000 A 
ATOM     14  C   UNL     1       1.302   9.233  19.397  0.00  0.00    +0.000 A 
ATOM     15  O   UNL     1       1.703   7.982  19.040  0.00  0.00    +0.000 OA
BRANCH  12  16
ATOM     16  O   UNL     1       0.646  12.609  18.313  0.00  0.00    +0.000 OA
ATOM     17  H   UNL     1       1.333  12.559  17.628  0.00  0.00    +0.000 HD
ENDBRANCH  12  16
ENDBRANCH   6   7
BRANCH   2  18
ATOM     18  O   UNL     1       3.903   3.307  17.903  0.00  0.00    +0.000 OA
ATOM     19  H   UNL     1       3.372   2.588  17.535  0.00  0.00    +0.000 HD
ENDBRANCH   2  18
BRANCH   4  20
ATOM     20  O   UNL     1       2.037   2.853  22.194  0.00  0.00    +0.000 OA
ATOM     21  H   UNL     1       1.376   3.317  22.735  0.00  0.00    +0.000 HD
ENDBRANCH   4  20
BRANCH   1  22
ATOM     22  C   UNL     1       3.227   6.168  17.733  0.00  0.00    +0.000 C 
BRANCH  22  25
ATOM     23  C   UNL     1       5.671   6.379  16.977  0.00  0.00    +0.000 C 
ATOM     24  C   UNL     1       7.040   6.933  17.268  0.00  0.00    +0.000 C 
ATOM     25  C   UNL     1       4.655   6.640  17.831  0.00  0.00    +0.000 C 
BRANCH  23  26
ATOM     26  C   UNL     1       5.518   5.540  15.730  0.00  0.00    +0.000 C 
BRANCH  26  27
ATOM     27  C   UNL     1       6.669   4.541  15.541  0.00  0.00    +0.000 C 
BRANCH  27  30
ATOM     28  C   UNL     1       6.679   4.199  13.020  0.00  0.00    +0.000 C 
ATOM     29  C   UNL     1       7.421   4.428  11.726  0.00  0.00    +0.000 C 
ATOM     30  C   UNL     1       7.268   4.612  14.164  0.00  0.00    +0.000 C 
BRANCH  28  31
ATOM     31  C   UNL     1       5.289   3.577  13.016  0.00  0.00    +0.000 C 
BRANCH  31  32
ATOM     32  C   UNL     1       4.782   3.036  11.675  0.00  0.00    +0.000 C 
BRANCH  32  36
ATOM     33  C   UNL     1       2.427   4.807   9.135  0.00  0.00    +0.000 C 
ATOM     34  C   UNL     1       3.092   3.746   9.962  0.00  0.00    +0.000 C 
ATOM     35  C   UNL     1       2.608   2.332   9.797  0.00  0.00    +0.000 C 
ATOM     36  C   UNL     1       4.086   4.061  10.819  0.00  0.00    +0.000 C 
ENDBRANCH  32  36
ENDBRANCH  31  32
ENDBRANCH  28  31
ENDBRANCH  27  30
ENDBRANCH  26  27
ENDBRANCH  23  26
ENDBRANCH  22  25
ENDBRANCH   1  22
TORSDOF 12
ENDMDL
MODEL 8
REMARK VINA RESULT:      -8.5      1.681      2.238
REMARK  Name = 
REMARK  16 active torsions:
REMARK  status: ('A' for Active; 'I' for Inactive)
REMARK    1  A    between atoms: C_1  and  C_2
REMARK    2  A    between atoms: C_2  and  C_3
REMARK    3  A    between atoms: C_4  and  C_5
REMARK    4  A    between atoms: C_5  and  C_6
REMARK    5  A    between atoms: C_6  and  C_7
REMARK    6  A    between atoms: C_7  and  C_8
REMARK    7  A    between atoms: C_9  and  C_10
REMARK    8  A    between atoms: C_10  and  C_11
REMARK    9  A    between atoms: C_11  and  C_12
REMARK   10  A    between atoms: C_12  and  C_13
REMARK   11  A    between atoms: C_14  and  C_15
REMARK   12  A    between atoms: C_15  and  C_16
REMARK   13  A    between atoms: C_17  and  O_18
REMARK   14  A    between atoms: C_20  and  O_21
REMARK   15  A    between atoms: C_23  and  C_24
REMARK   16  A    between atoms: C_29  and  O_30
REMARK                            x       y       z     vdW  Elec       q    Type
REMARK                         _______ _______ _______ _____ _____    ______ ____
ROOT
ATOM      1  C   UNL     1       3.814   4.593  19.314  0.00  0.00    +0.000 A 
ATOM      2  C   UNL     1       3.918   3.200  19.544  0.00  0.00    +0.000 A 
ATOM      3  C   UNL     1       2.798   2.399  19.745  0.00  0.00    +0.000 A 
ATOM      4  C   UNL     1       1.544   2.980  19.716  0.00  0.00    +0.000 A 
ATOM      5  C   UNL     1       1.399   4.345  19.483  0.00  0.00    +0.000 A 
ATOM      6  C   UNL     1       2.521   5.176  19.282  0.00  0.00    +0.000 A 
ENDROOT
BRANCH   6   7
ATOM      7  C   UNL     1       2.261   6.610  19.097  0.00  0.00    +0.000 A 
ATOM      8  C   UNL     1       2.427   7.474  18.032  0.00  0.00    +0.000 A 
ATOM      9  C   UNL     1       1.998   8.759  18.458  0.00  0.00    +0.000 A 
ATOM     10  C   UNL     1       1.897  10.033  17.872  0.00  0.00    +0.000 A 
ATOM     11  C   UNL     1       1.388  11.092  18.642  0.00  0.00    +0.000 A 
ATOM     12  C   UNL     1       0.981  10.875  19.957  0.00  0.00    +0.000 A 
ATOM     13  C   UNL     1       1.069   9.621  20.564  0.00  0.00    +0.000 A 
ATOM     14  C   UNL     1       1.595   8.599  19.777  0.00  0.00    +0.000 A 
ATOM     15  O   UNL     1       1.787   7.311  20.170  0.00  0.00    +0.000 OA
BRANCH  12  16
ATOM     16  O   UNL     1       0.476  11.898  20.711  0.00  0.00    +0.000 OA
ATOM     17  H   UNL     1      -0.225  11.549  21.285  0.00  0.00    +0.000 HD
ENDBRANCH  12  16
ENDBRANCH   6   7
BRANCH   2  18
ATOM     18  O   UNL     1       5.101   2.512  19.609  0.00  0.00    +0.000 OA
ATOM     19  H   UNL     1       5.137   1.979  20.415  0.00  0.00    +0.000 HD
ENDBRANCH   2  18
BRANCH   4  20
ATOM     20  O   UNL     1       0.418   2.240  19.929  0.00  0.00    +0.000 OA
ATOM     21  H   UNL     1      -0.251   2.519  19.281  0.00  0.00    +0.000 HD
ENDBRANCH   4  20
BRANCH   1  22
ATOM     22  C   UNL     1       5.067   5.427  19.197  0.00  0.00    +0.000 C 
BRANCH  22  25
ATOM     23  C   UNL     1       6.672   6.147  17.328  0.00  0.00    +0.000 C 
ATOM     24  C   UNL     1       7.002   6.106  15.860  0.00  0.00    +0.000 C 
ATOM     25  C   UNL     1       5.578   5.493  17.781  0.00  0.00    +0.000 C 
BRANCH  23  26
ATOM     26  C   UNL     1       7.598   6.942  18.220  0.00  0.00    +0.000 C 
BRANCH  26  27
ATOM     27  C   UNL     1       7.832   8.371  17.710  0.00  0.00    +0.000 C 
BRANCH  27  30
ATOM     28  C   UNL     1       9.001  10.453  18.590  0.00  0.00    +0.000 C 
ATOM     29  C   UNL     1      10.040  11.003  19.536  0.00  0.00    +0.000 C 
ATOM     30  C   UNL     1       8.852   9.111  18.530  0.00  0.00    +0.000 C 
BRANCH  28  31
ATOM     31  C   UNL     1       8.116  11.392  17.780  0.00  0.00    +0.000 C 
BRANCH  31  32
ATOM     32  C   UNL     1       8.667  12.797  17.515  0.00  0.00    +0.000 C 
BRANCH  32  36
ATOM     33  C   UNL     1       6.331  15.740  18.521  0.00  0.00    +0.000 C 
ATOM     34  C   UNL     1       7.382  14.671  18.578  0.00  0.00    +0.000 C 
ATOM     35  C   UNL     1       8.151  14.521  19.862  0.00  0.00    +0.000 C 
ATOM     36  C   UNL     1       7.621  13.880  17.511  0.00  0.00    +0.000 C 
ENDBRANCH  32  36
ENDBRANCH  31  32
ENDBRANCH  28  31
ENDBRANCH  27  30
ENDBRANCH  26  27
ENDBRANCH  23  26
ENDBRANCH  22  25
ENDBRANCH   1  22
TORSDOF 12
ENDMDL
MODEL 9
REMARK VINA RESULT:      -8.3      0.745      1.065
REMARK  Name = 
REMARK  16 active torsions:
REMARK  status: ('A' for Active; 'I' for Inactive)
REMARK    1  A    between atoms: C_1  and  C_2
REMARK    2  A    between atoms: C_2  and  C_3
REMARK    3  A    between atoms: C_4  and  C_5
REMARK    4  A    between atoms: C_5  and  C_6
REMARK    5  A    between atoms: C_6  and  C_7
REMARK    6  A    between atoms: C_7  and  C_8
REMARK    7  A    between atoms: C_9  and  C_10
REMARK    8  A    between atoms: C_10  and  C_11
REMARK    9  A    between atoms: C_11  and  C_12
REMARK   10  A    between atoms: C_12  and  C_13
REMARK   11  A    between atoms: C_14  and  C_15
REMARK   12  A    between atoms: C_15  and  C_16
REMARK   13  A    between atoms: C_17  and  O_18
REMARK   14  A    between atoms: C_20  and  O_21
REMARK   15  A    between atoms: C_23  and  C_24
REMARK   16  A    between atoms: C_29  and  O_30
REMARK                            x       y       z     vdW  Elec       q    Type
REMARK                         _______ _______ _______ _____ _____    ______ ____
ROOT
ATOM      1  C   UNL     1       3.809   4.970  17.472  0.00  0.00    +0.000 A 
ATOM      2  C   UNL     1       4.033   3.604  17.177  0.00  0.00    +0.000 A 
ATOM      3  C   UNL     1       3.075   2.627  17.427  0.00  0.00    +0.000 A 
ATOM      4  C   UNL     1       1.864   3.002  17.976  0.00  0.00    +0.000 A 
ATOM      5  C   UNL     1       1.599   4.337  18.272  0.00  0.00    +0.000 A 
ATOM      6  C   UNL     1       2.559   5.342  18.031  0.00  0.00    +0.000 A 
ENDROOT
BRANCH   6   7
ATOM      7  C   UNL     1       2.201   6.710  18.427  0.00  0.00    +0.000 A 
ATOM      8  C   UNL     1       2.057   7.893  17.728  0.00  0.00    +0.000 A 
ATOM      9  C   UNL     1       1.695   8.897  18.664  0.00  0.00    +0.000 A 
ATOM     10  C   UNL     1       1.397  10.271  18.604  0.00  0.00    +0.000 A 
ATOM     11  C   UNL     1       1.053  10.939  19.789  0.00  0.00    +0.000 A 
ATOM     12  C   UNL     1       0.998  10.247  20.998  0.00  0.00    +0.000 A 
ATOM     13  C   UNL     1       1.289   8.885  21.087  0.00  0.00    +0.000 A 
ATOM     14  C   UNL     1       1.642   8.259  19.895  0.00  0.00    +0.000 A 
ATOM     15  O   UNL     1       1.982   6.948  19.755  0.00  0.00    +0.000 OA
BRANCH  12  16
ATOM     16  O   UNL     1       0.656  10.889  22.156  0.00  0.00    +0.000 OA
ATOM     17  H   UNL     1       0.426  11.810  21.949  0.00  0.00    +0.000 HD
ENDBRANCH  12  16
ENDBRANCH   6   7
BRANCH   2  18
ATOM     18  O   UNL     1       5.194   3.107  16.645  0.00  0.00    +0.000 OA
ATOM     19  H   UNL     1       5.094   2.170  16.431  0.00  0.00    +0.000 HD
ENDBRANCH   2  18
BRANCH   4  20
ATOM     20  O   UNL     1       0.901   2.077  18.259  0.00  0.00    +0.000 OA
ATOM     21  H   UNL     1       0.037   2.520  18.211  0.00  0.00    +0.000 HD
ENDBRANCH   4  20
BRANCH   1  22
ATOM     22  C   UNL     1       4.920   5.972  17.267  0.00  0.00    +0.000 C 
BRANCH  22  25
ATOM     23  C   UNL     1       7.157   6.507  18.406  0.00  0.00    +0.000 C 
ATOM     24  C   UNL     1       8.267   6.024  19.301  0.00  0.00    +0.000 C 
ATOM     25  C   UNL     1       6.112   5.689  18.145  0.00  0.00    +0.000 C 
BRANCH  23  26
ATOM     26  C   UNL     1       7.290   7.900  17.835  0.00  0.00    +0.000 C 
BRANCH  26  27
ATOM     27  C   UNL     1       8.570   8.612  18.297  0.00  0.00    +0.000 C 
BRANCH  27  30
ATOM     28  C   UNL     1       8.969  11.118  18.476  0.00  0.00    +0.000 C 
ATOM     29  C   UNL     1       9.096  12.424  17.732  0.00  0.00    +0.000 C 
ATOM     30  C   UNL     1       8.671  10.012  17.759  0.00  0.00    +0.000 C 
BRANCH  28  31
ATOM     31  C   UNL     1       9.229  11.052  19.976  0.00  0.00    +0.000 C 
BRANCH  31  32
ATOM     32  C   UNL     1      10.480  11.774  20.489  0.00  0.00    +0.000 C 
BRANCH  32  36
ATOM     33  C   UNL     1       9.291  14.924  22.438  0.00  0.00    +0.000 C 
ATOM     34  C   UNL     1       9.501  13.496  22.029  0.00  0.00    +0.000 C 
ATOM     35  C   UNL     1       8.866  12.430  22.879  0.00  0.00    +0.000 C 
ATOM     36  C   UNL     1      10.235  13.190  20.939  0.00  0.00    +0.000 C 
ENDBRANCH  32  36
ENDBRANCH  31  32
ENDBRANCH  28  31
ENDBRANCH  27  30
ENDBRANCH  26  27
ENDBRANCH  23  26
ENDBRANCH  22  25
ENDBRANCH   1  22
TORSDOF 12
ENDMDL
