MODEL 1
REMARK VINA RESULT:      -7.2      0.000      0.000
REMARK  Name = 
REMARK  5 active torsions:
REMARK  status: ('A' for Active; 'I' for Inactive)
REMARK    1  A    between atoms: C_1  and  C_2
REMARK    2  A    between atoms: C_6  and  C_7
REMARK    3  A    between atoms: C_20  and  N_21
REMARK    4  A    between atoms: C_24  and  O_25
REMARK    5  A    between atoms: C_26  and  O_27
REMARK                            x       y       z     vdW  Elec       q    Type
REMARK                         _______ _______ _______ _____ _____    ______ ____
ROOT
ATOM      1  C   UNL     1      -2.704  11.708  18.252  0.00  0.00    +0.000 A 
ATOM      2  C   UNL     1      -3.550  12.058  19.297  0.00  0.00    +0.000 A 
ATOM      3  C   UNL     1      -4.924  11.919  19.072  0.00  0.00    +0.000 A 
ATOM      4  C   UNL     1      -5.408  11.443  17.857  0.00  0.00    +0.000 A 
ATOM      5  C   UNL     1      -4.508  11.144  16.837  0.00  0.00    +0.000 A 
ATOM      6  N   UNL     1      -3.175  11.279  17.046  0.00  0.00    +0.000 NA
ATOM      7  C   UNL     1      -6.799  11.368  18.027  0.00  0.00    +0.000 A 
ATOM      8  N   UNL     1      -7.193  11.759  19.239  0.00  0.00    +0.000 NA
ATOM      9  N   UNL     1      -6.041  12.133  19.870  0.00  0.00    +0.000 N 
ATOM     10  C   UNL     1      -6.056  12.622  21.214  0.00  0.00    +0.000 A 
ATOM     11  C   UNL     1      -7.256  12.559  21.914  0.00  0.00    +0.000 A 
ATOM     12  C   UNL     1      -7.240  12.891  23.258  0.00  0.00    +0.000 A 
ATOM     13  C   UNL     1      -6.047  13.314  23.835  0.00  0.00    +0.000 A 
ATOM     14  C   UNL     1      -4.889  13.432  23.064  0.00  0.00    +0.000 A 
ATOM     15  N   UNL     1      -4.903  13.083  21.764  0.00  0.00    +0.000 NA
ENDROOT
BRANCH   1  21
ATOM     16  C   UNL     1       1.591   9.403  18.295  0.00  0.00    +0.000 C 
ATOM     17  C   UNL     1       0.809  10.671  18.439  0.00  0.00    +0.000 A 
ATOM     18  C   UNL     1       1.445  11.884  18.660  0.00  0.00    +0.000 A 
ATOM     19  N   UNL     1       0.781  13.058  18.742  0.00  0.00    +0.000 NA
ATOM     20  C   UNL     1      -0.563  12.967  18.598  0.00  0.00    +0.000 A 
ATOM     21  C   UNL     1      -1.237  11.764  18.396  0.00  0.00    +0.000 A 
ATOM     22  N   UNL     1      -0.538  10.591  18.309  0.00  0.00    +0.000 NA
ENDBRANCH   1  21
BRANCH  14  23
ATOM     23  N   UNL     1      -3.747  13.966  23.611  0.00  0.00    +0.000 N 
ATOM     24  C   UNL     1      -2.538  13.157  23.718  0.00  0.00    +0.000 C 
ATOM     25  C   UNL     1      -1.359  14.045  23.300  0.00  0.00    +0.000 C 
ATOM     26  C   UNL     1      -1.323  15.360  24.085  0.00  0.00    +0.000 C 
ATOM     27  C   UNL     1      -2.674  16.100  24.064  0.00  0.00    +0.000 C 
ATOM     28  C   UNL     1      -3.822  15.159  24.444  0.00  0.00    +0.000 C 
BRANCH  26  29
ATOM     29  O   UNL     1      -0.920  15.139  25.446  0.00  0.00    +0.000 OA
ATOM     30  H   UNL     1      -0.001  15.438  25.552  0.00  0.00    +0.000 HD
ENDBRANCH  26  29
BRANCH  27  31
ATOM     31  O   UNL     1      -2.636  17.210  24.964  0.00  0.00    +0.000 OA
ATOM     32  H   UNL     1      -1.688  17.390  25.129  0.00  0.00    +0.000 HD
ENDBRANCH  27  31
ENDBRANCH  14  23
TORSDOF 4
ENDMDL
MODEL 2
REMARK VINA RESULT:      -7.2      2.163      6.249
REMARK  Name = 
REMARK  5 active torsions:
REMARK  status: ('A' for Active; 'I' for Inactive)
REMARK    1  A    between atoms: C_1  and  C_2
REMARK    2  A    between atoms: C_6  and  C_7
REMARK    3  A    between atoms: C_20  and  N_21
REMARK    4  A    between atoms: C_24  and  O_25
REMARK    5  A    between atoms: C_26  and  O_27
REMARK                            x       y       z     vdW  Elec       q    Type
REMARK                         _______ _______ _______ _____ _____    ______ ____
ROOT
ATOM      1  C   UNL     1      -5.756  14.309  21.709  0.00  0.00    +0.000 A 
ATOM      2  C   UNL     1      -5.199  13.556  20.684  0.00  0.00    +0.000 A 
ATOM      3  C   UNL     1      -6.045  13.206  19.626  0.00  0.00    +0.000 A 
ATOM      4  C   UNL     1      -7.378  13.606  19.608  0.00  0.00    +0.000 A 
ATOM      5  C   UNL     1      -7.883  14.329  20.686  0.00  0.00    +0.000 A 
ATOM      6  N   UNL     1      -7.071  14.671  21.716  0.00  0.00    +0.000 NA
ATOM      7  C   UNL     1      -7.877  13.145  18.380  0.00  0.00    +0.000 A 
ATOM      8  N   UNL     1      -6.961  12.501  17.659  0.00  0.00    +0.000 NA
ATOM      9  N   UNL     1      -5.842  12.506  18.442  0.00  0.00    +0.000 N 
ATOM     10  C   UNL     1      -4.626  11.895  18.003  0.00  0.00    +0.000 A 
ATOM     11  C   UNL     1      -4.568  11.432  16.692  0.00  0.00    +0.000 A 
ATOM     12  C   UNL     1      -3.349  10.978  16.219  0.00  0.00    +0.000 A 
ATOM     13  C   UNL     1      -2.255  10.960  17.078  0.00  0.00    +0.000 A 
ATOM     14  C   UNL     1      -2.391  11.364  18.408  0.00  0.00    +0.000 A 
ATOM     15  N   UNL     1      -3.571  11.830  18.856  0.00  0.00    +0.000 NA
ENDROOT
BRANCH   1  21
ATOM     16  C   UNL     1      -4.986  17.593  25.229  0.00  0.00    +0.000 C 
ATOM     17  C   UNL     1      -4.560  16.349  24.513  0.00  0.00    +0.000 A 
ATOM     18  C   UNL     1      -3.453  15.625  24.931  0.00  0.00    +0.000 A 
ATOM     19  N   UNL     1      -3.067  14.470  24.345  0.00  0.00    +0.000 NA
ATOM     20  C   UNL     1      -3.839  14.067  23.308  0.00  0.00    +0.000 A 
ATOM     21  C   UNL     1      -4.945  14.780  22.849  0.00  0.00    +0.000 A 
ATOM     22  N   UNL     1      -5.318  15.943  23.465  0.00  0.00    +0.000 NA
ENDBRANCH   1  21
BRANCH  14  23
ATOM     23  N   UNL     1      -1.338  11.228  19.282  0.00  0.00    +0.000 N 
ATOM     24  C   UNL     1      -0.337  10.190  19.067  0.00  0.00    +0.000 C 
ATOM     25  C   UNL     1       1.036  10.821  19.336  0.00  0.00    +0.000 C 
ATOM     26  C   UNL     1       1.098  11.500  20.708  0.00  0.00    +0.000 C 
ATOM     27  C   UNL     1      -0.072  12.476  20.940  0.00  0.00    +0.000 C 
ATOM     28  C   UNL     1      -1.414  11.812  20.615  0.00  0.00    +0.000 C 
BRANCH  26  29
ATOM     29  O   UNL     1       1.127  10.528  21.765  0.00  0.00    +0.000 OA
ATOM     30  H   UNL     1       2.027  10.493  22.131  0.00  0.00    +0.000 HD
ENDBRANCH  26  29
BRANCH  27  31
ATOM     31  O   UNL     1      -0.068  12.927  22.296  0.00  0.00    +0.000 OA
ATOM     32  H   UNL     1      -1.002  13.114  22.520  0.00  0.00    +0.000 HD
ENDBRANCH  27  31
ENDBRANCH  14  23
TORSDOF 4
ENDMDL
MODEL 3
REMARK VINA RESULT:      -7.2      0.760      1.303
REMARK  Name = 
REMARK  5 active torsions:
REMARK  status: ('A' for Active; 'I' for Inactive)
REMARK    1  A    between atoms: C_1  and  C_2
REMARK    2  A    between atoms: C_6  and  C_7
REMARK    3  A    between atoms: C_20  and  N_21
REMARK    4  A    between atoms: C_24  and  O_25
REMARK    5  A    between atoms: C_26  and  O_27
REMARK                            x       y       z     vdW  Elec       q    Type
REMARK                         _______ _______ _______ _____ _____    ______ ____
ROOT
ATOM      1  C   UNL     1      -2.703  11.642  18.299  0.00  0.00    +0.000 A 
ATOM      2  C   UNL     1      -3.547  12.094  19.306  0.00  0.00    +0.000 A 
ATOM      3  C   UNL     1      -4.921  11.933  19.099  0.00  0.00    +0.000 A 
ATOM      4  C   UNL     1      -5.408  11.337  17.939  0.00  0.00    +0.000 A 
ATOM      5  C   UNL     1      -4.510  10.939  16.953  0.00  0.00    +0.000 A 
ATOM      6  N   UNL     1      -3.176  11.094  17.143  0.00  0.00    +0.000 NA
ATOM      7  C   UNL     1      -6.798  11.279  18.120  0.00  0.00    +0.000 A 
ATOM      8  N   UNL     1      -7.190  11.789  19.287  0.00  0.00    +0.000 NA
ATOM      9  N   UNL     1      -6.036  12.225  19.875  0.00  0.00    +0.000 N 
ATOM     10  C   UNL     1      -6.048  12.846  21.163  0.00  0.00    +0.000 A 
ATOM     11  C   UNL     1      -7.247  12.853  21.869  0.00  0.00    +0.000 A 
ATOM     12  C   UNL     1      -7.228  13.317  23.173  0.00  0.00    +0.000 A 
ATOM     13  C   UNL     1      -6.033  13.796  23.702  0.00  0.00    +0.000 A 
ATOM     14  C   UNL     1      -4.877  13.837  22.920  0.00  0.00    +0.000 A 
ATOM     15  N   UNL     1      -4.895  13.360  21.661  0.00  0.00    +0.000 NA
ENDROOT
BRANCH   1  21
ATOM     16  C   UNL     1       1.606   9.366  18.423  0.00  0.00    +0.000 C 
ATOM     17  C   UNL     1       0.817  10.635  18.514  0.00  0.00    +0.000 A 
ATOM     18  C   UNL     1       1.447  11.860  18.677  0.00  0.00    +0.000 A 
ATOM     19  N   UNL     1       0.776  13.032  18.710  0.00  0.00    +0.000 NA
ATOM     20  C   UNL     1      -0.568  12.928  18.577  0.00  0.00    +0.000 A 
ATOM     21  C   UNL     1      -1.235  11.713  18.433  0.00  0.00    +0.000 A 
ATOM     22  N   UNL     1      -0.530  10.541  18.395  0.00  0.00    +0.000 NA
ENDBRANCH   1  21
BRANCH  14  23
ATOM     23  N   UNL     1      -3.734  14.424  23.408  0.00  0.00    +0.000 N 
ATOM     24  C   UNL     1      -3.813  15.391  24.496  0.00  0.00    +0.000 C 
ATOM     25  C   UNL     1      -2.672  15.072  25.471  0.00  0.00    +0.000 C 
ATOM     26  C   UNL     1      -1.314  15.008  24.767  0.00  0.00    +0.000 C 
ATOM     27  C   UNL     1      -1.329  14.087  23.532  0.00  0.00    +0.000 C 
ATOM     28  C   UNL     1      -2.511  14.416  22.615  0.00  0.00    +0.000 C 
BRANCH  26  29
ATOM     29  O   UNL     1      -0.871  16.319  24.379  0.00  0.00    +0.000 OA
ATOM     30  H   UNL     1      -1.496  16.679  23.728  0.00  0.00    +0.000 HD
ENDBRANCH  26  29
BRANCH  27  31
ATOM     31  O   UNL     1      -0.102  14.218  22.811  0.00  0.00    +0.000 OA
ATOM     32  H   UNL     1      -0.043  15.160  22.551  0.00  0.00    +0.000 HD
ENDBRANCH  27  31
ENDBRANCH  14  23
TORSDOF 4
ENDMDL
MODEL 4
REMARK VINA RESULT:      -7.2      2.861      6.563
REMARK  Name = 
REMARK  5 active torsions:
REMARK  status: ('A' for Active; 'I' for Inactive)
REMARK    1  A    between atoms: C_1  and  C_2
REMARK    2  A    between atoms: C_6  and  C_7
REMARK    3  A    between atoms: C_20  and  N_21
REMARK    4  A    between atoms: C_24  and  O_25
REMARK    5  A    between atoms: C_26  and  O_27
REMARK                            x       y       z     vdW  Elec       q    Type
REMARK                         _______ _______ _______ _____ _____    ______ ____
ROOT
ATOM      1  C   UNL     1      -5.048  13.860  21.378  0.00  0.00    +0.000 A 
ATOM      2  C   UNL     1      -4.388  13.000  20.509  0.00  0.00    +0.000 A 
ATOM      3  C   UNL     1      -5.035  12.697  19.307  0.00  0.00    +0.000 A 
ATOM      4  C   UNL     1      -6.277  13.244  19.001  0.00  0.00    +0.000 A 
ATOM      5  C   UNL     1      -6.902  14.071  19.932  0.00  0.00    +0.000 A 
ATOM      6  N   UNL     1      -6.283  14.367  21.101  0.00  0.00    +0.000 NA
ATOM      7  C   UNL     1      -6.567  12.784  17.707  0.00  0.00    +0.000 A 
ATOM      8  N   UNL     1      -5.607  12.006  17.209  0.00  0.00    +0.000 NA
ATOM      9  N   UNL     1      -4.679  11.923  18.208  0.00  0.00    +0.000 N 
ATOM     10  C   UNL     1      -3.482  11.158  18.048  0.00  0.00    +0.000 A 
ATOM     11  C   UNL     1      -3.213  10.629  16.790  0.00  0.00    +0.000 A 
ATOM     12  C   UNL     1      -1.987  10.018  16.592  0.00  0.00    +0.000 A 
ATOM     13  C   UNL     1      -1.102   9.917  17.662  0.00  0.00    +0.000 A 
ATOM     14  C   UNL     1      -1.457  10.398  18.924  0.00  0.00    +0.000 A 
ATOM     15  N   UNL     1      -2.640  11.015  19.104  0.00  0.00    +0.000 NA
ENDROOT
BRANCH   1  21
ATOM     16  C   UNL     1      -4.785  17.095  25.015  0.00  0.00    +0.000 C 
ATOM     17  C   UNL     1      -4.291  15.836  24.374  0.00  0.00    +0.000 A 
ATOM     18  C   UNL     1      -3.311  15.061  24.977  0.00  0.00    +0.000 A 
ATOM     19  N   UNL     1      -2.876  13.892  24.458  0.00  0.00    +0.000 NA
ATOM     20  C   UNL     1      -3.465  13.527  23.294  0.00  0.00    +0.000 A 
ATOM     21  C   UNL     1      -4.437  14.290  22.650  0.00  0.00    +0.000 A 
ATOM     22  N   UNL     1      -4.864  15.467  23.202  0.00  0.00    +0.000 NA
ENDBRANCH   1  21
BRANCH  14  23
ATOM     23  N   UNL     1      -0.631  10.186  20.001  0.00  0.00    +0.000 N 
ATOM     24  C   UNL     1      -0.659  11.100  21.137  0.00  0.00    +0.000 C 
ATOM     25  C   UNL     1      -0.610  10.244  22.410  0.00  0.00    +0.000 C 
ATOM     26  C   UNL     1       0.570   9.267  22.401  0.00  0.00    +0.000 C 
ATOM     27  C   UNL     1       0.639   8.432  21.107  0.00  0.00    +0.000 C 
ATOM     28  C   UNL     1       0.540   9.329  19.869  0.00  0.00    +0.000 C 
BRANCH  26  29
ATOM     29  O   UNL     1       1.815   9.959  22.590  0.00  0.00    +0.000 OA
ATOM     30  H   UNL     1       1.682  10.667  23.243  0.00  0.00    +0.000 HD
ENDBRANCH  26  29
BRANCH  27  31
ATOM     31  O   UNL     1       1.857   7.687  21.073  0.00  0.00    +0.000 OA
ATOM     32  H   UNL     1       2.062   7.549  20.125  0.00  0.00    +0.000 HD
ENDBRANCH  27  31
ENDBRANCH  14  23
TORSDOF 4
ENDMDL
MODEL 5
REMARK VINA RESULT:      -7.1      2.671      6.243
REMARK  Name = 
REMARK  5 active torsions:
REMARK  status: ('A' for Active; 'I' for Inactive)
REMARK    1  A    between atoms: C_1  and  C_2
REMARK    2  A    between atoms: C_6  and  C_7
REMARK    3  A    between atoms: C_20  and  N_21
REMARK    4  A    between atoms: C_24  and  O_25
REMARK    5  A    between atoms: C_26  and  O_27
REMARK                            x       y       z     vdW  Elec       q    Type
REMARK                         _______ _______ _______ _____ _____    ______ ____
ROOT
ATOM      1  C   UNL     1      -5.824  14.450  21.422  0.00  0.00    +0.000 A 
ATOM      2  C   UNL     1      -5.229  13.628  20.473  0.00  0.00    +0.000 A 
ATOM      3  C   UNL     1      -6.018  13.251  19.381  0.00  0.00    +0.000 A 
ATOM      4  C   UNL     1      -7.332  13.691  19.257  0.00  0.00    +0.000 A 
ATOM      5  C   UNL     1      -7.880  14.483  20.263  0.00  0.00    +0.000 A 
ATOM      6  N   UNL     1      -7.124  14.851  21.326  0.00  0.00    +0.000 NA
ATOM      7  C   UNL     1      -7.769  13.184  18.023  0.00  0.00    +0.000 A 
ATOM      8  N   UNL     1      -6.831  12.476  17.395  0.00  0.00    +0.000 NA
ATOM      9  N   UNL     1      -5.764  12.487  18.248  0.00  0.00    +0.000 N 
ATOM     10  C   UNL     1      -4.544  11.817  17.919  0.00  0.00    +0.000 A 
ATOM     11  C   UNL     1      -4.419  11.286  16.639  0.00  0.00    +0.000 A 
ATOM     12  C   UNL     1      -3.189  10.772  16.268  0.00  0.00    +0.000 A 
ATOM     13  C   UNL     1      -2.153  10.764  17.197  0.00  0.00    +0.000 A 
ATOM     14  C   UNL     1      -2.358  11.239  18.493  0.00  0.00    +0.000 A 
ATOM     15  N   UNL     1      -3.548  11.762  18.841  0.00  0.00    +0.000 NA
ENDROOT
BRANCH   1  21
ATOM     16  C   UNL     1      -1.749  14.435  24.097  0.00  0.00    +0.000 C 
ATOM     17  C   UNL     1      -3.143  14.935  23.877  0.00  0.00    +0.000 A 
ATOM     18  C   UNL     1      -3.706  15.881  24.720  0.00  0.00    +0.000 A 
ATOM     19  N   UNL     1      -4.940  16.396  24.526  0.00  0.00    +0.000 NA
ATOM     20  C   UNL     1      -5.598  15.917  23.443  0.00  0.00    +0.000 A 
ATOM     21  C   UNL     1      -5.071  14.952  22.588  0.00  0.00    +0.000 A 
ATOM     22  N   UNL     1      -3.816  14.452  22.803  0.00  0.00    +0.000 NA
ENDBRANCH   1  21
BRANCH  14  23
ATOM     23  N   UNL     1      -1.369  11.115  19.439  0.00  0.00    +0.000 N 
ATOM     24  C   UNL     1      -1.243  12.106  20.502  0.00  0.00    +0.000 C 
ATOM     25  C   UNL     1      -0.974  11.342  21.805  0.00  0.00    +0.000 C 
ATOM     26  C   UNL     1       0.214  10.384  21.676  0.00  0.00    +0.000 C 
ATOM     27  C   UNL     1       0.102   9.462  20.447  0.00  0.00    +0.000 C 
ATOM     28  C   UNL     1      -0.211  10.268  19.182  0.00  0.00    +0.000 C 
BRANCH  26  29
ATOM     29  O   UNL     1       1.456  11.105  21.621  0.00  0.00    +0.000 OA
ATOM     30  H   UNL     1       1.474  11.631  20.803  0.00  0.00    +0.000 HD
ENDBRANCH  26  29
BRANCH  27  31
ATOM     31  O   UNL     1       1.319   8.733  20.271  0.00  0.00    +0.000 OA
ATOM     32  H   UNL     1       1.379   8.122  21.033  0.00  0.00    +0.000 HD
ENDBRANCH  27  31
ENDBRANCH  14  23
TORSDOF 4
ENDMDL
MODEL 6
REMARK VINA RESULT:      -7.1      2.645      6.883
REMARK  Name = 
REMARK  5 active torsions:
REMARK  status: ('A' for Active; 'I' for Inactive)
REMARK    1  A    between atoms: C_1  and  C_2
REMARK    2  A    between atoms: C_6  and  C_7
REMARK    3  A    between atoms: C_20  and  N_21
REMARK    4  A    between atoms: C_24  and  O_25
REMARK    5  A    between atoms: C_26  and  O_27
REMARK                            x       y       z     vdW  Elec       q    Type
REMARK                         _______ _______ _______ _____ _____    ______ ____
ROOT
ATOM      1  C   UNL     1      -0.969  12.100  21.742  0.00  0.00    +0.000 A 
ATOM      2  C   UNL     1      -1.542  11.787  20.516  0.00  0.00    +0.000 A 
ATOM      3  C   UNL     1      -0.737  11.105  19.598  0.00  0.00    +0.000 A 
ATOM      4  C   UNL     1       0.573  10.754  19.912  0.00  0.00    +0.000 A 
ATOM      5  C   UNL     1       1.099  11.130  21.145  0.00  0.00    +0.000 A 
ATOM      6  N   UNL     1       0.326  11.794  22.040  0.00  0.00    +0.000 NA
ATOM      7  C   UNL     1       1.029  10.029  18.800  0.00  0.00    +0.000 A 
ATOM      8  N   UNL     1       0.109   9.915  17.844  0.00  0.00    +0.000 NA
ATOM      9  N   UNL     1      -0.968  10.609  18.320  0.00  0.00    +0.000 N 
ATOM     10  C   UNL     1      -2.175  10.719  17.561  0.00  0.00    +0.000 A 
ATOM     11  C   UNL     1      -2.278   9.969  16.394  0.00  0.00    +0.000 A 
ATOM     12  C   UNL     1      -3.497   9.957  15.738  0.00  0.00    +0.000 A 
ATOM     13  C   UNL     1      -4.543  10.724  16.242  0.00  0.00    +0.000 A 
ATOM     14  C   UNL     1      -4.358  11.519  17.374  0.00  0.00    +0.000 A 
ATOM     15  N   UNL     1      -3.179  11.507  18.024  0.00  0.00    +0.000 NA
ENDROOT
BRANCH   1  21
ATOM     16  C   UNL     1      -4.933  12.256  24.575  0.00  0.00    +0.000 C 
ATOM     17  C   UNL     1      -3.635  12.864  24.142  0.00  0.00    +0.000 A 
ATOM     18  C   UNL     1      -3.141  14.008  24.752  0.00  0.00    +0.000 A 
ATOM     19  N   UNL     1      -1.949  14.556  24.427  0.00  0.00    +0.000 NA
ATOM     20  C   UNL     1      -1.266  13.909  23.453  0.00  0.00    +0.000 A 
ATOM     21  C   UNL     1      -1.741  12.771  22.805  0.00  0.00    +0.000 A 
ATOM     22  N   UNL     1      -2.948  12.232  23.158  0.00  0.00    +0.000 NA
ENDBRANCH   1  21
BRANCH  14  23
ATOM     23  N   UNL     1      -5.356  12.366  17.794  0.00  0.00    +0.000 N 
ATOM     24  C   UNL     1      -6.047  13.217  16.833  0.00  0.00    +0.000 C 
ATOM     25  C   UNL     1      -7.542  13.167  17.176  0.00  0.00    +0.000 C 
ATOM     26  C   UNL     1      -7.807  13.511  18.645  0.00  0.00    +0.000 C 
ATOM     27  C   UNL     1      -6.937  12.686  19.613  0.00  0.00    +0.000 C 
ATOM     28  C   UNL     1      -5.462  12.732  19.201  0.00  0.00    +0.000 C 
BRANCH  26  29
ATOM     29  O   UNL     1      -7.603  14.911  18.893  0.00  0.00    +0.000 OA
ATOM     30  H   UNL     1      -6.878  15.011  19.533  0.00  0.00    +0.000 HD
ENDBRANCH  26  29
BRANCH  27  31
ATOM     31  O   UNL     1      -7.086  13.183  20.945  0.00  0.00    +0.000 OA
ATOM     32  H   UNL     1      -8.002  12.966  21.212  0.00  0.00    +0.000 HD
ENDBRANCH  27  31
ENDBRANCH  14  23
TORSDOF 4
ENDMDL
MODEL 7
REMARK VINA RESULT:      -7.1      0.674      1.275
REMARK  Name = 
REMARK  5 active torsions:
REMARK  status: ('A' for Active; 'I' for Inactive)
REMARK    1  A    between atoms: C_1  and  C_2
REMARK    2  A    between atoms: C_6  and  C_7
REMARK    3  A    between atoms: C_20  and  N_21
REMARK    4  A    between atoms: C_24  and  O_25
REMARK    5  A    between atoms: C_26  and  O_27
REMARK                            x       y       z     vdW  Elec       q    Type
REMARK                         _______ _______ _______ _____ _____    ______ ____
ROOT
ATOM      1  C   UNL     1      -2.651  11.736  18.280  0.00  0.00    +0.000 A 
ATOM      2  C   UNL     1      -3.495  12.072  19.331  0.00  0.00    +0.000 A 
ATOM      3  C   UNL     1      -4.868  11.913  19.115  0.00  0.00    +0.000 A 
ATOM      4  C   UNL     1      -5.354  11.431  17.902  0.00  0.00    +0.000 A 
ATOM      5  C   UNL     1      -4.455  11.147  16.877  0.00  0.00    +0.000 A 
ATOM      6  N   UNL     1      -3.123  11.302  17.077  0.00  0.00    +0.000 NA
ATOM      7  C   UNL     1      -6.742  11.335  18.082  0.00  0.00    +0.000 A 
ATOM      8  N   UNL     1      -7.134  11.718  19.296  0.00  0.00    +0.000 NA
ATOM      9  N   UNL     1      -5.983  12.109  19.921  0.00  0.00    +0.000 N 
ATOM     10  C   UNL     1      -5.997  12.596  21.265  0.00  0.00    +0.000 A 
ATOM     11  C   UNL     1      -7.191  12.514  21.973  0.00  0.00    +0.000 A 
ATOM     12  C   UNL     1      -7.171  12.844  23.317  0.00  0.00    +0.000 A 
ATOM     13  C   UNL     1      -5.981  13.284  23.887  0.00  0.00    +0.000 A 
ATOM     14  C   UNL     1      -4.830  13.421  23.109  0.00  0.00    +0.000 A 
ATOM     15  N   UNL     1      -4.847  13.074  21.808  0.00  0.00    +0.000 NA
ENDROOT
BRANCH   1  21
ATOM     16  C   UNL     1       1.375  14.450  18.714  0.00  0.00    +0.000 C 
ATOM     17  C   UNL     1       0.739  13.100  18.600  0.00  0.00    +0.000 A 
ATOM     18  C   UNL     1       1.499  11.942  18.663  0.00  0.00    +0.000 A 
ATOM     19  N   UNL     1       0.958  10.704  18.618  0.00  0.00    +0.000 NA
ATOM     20  C   UNL     1      -0.391  10.672  18.501  0.00  0.00    +0.000 A 
ATOM     21  C   UNL     1      -1.184  11.814  18.414  0.00  0.00    +0.000 A 
ATOM     22  N   UNL     1      -0.610  13.056  18.470  0.00  0.00    +0.000 NA
ENDBRANCH   1  21
BRANCH  14  23
ATOM     23  N   UNL     1      -3.692  13.971  23.649  0.00  0.00    +0.000 N 
ATOM     24  C   UNL     1      -2.469  13.183  23.740  0.00  0.00    +0.000 C 
ATOM     25  C   UNL     1      -1.309  14.094  23.317  0.00  0.00    +0.000 C 
ATOM     26  C   UNL     1      -1.289  15.405  24.110  0.00  0.00    +0.000 C 
ATOM     27  C   UNL     1      -2.653  16.121  24.107  0.00  0.00    +0.000 C 
ATOM     28  C   UNL     1      -3.781  15.157  24.491  0.00  0.00    +0.000 C 
BRANCH  26  29
ATOM     29  O   UNL     1      -0.869  15.181  25.467  0.00  0.00    +0.000 OA
ATOM     30  H   UNL     1      -1.256  14.345  25.778  0.00  0.00    +0.000 HD
ENDBRANCH  26  29
BRANCH  27  31
ATOM     31  O   UNL     1      -2.626  17.225  25.014  0.00  0.00    +0.000 OA
ATOM     32  H   UNL     1      -2.290  16.868  25.862  0.00  0.00    +0.000 HD
ENDBRANCH  27  31
ENDBRANCH  14  23
TORSDOF 4
ENDMDL
MODEL 8
REMARK VINA RESULT:      -7.1      1.072      1.867
REMARK  Name = 
REMARK  5 active torsions:
REMARK  status: ('A' for Active; 'I' for Inactive)
REMARK    1  A    between atoms: C_1  and  C_2
REMARK    2  A    between atoms: C_6  and  C_7
REMARK    3  A    between atoms: C_20  and  N_21
REMARK    4  A    between atoms: C_24  and  O_25
REMARK    5  A    between atoms: C_26  and  O_27
REMARK                            x       y       z     vdW  Elec       q    Type
REMARK                         _______ _______ _______ _____ _____    ______ ____
ROOT
ATOM      1  C   UNL     1      -2.359  11.844  18.330  0.00  0.00    +0.000 A 
ATOM      2  C   UNL     1      -3.247  12.190  19.341  0.00  0.00    +0.000 A 
ATOM      3  C   UNL     1      -4.598  11.905  19.119  0.00  0.00    +0.000 A 
ATOM      4  C   UNL     1      -5.021  11.296  17.942  0.00  0.00    +0.000 A 
ATOM      5  C   UNL     1      -4.084  11.008  16.953  0.00  0.00    +0.000 A 
ATOM      6  N   UNL     1      -2.772  11.284  17.158  0.00  0.00    +0.000 NA
ATOM      7  C   UNL     1      -6.401  11.103  18.110  0.00  0.00    +0.000 A 
ATOM      8  N   UNL     1      -6.845  11.544  19.286  0.00  0.00    +0.000 NA
ATOM      9  N   UNL     1      -5.741  12.072  19.893  0.00  0.00    +0.000 N 
ATOM     10  C   UNL     1      -5.818  12.656  21.196  0.00  0.00    +0.000 A 
ATOM     11  C   UNL     1      -7.016  12.533  21.893  0.00  0.00    +0.000 A 
ATOM     12  C   UNL     1      -7.048  12.964  23.207  0.00  0.00    +0.000 A 
ATOM     13  C   UNL     1      -5.907  13.540  23.757  0.00  0.00    +0.000 A 
ATOM     14  C   UNL     1      -4.756  13.709  22.986  0.00  0.00    +0.000 A 
ATOM     15  N   UNL     1      -4.721  13.264  21.716  0.00  0.00    +0.000 NA
ENDROOT
BRANCH   1  21
ATOM     16  C   UNL     1       1.418  14.899  18.734  0.00  0.00    +0.000 C 
ATOM     17  C   UNL     1       0.900  13.497  18.649  0.00  0.00    +0.000 A 
ATOM     18  C   UNL     1       1.754  12.410  18.750  0.00  0.00    +0.000 A 
ATOM     19  N   UNL     1       1.320  11.130  18.731  0.00  0.00    +0.000 NA
ATOM     20  C   UNL     1      -0.020  10.981  18.602  0.00  0.00    +0.000 A 
ATOM     21  C   UNL     1      -0.905  12.049  18.478  0.00  0.00    +0.000 A 
ATOM     22  N   UNL     1      -0.439  13.336  18.507  0.00  0.00    +0.000 NA
ENDBRANCH   1  21
BRANCH  14  23
ATOM     23  N   UNL     1      -3.676  14.388  23.497  0.00  0.00    +0.000 N 
ATOM     24  C   UNL     1      -3.854  15.326  24.599  0.00  0.00    +0.000 C 
ATOM     25  C   UNL     1      -2.700  15.095  25.583  0.00  0.00    +0.000 C 
ATOM     26  C   UNL     1      -1.333  15.165  24.895  0.00  0.00    +0.000 C 
ATOM     27  C   UNL     1      -1.252  14.267  23.646  0.00  0.00    +0.000 C 
ATOM     28  C   UNL     1      -2.449  14.504  22.719  0.00  0.00    +0.000 C 
BRANCH  26  29
ATOM     29  O   UNL     1      -1.006  16.517  24.534  0.00  0.00    +0.000 OA
ATOM     30  H   UNL     1      -0.600  16.955  25.301  0.00  0.00    +0.000 HD
ENDBRANCH  26  29
BRANCH  27  31
ATOM     31  O   UNL     1      -0.034  14.520  22.942  0.00  0.00    +0.000 OA
ATOM     32  H   UNL     1       0.644  14.687  23.629  0.00  0.00    +0.000 HD
ENDBRANCH  27  31
ENDBRANCH  14  23
TORSDOF 4
ENDMDL
MODEL 9
REMARK VINA RESULT:      -7.0      2.927      4.322
REMARK  Name = 
REMARK  5 active torsions:
REMARK  status: ('A' for Active; 'I' for Inactive)
REMARK    1  A    between atoms: C_1  and  C_2
REMARK    2  A    between atoms: C_6  and  C_7
REMARK    3  A    between atoms: C_20  and  N_21
REMARK    4  A    between atoms: C_24  and  O_25
REMARK    5  A    between atoms: C_26  and  O_27
REMARK                            x       y       z     vdW  Elec       q    Type
REMARK                         _______ _______ _______ _____ _____    ______ ____
ROOT
ATOM      1  C   UNL     1      -4.901  12.023  17.646  0.00  0.00    +0.000 A 
ATOM      2  C   UNL     1      -4.643  12.228  18.995  0.00  0.00    +0.000 A 
ATOM      3  C   UNL     1      -5.543  13.038  19.695  0.00  0.00    +0.000 A 
ATOM      4  C   UNL     1      -6.647  13.601  19.061  0.00  0.00    +0.000 A 
ATOM      5  C   UNL     1      -6.828  13.386  17.697  0.00  0.00    +0.000 A 
ATOM      6  N   UNL     1      -5.958  12.604  17.011  0.00  0.00    +0.000 NA
ATOM      7  C   UNL     1      -7.346  14.269  20.078  0.00  0.00    +0.000 A 
ATOM      8  N   UNL     1      -6.757  14.159  21.268  0.00  0.00    +0.000 NA
ATOM      9  N   UNL     1      -5.627  13.431  21.026  0.00  0.00    +0.000 N 
ATOM     10  C   UNL     1      -4.716  13.102  22.078  0.00  0.00    +0.000 A 
ATOM     11  C   UNL     1      -5.091  13.410  23.382  0.00  0.00    +0.000 A 
ATOM     12  C   UNL     1      -4.284  12.960  24.412  0.00  0.00    +0.000 A 
ATOM     13  C   UNL     1      -3.118  12.266  24.102  0.00  0.00    +0.000 A 
ATOM     14  C   UNL     1      -2.751  12.054  22.772  0.00  0.00    +0.000 A 
ATOM     15  N   UNL     1      -3.553  12.471  21.774  0.00  0.00    +0.000 NA
ENDROOT
BRANCH   1  21
ATOM     16  C   UNL     1      -3.925   9.988  13.325  0.00  0.00    +0.000 C 
ATOM     17  C   UNL     1      -3.590  10.155  14.774  0.00  0.00    +0.000 A 
ATOM     18  C   UNL     1      -2.479   9.537  15.329  0.00  0.00    +0.000 A 
ATOM     19  N   UNL     1      -2.112   9.705  16.619  0.00  0.00    +0.000 NA
ATOM     20  C   UNL     1      -2.914  10.524  17.341  0.00  0.00    +0.000 A 
ATOM     21  C   UNL     1      -4.048  11.144  16.822  0.00  0.00    +0.000 A 
ATOM     22  N   UNL     1      -4.393  10.962  15.511  0.00  0.00    +0.000 NA
ENDBRANCH   1  21
BRANCH  14  23
ATOM     23  N   UNL     1      -1.539  11.478  22.473  0.00  0.00    +0.000 N 
ATOM     24  C   UNL     1      -1.046  10.357  23.264  0.00  0.00    +0.000 C 
ATOM     25  C   UNL     1      -0.460   9.332  22.284  0.00  0.00    +0.000 C 
ATOM     26  C   UNL     1       0.575   9.960  21.345  0.00  0.00    +0.000 C 
ATOM     27  C   UNL     1       0.050  11.231  20.650  0.00  0.00    +0.000 C 
ATOM     28  C   UNL     1      -0.564  12.200  21.666  0.00  0.00    +0.000 C 
BRANCH  26  29
ATOM     29  O   UNL     1       1.790  10.266  22.048  0.00  0.00    +0.000 OA
ATOM     30  H   UNL     1       2.499  10.407  21.397  0.00  0.00    +0.000 HD
ENDBRANCH  26  29
BRANCH  27  31
ATOM     31  O   UNL     1       1.114  11.876  19.946  0.00  0.00    +0.000 OA
ATOM     32  H   UNL     1       1.373  12.644  20.494  0.00  0.00    +0.000 HD
ENDBRANCH  27  31
ENDBRANCH  14  23
TORSDOF 4
ENDMDL
