MODEL 1
REMARK VINA RESULT:      -8.2      0.000      0.000
REMARK  Name = 
REMARK  2 active torsions:
REMARK  status: ('A' for Active; 'I' for Inactive)
REMARK    1  A    between atoms: C_1  and  C_13
REMARK    2  A    between atoms: C_2  and  C_3
REMARK                            x       y       z     vdW  Elec       q    Type
REMARK                         _______ _______ _______ _____ _____    ______ ____
ROOT
ATOM      1  C   UNL     1       2.269   7.477  19.648  0.00  0.00    +0.000 C 
ATOM      2  C   UNL     1       2.345   7.108  18.360  0.00  0.00    +0.000 C 
ENDROOT
BRANCH   2   3
ATOM      3  C   UNL     1       3.176   5.974  17.925  0.00  0.00    +0.000 A 
ATOM      4  C   UNL     1       4.423   6.279  17.377  0.00  0.00    +0.000 A 
ATOM      5  C   UNL     1       5.234   5.237  16.977  0.00  0.00    +0.000 A 
ATOM      6  N   UNL     1       4.895   3.938  17.088  0.00  0.00    +0.000 NA
ATOM      7  C   UNL     1       3.695   3.638  17.613  0.00  0.00    +0.000 A 
ATOM      8  C   UNL     1       3.351   2.298  17.731  0.00  0.00    +0.000 A 
ATOM      9  C   UNL     1       2.125   1.894  18.260  0.00  0.00    +0.000 A 
ATOM     10  C   UNL     1       1.211   2.850  18.682  0.00  0.00    +0.000 A 
ATOM     11  C   UNL     1       1.533   4.203  18.578  0.00  0.00    +0.000 A 
ATOM     12  C   UNL     1       2.777   4.621  18.048  0.00  0.00    +0.000 A 
ENDBRANCH   2   3
BRANCH   1  13
ATOM     13  C   UNL     1       1.404   8.554  20.157  0.00  0.00    +0.000 A 
ATOM     14  C   UNL     1       0.957   9.611  19.328  0.00  0.00    +0.000 A 
ATOM     15  C   UNL     1       0.098  10.604  19.815  0.00  0.00    +0.000 A 
ATOM     16  C   UNL     1      -0.302  10.516  21.129  0.00  0.00    +0.000 A 
ATOM     17  C   UNL     1       0.111   9.487  21.940  0.00  0.00    +0.000 A 
ATOM     18  C   UNL     1       0.952   8.490  21.484  0.00  0.00    +0.000 A 
ATOM     19  O   UNL     1      -0.400   9.582  23.197  0.00  0.00    +0.000 OA
ATOM     20  C   UNL     1      -1.131  10.823  23.099  0.00  0.00    +0.000 C 
ATOM     21  O   UNL     1      -1.123  11.388  21.772  0.00  0.00    +0.000 OA
ENDBRANCH   1  13
TORSDOF 2
ENDMDL
MODEL 2
REMARK VINA RESULT:      -8.2      7.198      9.874
REMARK  Name = 
REMARK  2 active torsions:
REMARK  status: ('A' for Active; 'I' for Inactive)
REMARK    1  A    between atoms: C_1  and  C_13
REMARK    2  A    between atoms: C_2  and  C_3
REMARK                            x       y       z     vdW  Elec       q    Type
REMARK                         _______ _______ _______ _____ _____    ______ ____
ROOT
ATOM      1  C   UNL     1       8.372   9.017  17.928  0.00  0.00    +0.000 C 
ATOM      2  C   UNL     1       8.975   9.566  18.995  0.00  0.00    +0.000 C 
ENDROOT
BRANCH   2   3
ATOM      3  C   UNL     1       9.567  10.911  18.945  0.00  0.00    +0.000 A 
ATOM      4  C   UNL     1      10.163  11.295  17.742  0.00  0.00    +0.000 A 
ATOM      5  C   UNL     1      10.711  12.558  17.657  0.00  0.00    +0.000 A 
ATOM      6  N   UNL     1      10.702  13.449  18.667  0.00  0.00    +0.000 NA
ATOM      7  C   UNL     1      10.132  13.085  19.829  0.00  0.00    +0.000 A 
ATOM      8  C   UNL     1      10.119  14.008  20.866  0.00  0.00    +0.000 A 
ATOM      9  C   UNL     1       9.553  13.715  22.107  0.00  0.00    +0.000 A 
ATOM     10  C   UNL     1       8.984  12.468  22.326  0.00  0.00    +0.000 A 
ATOM     11  C   UNL     1       8.980  11.524  21.299  0.00  0.00    +0.000 A 
ATOM     12  C   UNL     1       9.547  11.814  20.036  0.00  0.00    +0.000 A 
ENDBRANCH   2   3
BRANCH   1  13
ATOM     13  C   UNL     1       7.700   7.708  17.933  0.00  0.00    +0.000 A 
ATOM     14  C   UNL     1       8.119   6.653  18.778  0.00  0.00    +0.000 A 
ATOM     15  C   UNL     1       7.440   5.428  18.803  0.00  0.00    +0.000 A 
ATOM     16  C   UNL     1       6.348   5.284  17.979  0.00  0.00    +0.000 A 
ATOM     17  C   UNL     1       5.920   6.305  17.165  0.00  0.00    +0.000 A 
ATOM     18  C   UNL     1       6.566   7.527  17.126  0.00  0.00    +0.000 A 
ATOM     19  O   UNL     1       4.824   5.962  16.437  0.00  0.00    +0.000 OA
ATOM     20  C   UNL     1       4.650   4.587  16.841  0.00  0.00    +0.000 C 
ATOM     21  O   UNL     1       5.576   4.170  17.866  0.00  0.00    +0.000 OA
ENDBRANCH   1  13
TORSDOF 2
ENDMDL
MODEL 3
REMARK VINA RESULT:      -7.9      0.822      2.672
REMARK  Name = 
REMARK  2 active torsions:
REMARK  status: ('A' for Active; 'I' for Inactive)
REMARK    1  A    between atoms: C_1  and  C_13
REMARK    2  A    between atoms: C_2  and  C_3
REMARK                            x       y       z     vdW  Elec       q    Type
REMARK                         _______ _______ _______ _____ _____    ______ ____
ROOT
ATOM      1  C   UNL     1       2.250   7.212  19.616  0.00  0.00    +0.000 C 
ATOM      2  C   UNL     1       2.334   6.870  18.320  0.00  0.00    +0.000 C 
ENDROOT
BRANCH   2   3
ATOM      3  C   UNL     1       3.074   5.677  17.880  0.00  0.00    +0.000 A 
ATOM      4  C   UNL     1       2.369   4.472  17.849  0.00  0.00    +0.000 A 
ATOM      5  C   UNL     1       3.029   3.339  17.423  0.00  0.00    +0.000 A 
ATOM      6  N   UNL     1       4.318   3.325  17.028  0.00  0.00    +0.000 NA
ATOM      7  C   UNL     1       5.002   4.481  17.058  0.00  0.00    +0.000 A 
ATOM      8  C   UNL     1       6.328   4.465  16.645  0.00  0.00    +0.000 A 
ATOM      9  C   UNL     1       7.116   5.616  16.646  0.00  0.00    +0.000 A 
ATOM     10  C   UNL     1       6.572   6.820  17.072  0.00  0.00    +0.000 A 
ATOM     11  C   UNL     1       5.241   6.866  17.488  0.00  0.00    +0.000 A 
ATOM     12  C   UNL     1       4.433   5.703  17.485  0.00  0.00    +0.000 A 
ENDBRANCH   2   3
BRANCH   1  13
ATOM     13  C   UNL     1       1.468   8.350  20.128  0.00  0.00    +0.000 A 
ATOM     14  C   UNL     1       1.140   9.460  19.315  0.00  0.00    +0.000 A 
ATOM     15  C   UNL     1       0.358  10.514  19.804  0.00  0.00    +0.000 A 
ATOM     16  C   UNL     1      -0.085  10.432  21.104  0.00  0.00    +0.000 A 
ATOM     17  C   UNL     1       0.212   9.352  21.899  0.00  0.00    +0.000 A 
ATOM     18  C   UNL     1       0.975   8.295  21.441  0.00  0.00    +0.000 A 
ATOM     19  O   UNL     1      -0.325   9.463  23.145  0.00  0.00    +0.000 OA
ATOM     20  C   UNL     1      -0.941  10.766  23.059  0.00  0.00    +0.000 C 
ATOM     21  O   UNL     1      -0.845  11.359  21.747  0.00  0.00    +0.000 OA
ENDBRANCH   1  13
TORSDOF 2
ENDMDL
MODEL 4
REMARK VINA RESULT:      -7.9      1.409      2.489
REMARK  Name = 
REMARK  2 active torsions:
REMARK  status: ('A' for Active; 'I' for Inactive)
REMARK    1  A    between atoms: C_1  and  C_13
REMARK    2  A    between atoms: C_2  and  C_3
REMARK                            x       y       z     vdW  Elec       q    Type
REMARK                         _______ _______ _______ _____ _____    ______ ____
ROOT
ATOM      1  C   UNL     1       1.785   7.521  20.445  0.00  0.00    +0.000 C 
ATOM      2  C   UNL     1       2.471   7.284  19.316  0.00  0.00    +0.000 C 
ENDROOT
BRANCH   2   3
ATOM      3  C   UNL     1       3.154   6.002  19.079  0.00  0.00    +0.000 A 
ATOM      4  C   UNL     1       2.920   4.982  20.002  0.00  0.00    +0.000 A 
ATOM      5  C   UNL     1       3.531   3.762  19.797  0.00  0.00    +0.000 A 
ATOM      6  N   UNL     1       4.340   3.494  18.754  0.00  0.00    +0.000 NA
ATOM      7  C   UNL     1       4.571   4.474  17.862  0.00  0.00    +0.000 A 
ATOM      8  C   UNL     1       5.400   4.192  16.785  0.00  0.00    +0.000 A 
ATOM      9  C   UNL     1       5.699   5.149  15.814  0.00  0.00    +0.000 A 
ATOM     10  C   UNL     1       5.159   6.424  15.917  0.00  0.00    +0.000 A 
ATOM     11  C   UNL     1       4.320   6.731  16.987  0.00  0.00    +0.000 A 
ATOM     12  C   UNL     1       4.008   5.766  17.974  0.00  0.00    +0.000 A 
ENDBRANCH   2   3
BRANCH   1  13
ATOM     13  C   UNL     1       1.022   8.752  20.713  0.00  0.00    +0.000 A 
ATOM     14  C   UNL     1       0.710   9.678  19.690  0.00  0.00    +0.000 A 
ATOM     15  C   UNL     1      -0.055  10.822  19.953  0.00  0.00    +0.000 A 
ATOM     16  C   UNL     1      -0.497  11.014  21.241  0.00  0.00    +0.000 A 
ATOM     17  C   UNL     1      -0.216  10.114  22.241  0.00  0.00    +0.000 A 
ATOM     18  C   UNL     1       0.530   8.974  22.008  0.00  0.00    +0.000 A 
ATOM     19  O   UNL     1      -0.749  10.486  23.436  0.00  0.00    +0.000 OA
ATOM     20  C   UNL     1      -1.344  11.753  23.085  0.00  0.00    +0.000 C 
ATOM     21  O   UNL     1      -1.241  12.064  21.680  0.00  0.00    +0.000 OA
ENDBRANCH   1  13
TORSDOF 2
ENDMDL
MODEL 5
REMARK VINA RESULT:      -7.9      4.136      7.910
REMARK  Name = 
REMARK  2 active torsions:
REMARK  status: ('A' for Active; 'I' for Inactive)
REMARK    1  A    between atoms: C_1  and  C_13
REMARK    2  A    between atoms: C_2  and  C_3
REMARK                            x       y       z     vdW  Elec       q    Type
REMARK                         _______ _______ _______ _____ _____    ______ ____
ROOT
ATOM      1  C   UNL     1       2.314   7.991  18.030  0.00  0.00    +0.000 C 
ATOM      2  C   UNL     1       1.920   8.328  19.268  0.00  0.00    +0.000 C 
ENDROOT
BRANCH   2   3
ATOM      3  C   UNL     1       0.975   9.429  19.508  0.00  0.00    +0.000 A 
ATOM      4  C   UNL     1       0.612  10.203  18.404  0.00  0.00    +0.000 A 
ATOM      5  C   UNL     1      -0.287  11.232  18.593  0.00  0.00    +0.000 A 
ATOM      6  N   UNL     1      -0.842  11.534  19.783  0.00  0.00    +0.000 NA
ATOM      7  C   UNL     1      -0.495  10.794  20.850  0.00  0.00    +0.000 A 
ATOM      8  C   UNL     1      -1.073  11.105  22.074  0.00  0.00    +0.000 A 
ATOM      9  C   UNL     1      -0.769  10.394  23.236  0.00  0.00    +0.000 A 
ATOM     10  C   UNL     1       0.138   9.345  23.181  0.00  0.00    +0.000 A 
ATOM     11  C   UNL     1       0.730   9.009  21.964  0.00  0.00    +0.000 A 
ATOM     12  C   UNL     1       0.424   9.722  20.780  0.00  0.00    +0.000 A 
ENDBRANCH   2   3
BRANCH   1  13
ATOM     13  C   UNL     1       3.200   6.857  17.717  0.00  0.00    +0.000 A 
ATOM     14  C   UNL     1       2.815   5.517  17.957  0.00  0.00    +0.000 A 
ATOM     15  C   UNL     1       3.651   4.447  17.612  0.00  0.00    +0.000 A 
ATOM     16  C   UNL     1       4.861   4.743  17.028  0.00  0.00    +0.000 A 
ATOM     17  C   UNL     1       5.241   6.039  16.775  0.00  0.00    +0.000 A 
ATOM     18  C   UNL     1       4.433   7.113  17.097  0.00  0.00    +0.000 A 
ATOM     19  O   UNL     1       6.467   6.114  16.189  0.00  0.00    +0.000 OA
ATOM     20  C   UNL     1       6.839   4.720  16.161  0.00  0.00    +0.000 C 
ATOM     21  O   UNL     1       5.799   3.840  16.636  0.00  0.00    +0.000 OA
ENDBRANCH   1  13
TORSDOF 2
ENDMDL
MODEL 6
REMARK VINA RESULT:      -7.9      2.292      2.368
REMARK  Name = 
REMARK  2 active torsions:
REMARK  status: ('A' for Active; 'I' for Inactive)
REMARK    1  A    between atoms: C_1  and  C_13
REMARK    2  A    between atoms: C_2  and  C_3
REMARK                            x       y       z     vdW  Elec       q    Type
REMARK                         _______ _______ _______ _____ _____    ______ ____
ROOT
ATOM      1  C   UNL     1       2.339   8.796  17.742  0.00  0.00    +0.000 C 
ATOM      2  C   UNL     1       2.217   7.520  18.141  0.00  0.00    +0.000 C 
ENDROOT
BRANCH   2   3
ATOM      3  C   UNL     1       3.212   6.497  17.784  0.00  0.00    +0.000 A 
ATOM      4  C   UNL     1       4.475   6.951  17.400  0.00  0.00    +0.000 A 
ATOM      5  C   UNL     1       5.436   6.016  17.077  0.00  0.00    +0.000 A 
ATOM      6  N   UNL     1       5.230   4.685  17.113  0.00  0.00    +0.000 NA
ATOM      7  C   UNL     1       4.015   4.241  17.478  0.00  0.00    +0.000 A 
ATOM      8  C   UNL     1       3.808   2.869  17.520  0.00  0.00    +0.000 A 
ATOM      9  C   UNL     1       2.578   2.319  17.884  0.00  0.00    +0.000 A 
ATOM     10  C   UNL     1       1.522   3.157  18.214  0.00  0.00    +0.000 A 
ATOM     11  C   UNL     1       1.705   4.539  18.185  0.00  0.00    +0.000 A 
ATOM     12  C   UNL     1       2.950   5.106  17.822  0.00  0.00    +0.000 A 
ENDBRANCH   2   3
BRANCH   1  13
ATOM     13  C   UNL     1       1.418   9.879  18.124  0.00  0.00    +0.000 A 
ATOM     14  C   UNL     1       1.881  11.175  18.452  0.00  0.00    +0.000 A 
ATOM     15  C   UNL     1       0.989  12.208  18.769  0.00  0.00    +0.000 A 
ATOM     16  C   UNL     1      -0.356  11.921  18.748  0.00  0.00    +0.000 A 
ATOM     17  C   UNL     1      -0.820  10.671  18.414  0.00  0.00    +0.000 A 
ATOM     18  C   UNL     1       0.036   9.636  18.089  0.00  0.00    +0.000 A 
ATOM     19  O   UNL     1      -2.179  10.598  18.447  0.00  0.00    +0.000 OA
ATOM     20  C   UNL     1      -2.511  11.928  18.899  0.00  0.00    +0.000 C 
ATOM     21  O   UNL     1      -1.361  12.790  19.033  0.00  0.00    +0.000 OA
ENDBRANCH   1  13
TORSDOF 2
ENDMDL
MODEL 7
REMARK VINA RESULT:      -7.8      4.320      7.966
REMARK  Name = 
REMARK  2 active torsions:
REMARK  status: ('A' for Active; 'I' for Inactive)
REMARK    1  A    between atoms: C_1  and  C_13
REMARK    2  A    between atoms: C_2  and  C_3
REMARK                            x       y       z     vdW  Elec       q    Type
REMARK                         _______ _______ _______ _____ _____    ______ ____
ROOT
ATOM      1  C   UNL     1       1.891   8.161  18.684  0.00  0.00    +0.000 C 
ATOM      2  C   UNL     1       1.339   9.156  17.971  0.00  0.00    +0.000 C 
ENDROOT
BRANCH   2   3
ATOM      3  C   UNL     1       0.519  10.201  18.603  0.00  0.00    +0.000 A 
ATOM      4  C   UNL     1       1.136  10.982  19.582  0.00  0.00    +0.000 A 
ATOM      5  C   UNL     1       0.399  11.983  20.181  0.00  0.00    +0.000 A 
ATOM      6  N   UNL     1      -0.884  12.255  19.873  0.00  0.00    +0.000 NA
ATOM      7  C   UNL     1      -1.484  11.505  18.934  0.00  0.00    +0.000 A 
ATOM      8  C   UNL     1      -2.805  11.793  18.616  0.00  0.00    +0.000 A 
ATOM      9  C   UNL     1      -3.509  11.064  17.656  0.00  0.00    +0.000 A 
ATOM     10  C   UNL     1      -2.883  10.017  16.994  0.00  0.00    +0.000 A 
ATOM     11  C   UNL     1      -1.555   9.710  17.292  0.00  0.00    +0.000 A 
ATOM     12  C   UNL     1      -0.832  10.447  18.260  0.00  0.00    +0.000 A 
ENDBRANCH   2   3
BRANCH   1  13
ATOM     13  C   UNL     1       2.777   7.128  18.124  0.00  0.00    +0.000 A 
ATOM     14  C   UNL     1       2.480   5.748  18.230  0.00  0.00    +0.000 A 
ATOM     15  C   UNL     1       3.311   4.779  17.653  0.00  0.00    +0.000 A 
ATOM     16  C   UNL     1       4.427   5.214  16.975  0.00  0.00    +0.000 A 
ATOM     17  C   UNL     1       4.718   6.551  16.851  0.00  0.00    +0.000 A 
ATOM     18  C   UNL     1       3.912   7.528  17.403  0.00  0.00    +0.000 A 
ATOM     19  O   UNL     1       5.859   6.768  16.141  0.00  0.00    +0.000 OA
ATOM     20  C   UNL     1       6.283   5.411  15.888  0.00  0.00    +0.000 C 
ATOM     21  O   UNL     1       5.346   4.421  16.362  0.00  0.00    +0.000 OA
ENDBRANCH   1  13
TORSDOF 2
ENDMDL
MODEL 8
REMARK VINA RESULT:      -7.8      0.984      1.155
REMARK  Name = 
REMARK  2 active torsions:
REMARK  status: ('A' for Active; 'I' for Inactive)
REMARK    1  A    between atoms: C_1  and  C_13
REMARK    2  A    between atoms: C_2  and  C_3
REMARK                            x       y       z     vdW  Elec       q    Type
REMARK                         _______ _______ _______ _____ _____    ______ ____
ROOT
ATOM      1  C   UNL     1       1.748   8.621  18.307  0.00  0.00    +0.000 C 
ATOM      2  C   UNL     1       2.199   7.467  18.822  0.00  0.00    +0.000 C 
ENDROOT
BRANCH   2   3
ATOM      3  C   UNL     1       3.093   6.576  18.065  0.00  0.00    +0.000 A 
ATOM      4  C   UNL     1       4.197   7.166  17.447  0.00  0.00    +0.000 A 
ATOM      5  C   UNL     1       5.065   6.356  16.745  0.00  0.00    +0.000 A 
ATOM      6  N   UNL     1       4.912   5.023  16.623  0.00  0.00    +0.000 NA
ATOM      7  C   UNL     1       3.850   4.449  17.213  0.00  0.00    +0.000 A 
ATOM      8  C   UNL     1       3.700   3.074  17.090  0.00  0.00    +0.000 A 
ATOM      9  C   UNL     1       2.626   2.395  17.667  0.00  0.00    +0.000 A 
ATOM     10  C   UNL     1       1.671   3.102  18.385  0.00  0.00    +0.000 A 
ATOM     11  C   UNL     1       1.801   4.483  18.527  0.00  0.00    +0.000 A 
ATOM     12  C   UNL     1       2.890   5.180  17.950  0.00  0.00    +0.000 A 
ENDBRANCH   2   3
BRANCH   1  13
ATOM     13  C   UNL     1       0.911   9.588  19.036  0.00  0.00    +0.000 A 
ATOM     14  C   UNL     1      -0.024  10.418  18.375  0.00  0.00    +0.000 A 
ATOM     15  C   UNL     1      -0.845  11.301  19.088  0.00  0.00    +0.000 A 
ATOM     16  C   UNL     1      -0.715  11.332  20.457  0.00  0.00    +0.000 A 
ATOM     17  C   UNL     1       0.178  10.520  21.114  0.00  0.00    +0.000 A 
ATOM     18  C   UNL     1       0.994   9.634  20.436  0.00  0.00    +0.000 A 
ATOM     19  O   UNL     1       0.147  10.701  22.462  0.00  0.00    +0.000 OA
ATOM     20  C   UNL     1      -0.823  11.764  22.571  0.00  0.00    +0.000 C 
ATOM     21  O   UNL     1      -1.418  12.127  21.307  0.00  0.00    +0.000 OA
ENDBRANCH   1  13
TORSDOF 2
ENDMDL
MODEL 9
REMARK VINA RESULT:      -7.8      1.836      2.627
REMARK  Name = 
REMARK  2 active torsions:
REMARK  status: ('A' for Active; 'I' for Inactive)
REMARK    1  A    between atoms: C_1  and  C_13
REMARK    2  A    between atoms: C_2  and  C_3
REMARK                            x       y       z     vdW  Elec       q    Type
REMARK                         _______ _______ _______ _____ _____    ______ ____
ROOT
ATOM      1  C   UNL     1       2.061   8.221  17.877  0.00  0.00    +0.000 C 
ATOM      2  C   UNL     1       2.834   7.353  18.548  0.00  0.00    +0.000 C 
ENDROOT
BRANCH   2   3
ATOM      3  C   UNL     1       3.323   6.111  17.929  0.00  0.00    +0.000 A 
ATOM      4  C   UNL     1       4.419   6.221  17.073  0.00  0.00    +0.000 A 
ATOM      5  C   UNL     1       4.913   5.072  16.490  0.00  0.00    +0.000 A 
ATOM      6  N   UNL     1       4.401   3.844  16.703  0.00  0.00    +0.000 NA
ATOM      7  C   UNL     1       3.344   3.731  17.525  0.00  0.00    +0.000 A 
ATOM      8  C   UNL     1       2.822   2.464  17.747  0.00  0.00    +0.000 A 
ATOM      9  C   UNL     1       1.724   2.253  18.581  0.00  0.00    +0.000 A 
ATOM     10  C   UNL     1       1.123   3.334  19.212  0.00  0.00    +0.000 A 
ATOM     11  C   UNL     1       1.630   4.617  19.010  0.00  0.00    +0.000 A 
ATOM     12  C   UNL     1       2.747   4.840  18.169  0.00  0.00    +0.000 A 
ENDBRANCH   2   3
BRANCH   1  13
ATOM     13  C   UNL     1       1.599   9.512  18.413  0.00  0.00    +0.000 A 
ATOM     14  C   UNL     1       0.609   9.593  19.421  0.00  0.00    +0.000 A 
ATOM     15  C   UNL     1       0.213  10.827  19.953  0.00  0.00    +0.000 A 
ATOM     16  C   UNL     1       0.820  11.960  19.465  0.00  0.00    +0.000 A 
ATOM     17  C   UNL     1       1.795  11.895  18.498  0.00  0.00    +0.000 A 
ATOM     18  C   UNL     1       2.211  10.691  17.961  0.00  0.00    +0.000 A 
ATOM     19  O   UNL     1       2.270  13.123  18.158  0.00  0.00    +0.000 OA
ATOM     20  C   UNL     1       1.438  13.972  18.978  0.00  0.00    +0.000 C 
ATOM     21  O   UNL     1       0.560  13.236  19.855  0.00  0.00    +0.000 OA
ENDBRANCH   1  13
TORSDOF 2
ENDMDL
