MODEL 1
REMARK VINA RESULT:      -7.5      0.000      0.000
REMARK  Name = 
REMARK  7 active torsions:
REMARK  status: ('A' for Active; 'I' for Inactive)
REMARK    1  A    between atoms: C_1  and  N_2
REMARK    2  A    between atoms: N_2  and  C_3
REMARK    3  A    between atoms: N_2  and  C_16
REMARK    4  A    between atoms: C_3  and  C_4
REMARK    5  A    between atoms: C_5  and  C_6
REMARK    6  A    between atoms: C_9  and  C_10
REMARK    7  A    between atoms: C_16  and  C_17
REMARK                            x       y       z     vdW  Elec       q    Type
REMARK                         _______ _______ _______ _____ _____    ______ ____
ROOT
ATOM      1  C   UNL     1       4.991   6.390  16.395  0.00  0.00    +0.000 C 
ENDROOT
BRANCH   1   3
ATOM      2  C   UNL     1       5.552   4.634  14.833  0.00  0.00    +0.000 C 
ATOM      3  N   UNL     1       5.086   4.898  16.209  0.00  0.00    +0.000 NA
BRANCH   3   4
ATOM      4  C   UNL     1       4.048   3.895  16.670  0.00  0.00    +0.000 C 
BRANCH   4   5
ATOM      5  C   UNL     1       3.956   3.457  18.155  0.00  0.00    +0.000 A 
ATOM      6  C   UNL     1       5.012   2.729  18.676  0.00  0.00    +0.000 A 
ATOM      7  S   UNL     1       4.713   2.170  20.214  0.00  0.00    +0.000 S 
ATOM      8  C   UNL     1       3.186   2.814  20.296  0.00  0.00    +0.000 A 
ATOM      9  C   UNL     1       2.323   2.641  21.370  0.00  0.00    +0.000 A 
ATOM     10  C   UNL     1       1.055   3.203  21.313  0.00  0.00    +0.000 A 
ATOM     11  C   UNL     1       0.666   3.933  20.165  0.00  0.00    +0.000 A 
ATOM     12  C   UNL     1       1.561   4.093  19.062  0.00  0.00    +0.000 A 
ATOM     13  C   UNL     1       2.865   3.515  19.123  0.00  0.00    +0.000 A 
ENDBRANCH   4   5
ENDBRANCH   3   4
ENDBRANCH   1   3
BRANCH   1  14
ATOM     14  C   UNL     1       4.166   7.023  17.523  0.00  0.00    +0.000 C 
ATOM     15  C   UNL     1       2.926   7.569  17.460  0.00  0.00    +0.000 C 
BRANCH  15  16
ATOM     16  C   UNL     1       2.191   8.087  18.682  0.00  0.00    +0.000 A 
ATOM     17  C   UNL     1       1.465   9.304  18.688  0.00  0.00    +0.000 A 
ATOM     18  C   UNL     1       0.753   9.728  19.816  0.00  0.00    +0.000 A 
ATOM     19  C   UNL     1       0.744   8.948  20.985  0.00  0.00    +0.000 A 
ATOM     20  C   UNL     1       1.492   7.763  21.015  0.00  0.00    +0.000 A 
ATOM     21  C   UNL     1       2.205   7.339  19.880  0.00  0.00    +0.000 A 
BRANCH  19  22
ATOM     22  C   UNL     1      -0.066   9.360  22.197  0.00  0.00    +0.000 C 
ATOM     23  F   UNL     1       0.727   9.487  23.326  0.00  0.00    +0.000 F 
ATOM     24  F   UNL     1      -0.662  10.585  21.948  0.00  0.00    +0.000 F 
ATOM     25  F   UNL     1      -1.051   8.427  22.455  0.00  0.00    +0.000 F 
ENDBRANCH  19  22
ENDBRANCH  15  16
ENDBRANCH   1  14
TORSDOF 6
ENDMDL
MODEL 2
REMARK VINA RESULT:      -7.3      6.296      7.280
REMARK  Name = 
REMARK  7 active torsions:
REMARK  status: ('A' for Active; 'I' for Inactive)
REMARK    1  A    between atoms: C_1  and  N_2
REMARK    2  A    between atoms: N_2  and  C_3
REMARK    3  A    between atoms: N_2  and  C_16
REMARK    4  A    between atoms: C_3  and  C_4
REMARK    5  A    between atoms: C_5  and  C_6
REMARK    6  A    between atoms: C_9  and  C_10
REMARK    7  A    between atoms: C_16  and  C_17
REMARK                            x       y       z     vdW  Elec       q    Type
REMARK                         _______ _______ _______ _____ _____    ______ ____
ROOT
ATOM      1  C   UNL     1       7.355   7.077  17.310  0.00  0.00    +0.000 C 
ENDROOT
BRANCH   1   3
ATOM      2  C   UNL     1       6.634   5.412  18.905  0.00  0.00    +0.000 C 
ATOM      3  N   UNL     1       6.159   6.482  18.006  0.00  0.00    +0.000 NA
BRANCH   3   4
ATOM      4  C   UNL     1       4.846   6.134  17.335  0.00  0.00    +0.000 C 
BRANCH   4   5
ATOM      5  C   UNL     1       3.600   5.726  18.166  0.00  0.00    +0.000 A 
ATOM      6  C   UNL     1       3.157   6.614  19.132  0.00  0.00    +0.000 A 
ATOM      7  S   UNL     1       1.932   5.986  20.068  0.00  0.00    +0.000 S 
ATOM      8  C   UNL     1       1.914   4.517  19.298  0.00  0.00    +0.000 A 
ATOM      9  C   UNL     1       1.103   3.452  19.667  0.00  0.00    +0.000 A 
ATOM     10  C   UNL     1       1.197   2.258  18.966  0.00  0.00    +0.000 A 
ATOM     11  C   UNL     1       2.118   2.146  17.898  0.00  0.00    +0.000 A 
ATOM     12  C   UNL     1       2.955   3.247  17.536  0.00  0.00    +0.000 A 
ATOM     13  C   UNL     1       2.856   4.475  18.258  0.00  0.00    +0.000 A 
ENDBRANCH   4   5
ENDBRANCH   3   4
ENDBRANCH   1   3
BRANCH   1  14
ATOM     14  C   UNL     1       7.886   8.476  17.647  0.00  0.00    +0.000 C 
ATOM     15  C   UNL     1       8.616   8.868  18.721  0.00  0.00    +0.000 C 
BRANCH  15  16
ATOM     16  C   UNL     1       9.148  10.280  18.885  0.00  0.00    +0.000 A 
ATOM     17  C   UNL     1       9.998  10.664  19.951  0.00  0.00    +0.000 A 
ATOM     18  C   UNL     1      10.515  11.962  20.045  0.00  0.00    +0.000 A 
ATOM     19  C   UNL     1      10.197  12.925  19.073  0.00  0.00    +0.000 A 
ATOM     20  C   UNL     1       9.322  12.577  18.035  0.00  0.00    +0.000 A 
ATOM     21  C   UNL     1       8.806  11.274  17.942  0.00  0.00    +0.000 A 
BRANCH  19  22
ATOM     22  C   UNL     1      10.792  14.318  19.124  0.00  0.00    +0.000 C 
ATOM     23  F   UNL     1      11.821  14.402  20.049  0.00  0.00    +0.000 F 
ATOM     24  F   UNL     1      11.304  14.639  17.878  0.00  0.00    +0.000 F 
ATOM     25  F   UNL     1       9.822  15.241  19.462  0.00  0.00    +0.000 F 
ENDBRANCH  19  22
ENDBRANCH  15  16
ENDBRANCH   1  14
TORSDOF 6
ENDMDL
MODEL 3
REMARK VINA RESULT:      -7.3      1.390      2.105
REMARK  Name = 
REMARK  7 active torsions:
REMARK  status: ('A' for Active; 'I' for Inactive)
REMARK    1  A    between atoms: C_1  and  N_2
REMARK    2  A    between atoms: N_2  and  C_3
REMARK    3  A    between atoms: N_2  and  C_16
REMARK    4  A    between atoms: C_3  and  C_4
REMARK    5  A    between atoms: C_5  and  C_6
REMARK    6  A    between atoms: C_9  and  C_10
REMARK    7  A    between atoms: C_16  and  C_17
REMARK                            x       y       z     vdW  Elec       q    Type
REMARK                         _______ _______ _______ _____ _____    ______ ____
ROOT
ATOM      1  C   UNL     1       4.765   6.646  16.753  0.00  0.00    +0.000 C 
ENDROOT
BRANCH   1   3
ATOM      2  C   UNL     1       6.915   5.599  16.415  0.00  0.00    +0.000 C 
ATOM      3  N   UNL     1       5.897   5.921  17.434  0.00  0.00    +0.000 NA
BRANCH   3   4
ATOM      4  C   UNL     1       5.734   4.818  18.459  0.00  0.00    +0.000 C 
BRANCH   4   5
ATOM      5  C   UNL     1       4.492   3.888  18.450  0.00  0.00    +0.000 A 
ATOM      6  C   UNL     1       4.263   3.135  17.310  0.00  0.00    +0.000 A 
ATOM      7  S   UNL     1       2.812   2.321  17.358  0.00  0.00    +0.000 S 
ATOM      8  C   UNL     1       2.376   2.911  18.845  0.00  0.00    +0.000 A 
ATOM      9  C   UNL     1       1.164   2.642  19.467  0.00  0.00    +0.000 A 
ATOM     10  C   UNL     1       0.896   3.217  20.701  0.00  0.00    +0.000 A 
ATOM     11  C   UNL     1       1.856   4.068  21.297  0.00  0.00    +0.000 A 
ATOM     12  C   UNL     1       3.095   4.346  20.640  0.00  0.00    +0.000 A 
ATOM     13  C   UNL     1       3.369   3.752  19.372  0.00  0.00    +0.000 A 
ENDBRANCH   4   5
ENDBRANCH   3   4
ENDBRANCH   1   3
BRANCH   1  14
ATOM     14  C   UNL     1       3.754   7.499  17.531  0.00  0.00    +0.000 C 
ATOM     15  C   UNL     1       2.792   7.093  18.395  0.00  0.00    +0.000 C 
BRANCH  15  16
ATOM     16  C   UNL     1       1.911   8.061  19.163  0.00  0.00    +0.000 A 
ATOM     17  C   UNL     1       1.577   7.883  20.528  0.00  0.00    +0.000 A 
ATOM     18  C   UNL     1       0.805   8.823  21.222  0.00  0.00    +0.000 A 
ATOM     19  C   UNL     1       0.338   9.978  20.572  0.00  0.00    +0.000 A 
ATOM     20  C   UNL     1       0.620  10.150  19.210  0.00  0.00    +0.000 A 
ATOM     21  C   UNL     1       1.396   9.206  18.516  0.00  0.00    +0.000 A 
BRANCH  19  22
ATOM     22  C   UNL     1      -0.449  11.034  21.320  0.00  0.00    +0.000 C 
ATOM     23  F   UNL     1      -1.508  11.515  20.566  0.00  0.00    +0.000 F 
ATOM     24  F   UNL     1      -0.962  10.480  22.482  0.00  0.00    +0.000 F 
ATOM     25  F   UNL     1       0.369  12.095  21.653  0.00  0.00    +0.000 F 
ENDBRANCH  19  22
ENDBRANCH  15  16
ENDBRANCH   1  14
TORSDOF 6
ENDMDL
MODEL 4
REMARK VINA RESULT:      -7.2      2.569      4.481
REMARK  Name = 
REMARK  7 active torsions:
REMARK  status: ('A' for Active; 'I' for Inactive)
REMARK    1  A    between atoms: C_1  and  N_2
REMARK    2  A    between atoms: N_2  and  C_3
REMARK    3  A    between atoms: N_2  and  C_16
REMARK    4  A    between atoms: C_3  and  C_4
REMARK    5  A    between atoms: C_5  and  C_6
REMARK    6  A    between atoms: C_9  and  C_10
REMARK    7  A    between atoms: C_16  and  C_17
REMARK                            x       y       z     vdW  Elec       q    Type
REMARK                         _______ _______ _______ _____ _____    ______ ____
ROOT
ATOM      1  C   UNL     1       2.629   3.990  20.039  0.00  0.00    +0.000 C 
ENDROOT
BRANCH   1   3
ATOM      2  C   UNL     1       2.018   1.805  19.208  0.00  0.00    +0.000 C 
ATOM      3  N   UNL     1       2.679   3.074  18.844  0.00  0.00    +0.000 NA
BRANCH   3   4
ATOM      4  C   UNL     1       3.891   2.862  17.960  0.00  0.00    +0.000 C 
BRANCH   4   5
ATOM      5  C   UNL     1       4.684   4.062  17.378  0.00  0.00    +0.000 A 
ATOM      6  C   UNL     1       4.524   4.342  16.031  0.00  0.00    +0.000 A 
ATOM      7  S   UNL     1       5.558   5.532  15.495  0.00  0.00    +0.000 S 
ATOM      8  C   UNL     1       6.294   5.743  16.966  0.00  0.00    +0.000 A 
ATOM      9  C   UNL     1       7.356   6.609  17.191  0.00  0.00    +0.000 A 
ATOM     10  C   UNL     1       7.912   6.680  18.460  0.00  0.00    +0.000 A 
ATOM     11  C   UNL     1       7.394   5.867  19.495  0.00  0.00    +0.000 A 
ATOM     12  C   UNL     1       6.307   4.972  19.248  0.00  0.00    +0.000 A 
ATOM     13  C   UNL     1       5.736   4.901  17.941  0.00  0.00    +0.000 A 
ENDBRANCH   4   5
ENDBRANCH   3   4
ENDBRANCH   1   3
BRANCH   1  14
ATOM     14  C   UNL     1       2.117   5.433  19.943  0.00  0.00    +0.000 C 
ATOM     15  C   UNL     1       2.748   6.522  19.437  0.00  0.00    +0.000 C 
BRANCH  15  16
ATOM     16  C   UNL     1       2.084   7.883  19.328  0.00  0.00    +0.000 A 
ATOM     17  C   UNL     1       1.397   8.494  20.405  0.00  0.00    +0.000 A 
ATOM     18  C   UNL     1       0.842   9.774  20.288  0.00  0.00    +0.000 A 
ATOM     19  C   UNL     1       0.952  10.489  19.084  0.00  0.00    +0.000 A 
ATOM     20  C   UNL     1       1.589   9.883  17.992  0.00  0.00    +0.000 A 
ATOM     21  C   UNL     1       2.147   8.599  18.113  0.00  0.00    +0.000 A 
BRANCH  19  22
ATOM     22  C   UNL     1       0.409  11.897  18.955  0.00  0.00    +0.000 C 
ATOM     23  F   UNL     1       0.248  12.501  20.193  0.00  0.00    +0.000 F 
ATOM     24  F   UNL     1       1.297  12.660  18.215  0.00  0.00    +0.000 F 
ATOM     25  F   UNL     1      -0.813  11.883  18.313  0.00  0.00    +0.000 F 
ENDBRANCH  19  22
ENDBRANCH  15  16
ENDBRANCH   1  14
TORSDOF 6
ENDMDL
MODEL 5
REMARK VINA RESULT:      -7.1      5.547      6.557
REMARK  Name = 
REMARK  7 active torsions:
REMARK  status: ('A' for Active; 'I' for Inactive)
REMARK    1  A    between atoms: C_1  and  N_2
REMARK    2  A    between atoms: N_2  and  C_3
REMARK    3  A    between atoms: N_2  and  C_16
REMARK    4  A    between atoms: C_3  and  C_4
REMARK    5  A    between atoms: C_5  and  C_6
REMARK    6  A    between atoms: C_9  and  C_10
REMARK    7  A    between atoms: C_16  and  C_17
REMARK                            x       y       z     vdW  Elec       q    Type
REMARK                         _______ _______ _______ _____ _____    ______ ____
ROOT
ATOM      1  C   UNL     1       7.418   5.806  18.179  0.00  0.00    +0.000 C 
ENDROOT
BRANCH   1   3
ATOM      2  C   UNL     1       6.601   5.440  15.936  0.00  0.00    +0.000 C 
ATOM      3  N   UNL     1       6.181   5.620  17.339  0.00  0.00    +0.000 NA
BRANCH   3   4
ATOM      4  C   UNL     1       4.913   6.438  17.464  0.00  0.00    +0.000 C 
BRANCH   4   5
ATOM      5  C   UNL     1       3.683   5.905  18.244  0.00  0.00    +0.000 A 
ATOM      6  C   UNL     1       3.191   6.685  19.277  0.00  0.00    +0.000 A 
ATOM      7  S   UNL     1       1.992   5.924  20.144  0.00  0.00    +0.000 S 
ATOM      8  C   UNL     1       2.049   4.526  19.253  0.00  0.00    +0.000 A 
ATOM      9  C   UNL     1       1.287   3.397  19.523  0.00  0.00    +0.000 A 
ATOM     10  C   UNL     1       1.442   2.272  18.725  0.00  0.00    +0.000 A 
ATOM     11  C   UNL     1       2.375   2.294  17.661  0.00  0.00    +0.000 A 
ATOM     12  C   UNL     1       3.161   3.460  17.402  0.00  0.00    +0.000 A 
ATOM     13  C   UNL     1       2.999   4.616  18.223  0.00  0.00    +0.000 A 
ENDBRANCH   4   5
ENDBRANCH   3   4
ENDBRANCH   1   3
BRANCH   1  14
ATOM     14  C   UNL     1       7.994   7.194  18.490  0.00  0.00    +0.000 C 
ATOM     15  C   UNL     1       7.956   8.316  17.729  0.00  0.00    +0.000 C 
BRANCH  15  16
ATOM     16  C   UNL     1       8.498   9.652  18.202  0.00  0.00    +0.000 A 
ATOM     17  C   UNL     1       8.326  10.855  17.474  0.00  0.00    +0.000 A 
ATOM     18  C   UNL     1       8.793  12.081  17.965  0.00  0.00    +0.000 A 
ATOM     19  C   UNL     1       9.451  12.147  19.204  0.00  0.00    +0.000 A 
ATOM     20  C   UNL     1       9.670  10.961  19.918  0.00  0.00    +0.000 A 
ATOM     21  C   UNL     1       9.200   9.732  19.425  0.00  0.00    +0.000 A 
BRANCH  19  22
ATOM     22  C   UNL     1       9.912  13.470  19.778  0.00  0.00    +0.000 C 
ATOM     23  F   UNL     1      10.075  14.429  18.791  0.00  0.00    +0.000 F 
ATOM     24  F   UNL     1       8.962  13.931  20.675  0.00  0.00    +0.000 F 
ATOM     25  F   UNL     1      11.114  13.314  20.440  0.00  0.00    +0.000 F 
ENDBRANCH  19  22
ENDBRANCH  15  16
ENDBRANCH   1  14
TORSDOF 6
ENDMDL
MODEL 6
REMARK VINA RESULT:      -7.0      1.424      2.084
REMARK  Name = 
REMARK  7 active torsions:
REMARK  status: ('A' for Active; 'I' for Inactive)
REMARK    1  A    between atoms: C_1  and  N_2
REMARK    2  A    between atoms: N_2  and  C_3
REMARK    3  A    between atoms: N_2  and  C_16
REMARK    4  A    between atoms: C_3  and  C_4
REMARK    5  A    between atoms: C_5  and  C_6
REMARK    6  A    between atoms: C_9  and  C_10
REMARK    7  A    between atoms: C_16  and  C_17
REMARK                            x       y       z     vdW  Elec       q    Type
REMARK                         _______ _______ _______ _____ _____    ______ ____
ROOT
ATOM      1  C   UNL     1       6.179   6.573  16.883  0.00  0.00    +0.000 C 
ENDROOT
BRANCH   1   3
ATOM      2  C   UNL     1       6.953   4.397  16.175  0.00  0.00    +0.000 C 
ATOM      3  N   UNL     1       6.669   5.230  17.359  0.00  0.00    +0.000 NA
BRANCH   3   4
ATOM      4  C   UNL     1       6.058   4.434  18.494  0.00  0.00    +0.000 C 
BRANCH   4   5
ATOM      5  C   UNL     1       4.630   3.838  18.383  0.00  0.00    +0.000 A 
ATOM      6  C   UNL     1       4.226   3.369  17.144  0.00  0.00    +0.000 A 
ATOM      7  S   UNL     1       2.622   2.924  17.116  0.00  0.00    +0.000 S 
ATOM      8  C   UNL     1       2.342   3.334  18.699  0.00  0.00    +0.000 A 
ATOM      9  C   UNL     1       1.102   3.254  19.318  0.00  0.00    +0.000 A 
ATOM     10  C   UNL     1       0.981   3.654  20.642  0.00  0.00    +0.000 A 
ATOM     11  C   UNL     1       2.118   4.139  21.330  0.00  0.00    +0.000 A 
ATOM     12  C   UNL     1       3.386   4.226  20.677  0.00  0.00    +0.000 A 
ATOM     13  C   UNL     1       3.508   3.813  19.316  0.00  0.00    +0.000 A 
ENDBRANCH   4   5
ENDBRANCH   3   4
ENDBRANCH   1   3
BRANCH   1  14
ATOM     14  C   UNL     1       5.015   7.308  17.562  0.00  0.00    +0.000 C 
ATOM     15  C   UNL     1       3.689   7.037  17.493  0.00  0.00    +0.000 C 
BRANCH  15  16
ATOM     16  C   UNL     1       2.648   7.802  18.290  0.00  0.00    +0.000 A 
ATOM     17  C   UNL     1       2.291   7.463  19.618  0.00  0.00    +0.000 A 
ATOM     18  C   UNL     1       1.366   8.222  20.344  0.00  0.00    +0.000 A 
ATOM     19  C   UNL     1       0.761   9.350  19.765  0.00  0.00    +0.000 A 
ATOM     20  C   UNL     1       1.068   9.676  18.437  0.00  0.00    +0.000 A 
ATOM     21  C   UNL     1       1.998   8.913  17.710  0.00  0.00    +0.000 A 
BRANCH  19  22
ATOM     22  C   UNL     1      -0.199  10.218  20.553  0.00  0.00    +0.000 C 
ATOM     23  F   UNL     1      -0.720   9.544  21.646  0.00  0.00    +0.000 F 
ATOM     24  F   UNL     1       0.476  11.335  21.017  0.00  0.00    +0.000 F 
ATOM     25  F   UNL     1      -1.245  10.627  19.751  0.00  0.00    +0.000 F 
ENDBRANCH  19  22
ENDBRANCH  15  16
ENDBRANCH   1  14
TORSDOF 6
ENDMDL
MODEL 7
REMARK VINA RESULT:      -7.0      1.431      2.118
REMARK  Name = 
REMARK  7 active torsions:
REMARK  status: ('A' for Active; 'I' for Inactive)
REMARK    1  A    between atoms: C_1  and  N_2
REMARK    2  A    between atoms: N_2  and  C_3
REMARK    3  A    between atoms: N_2  and  C_16
REMARK    4  A    between atoms: C_3  and  C_4
REMARK    5  A    between atoms: C_5  and  C_6
REMARK    6  A    between atoms: C_9  and  C_10
REMARK    7  A    between atoms: C_16  and  C_17
REMARK                            x       y       z     vdW  Elec       q    Type
REMARK                         _______ _______ _______ _____ _____    ______ ____
ROOT
ATOM      1  C   UNL     1       3.776   7.348  16.910  0.00  0.00    +0.000 C 
ENDROOT
BRANCH   1   3
ATOM      2  C   UNL     1       5.678   6.223  15.934  0.00  0.00    +0.000 C 
ATOM      3  N   UNL     1       5.091   6.676  17.210  0.00  0.00    +0.000 NA
BRANCH   3   4
ATOM      4  C   UNL     1       5.328   5.693  18.338  0.00  0.00    +0.000 C 
BRANCH   4   5
ATOM      5  C   UNL     1       4.409   4.460  18.539  0.00  0.00    +0.000 A 
ATOM      6  C   UNL     1       4.675   3.332  17.781  0.00  0.00    +0.000 A 
ATOM      7  S   UNL     1       3.516   2.150  17.957  0.00  0.00    +0.000 S 
ATOM      8  C   UNL     1       2.583   3.033  19.007  0.00  0.00    +0.000 A 
ATOM      9  C   UNL     1       1.364   2.606  19.515  0.00  0.00    +0.000 A 
ATOM     10  C   UNL     1       0.656   3.445  20.364  0.00  0.00    +0.000 A 
ATOM     11  C   UNL     1       1.184   4.716  20.689  0.00  0.00    +0.000 A 
ATOM     12  C   UNL     1       2.436   5.147  20.149  0.00  0.00    +0.000 A 
ATOM     13  C   UNL     1       3.163   4.282  19.277  0.00  0.00    +0.000 A 
ENDBRANCH   4   5
ENDBRANCH   3   4
ENDBRANCH   1   3
BRANCH   1  14
ATOM     14  C   UNL     1       2.954   8.059  17.993  0.00  0.00    +0.000 C 
ATOM     15  C   UNL     1       1.749   8.670  17.876  0.00  0.00    +0.000 C 
BRANCH  15  16
ATOM     16  C   UNL     1       1.008   9.264  19.059  0.00  0.00    +0.000 A 
ATOM     17  C   UNL     1       1.191   8.814  20.390  0.00  0.00    +0.000 A 
ATOM     18  C   UNL     1       0.531   9.420  21.466  0.00  0.00    +0.000 A 
ATOM     19  C   UNL     1      -0.340  10.501  21.248  0.00  0.00    +0.000 A 
ATOM     20  C   UNL     1      -0.569  10.932  19.934  0.00  0.00    +0.000 A 
ATOM     21  C   UNL     1       0.095  10.323  18.856  0.00  0.00    +0.000 A 
BRANCH  19  22
ATOM     22  C   UNL     1      -1.019  11.206  22.403  0.00  0.00    +0.000 C 
ATOM     23  F   UNL     1      -1.120  10.387  23.517  0.00  0.00    +0.000 F 
ATOM     24  F   UNL     1      -0.275  12.321  22.754  0.00  0.00    +0.000 F 
ATOM     25  F   UNL     1      -2.288  11.611  22.040  0.00  0.00    +0.000 F 
ENDBRANCH  19  22
ENDBRANCH  15  16
ENDBRANCH   1  14
TORSDOF 6
ENDMDL
MODEL 8
REMARK VINA RESULT:      -7.0      6.364      7.409
REMARK  Name = 
REMARK  7 active torsions:
REMARK  status: ('A' for Active; 'I' for Inactive)
REMARK    1  A    between atoms: C_1  and  N_2
REMARK    2  A    between atoms: N_2  and  C_3
REMARK    3  A    between atoms: N_2  and  C_16
REMARK    4  A    between atoms: C_3  and  C_4
REMARK    5  A    between atoms: C_5  and  C_6
REMARK    6  A    between atoms: C_9  and  C_10
REMARK    7  A    between atoms: C_16  and  C_17
REMARK                            x       y       z     vdW  Elec       q    Type
REMARK                         _______ _______ _______ _____ _____    ______ ____
ROOT
ATOM      1  C   UNL     1       7.357   6.856  17.322  0.00  0.00    +0.000 C 
ENDROOT
BRANCH   1   3
ATOM      2  C   UNL     1       7.668   4.476  17.599  0.00  0.00    +0.000 C 
ATOM      3  N   UNL     1       7.276   5.714  18.301  0.00  0.00    +0.000 NA
BRANCH   3   4
ATOM      4  C   UNL     1       6.145   5.488  19.283  0.00  0.00    +0.000 C 
BRANCH   4   5
ATOM      5  C   UNL     1       4.681   5.314  18.800  0.00  0.00    +0.000 A 
ATOM      6  C   UNL     1       3.927   6.460  18.616  0.00  0.00    +0.000 A 
ATOM      7  S   UNL     1       2.332   6.132  18.272  0.00  0.00    +0.000 S 
ATOM      8  C   UNL     1       2.510   4.485  18.365  0.00  0.00    +0.000 A 
ATOM      9  C   UNL     1       1.469   3.578  18.227  0.00  0.00    +0.000 A 
ATOM     10  C   UNL     1       1.733   2.222  18.354  0.00  0.00    +0.000 A 
ATOM     11  C   UNL     1       3.053   1.791  18.627  0.00  0.00    +0.000 A 
ATOM     12  C   UNL     1       4.115   2.737  18.778  0.00  0.00    +0.000 A 
ATOM     13  C   UNL     1       3.840   4.132  18.645  0.00  0.00    +0.000 A 
ENDBRANCH   4   5
ENDBRANCH   3   4
ENDBRANCH   1   3
BRANCH   1  14
ATOM     14  C   UNL     1       8.162   8.129  17.614  0.00  0.00    +0.000 C 
ATOM     15  C   UNL     1       7.705   9.360  17.951  0.00  0.00    +0.000 C 
BRANCH  15  16
ATOM     16  C   UNL     1       8.625  10.516  18.296  0.00  0.00    +0.000 A 
ATOM     17  C   UNL     1       9.634  10.429  19.286  0.00  0.00    +0.000 A 
ATOM     18  C   UNL     1      10.502  11.497  19.544  0.00  0.00    +0.000 A 
ATOM     19  C   UNL     1      10.390  12.695  18.818  0.00  0.00    +0.000 A 
ATOM     20  C   UNL     1       9.370  12.816  17.865  0.00  0.00    +0.000 A 
ATOM     21  C   UNL     1       8.501  11.743  17.607  0.00  0.00    +0.000 A 
BRANCH  19  22
ATOM     22  C   UNL     1      11.356  13.840  19.041  0.00  0.00    +0.000 C 
ATOM     23  F   UNL     1      11.981  13.752  20.275  0.00  0.00    +0.000 F 
ATOM     24  F   UNL     1      12.333  13.808  18.059  0.00  0.00    +0.000 F 
ATOM     25  F   UNL     1      10.691  15.048  18.972  0.00  0.00    +0.000 F 
ENDBRANCH  19  22
ENDBRANCH  15  16
ENDBRANCH   1  14
TORSDOF 6
ENDMDL
MODEL 9
REMARK VINA RESULT:      -6.9      1.600      2.362
REMARK  Name = 
REMARK  7 active torsions:
REMARK  status: ('A' for Active; 'I' for Inactive)
REMARK    1  A    between atoms: C_1  and  N_2
REMARK    2  A    between atoms: N_2  and  C_3
REMARK    3  A    between atoms: N_2  and  C_16
REMARK    4  A    between atoms: C_3  and  C_4
REMARK    5  A    between atoms: C_5  and  C_6
REMARK    6  A    between atoms: C_9  and  C_10
REMARK    7  A    between atoms: C_16  and  C_17
REMARK                            x       y       z     vdW  Elec       q    Type
REMARK                         _______ _______ _______ _____ _____    ______ ____
ROOT
ATOM      1  C   UNL     1       5.644   6.198  17.020  0.00  0.00    +0.000 C 
ENDROOT
BRANCH   1   3
ATOM      2  C   UNL     1       7.412   4.665  17.624  0.00  0.00    +0.000 C 
ATOM      3  N   UNL     1       5.950   4.867  17.658  0.00  0.00    +0.000 NA
BRANCH   3   4
ATOM      4  C   UNL     1       5.183   3.585  17.407  0.00  0.00    +0.000 C 
BRANCH   4   5
ATOM      5  C   UNL     1       3.703   3.433  17.847  0.00  0.00    +0.000 A 
ATOM      6  C   UNL     1       2.724   3.795  16.938  0.00  0.00    +0.000 A 
ATOM      7  S   UNL     1       1.193   3.755  17.590  0.00  0.00    +0.000 S 
ATOM      8  C   UNL     1       1.702   3.290  19.099  0.00  0.00    +0.000 A 
ATOM      9  C   UNL     1       0.862   3.130  20.192  0.00  0.00    +0.000 A 
ATOM     10  C   UNL     1       1.406   2.765  21.415  0.00  0.00    +0.000 A 
ATOM     11  C   UNL     1       2.803   2.572  21.526  0.00  0.00    +0.000 A 
ATOM     12  C   UNL     1       3.659   2.751  20.395  0.00  0.00    +0.000 A 
ATOM     13  C   UNL     1       3.096   3.124  19.138  0.00  0.00    +0.000 A 
ENDBRANCH   4   5
ENDBRANCH   3   4
ENDBRANCH   1   3
BRANCH   1  14
ATOM     14  C   UNL     1       4.513   7.105  17.521  0.00  0.00    +0.000 C 
ATOM     15  C   UNL     1       3.371   6.756  18.163  0.00  0.00    +0.000 C 
BRANCH  15  16
ATOM     16  C   UNL     1       2.371   7.774  18.679  0.00  0.00    +0.000 A 
ATOM     17  C   UNL     1       1.958   7.832  20.033  0.00  0.00    +0.000 A 
ATOM     18  C   UNL     1       1.074   8.818  20.488  0.00  0.00    +0.000 A 
ATOM     19  C   UNL     1       0.569   9.784  19.602  0.00  0.00    +0.000 A 
ATOM     20  C   UNL     1       0.931   9.717  18.249  0.00  0.00    +0.000 A 
ATOM     21  C   UNL     1       1.819   8.727  17.795  0.00  0.00    +0.000 A 
BRANCH  19  22
ATOM     22  C   UNL     1      -0.342  10.892  20.086  0.00  0.00    +0.000 C 
ATOM     23  F   UNL     1      -0.872  10.613  21.336  0.00  0.00    +0.000 F 
ATOM     24  F   UNL     1       0.384  12.069  20.178  0.00  0.00    +0.000 F 
ATOM     25  F   UNL     1      -1.385  11.078  19.200  0.00  0.00    +0.000 F 
ENDBRANCH  19  22
ENDBRANCH  15  16
ENDBRANCH   1  14
TORSDOF 6
ENDMDL
