MODEL 1
REMARK VINA RESULT:      -7.2      0.000      0.000
REMARK  Name = 
REMARK  8 active torsions:
REMARK  status: ('A' for Active; 'I' for Inactive)
REMARK    1  A    between atoms: C_1  and  C_2
REMARK    2  A    between atoms: C_5  and  C_6
REMARK    3  A    between atoms: C_6  and  C_7
REMARK    4  A    between atoms: C_6  and  N_8
REMARK    5  A    between atoms: C_9  and  C_11
REMARK    6  A    between atoms: C_11  and  S_12
REMARK    7  A    between atoms: S_12  and  C_13
REMARK    8  A    between atoms: C_19  and  C_20
REMARK                            x       y       z     vdW  Elec       q    Type
REMARK                         _______ _______ _______ _____ _____    ______ ____
ROOT
ATOM      1  N   UNL     1       3.093   5.100  18.532  0.00  0.00    +0.000 N 
ATOM      2  C   UNL     1       4.096   4.153  18.493  0.00  0.00    +0.000 C 
ATOM      3  O   UNL     1       4.702   3.780  19.496  0.00  0.00    +0.000 OA
ATOM      4  H   UNL     1       2.667   5.405  17.666  0.00  0.00    +0.000 HD
ENDROOT
BRANCH   1   5
ATOM      5  C   UNL     1       2.717   5.763  19.771  0.00  0.00    +0.000 C 
ATOM      6  C   UNL     1       1.694   4.935  20.552  0.00  0.00    +0.000 C 
BRANCH   5  11
ATOM      7  C   UNL     1       0.618  11.146  18.807  0.00  0.00    +0.000 C 
ATOM      8  C   UNL     1       1.174   9.773  19.076  0.00  0.00    +0.000 A 
ATOM      9  C   UNL     1       1.844   9.085  18.054  0.00  0.00    +0.000 A 
ATOM     10  C   UNL     1       2.358   7.802  18.267  0.00  0.00    +0.000 A 
ATOM     11  C   UNL     1       2.216   7.174  19.511  0.00  0.00    +0.000 A 
ATOM     12  C   UNL     1       1.558   7.872  20.536  0.00  0.00    +0.000 A 
ATOM     13  C   UNL     1       1.025   9.158  20.332  0.00  0.00    +0.000 A 
ATOM     14  C   UNL     1       0.291   9.836  21.458  0.00  0.00    +0.000 C 
ENDBRANCH   5  11
ENDBRANCH   1   5
BRANCH   2  15
ATOM     15  C   UNL     1       4.353   3.530  17.130  0.00  0.00    +0.000 C 
BRANCH  15  16
ATOM     16  S   UNL     1       5.472   4.568  16.144  0.00  0.00    +0.000 S 
BRANCH  16  17
ATOM     17  C   UNL     1       6.566   5.175  17.329  0.00  0.00    +0.000 A 
ATOM     18  C   UNL     1       6.901   6.405  17.837  0.00  0.00    +0.000 A 
ATOM     19  N   UNL     1       7.864   6.250  18.799  0.00  0.00    +0.000 NA
ATOM     20  N   UNL     1       8.142   4.956  18.900  0.00  0.00    +0.000 NA
ATOM     21  N   UNL     1       7.368   4.309  18.012  0.00  0.00    +0.000 N 
ATOM     22  H   UNL     1       7.438   3.303  17.931  0.00  0.00    +0.000 HD
ENDBRANCH  16  17
ENDBRANCH  15  16
ENDBRANCH   2  15
TORSDOF 5
ENDMDL
MODEL 2
REMARK VINA RESULT:      -7.1      4.064      6.105
REMARK  Name = 
REMARK  8 active torsions:
REMARK  status: ('A' for Active; 'I' for Inactive)
REMARK    1  A    between atoms: C_1  and  C_2
REMARK    2  A    between atoms: C_5  and  C_6
REMARK    3  A    between atoms: C_6  and  C_7
REMARK    4  A    between atoms: C_6  and  N_8
REMARK    5  A    between atoms: C_9  and  C_11
REMARK    6  A    between atoms: C_11  and  S_12
REMARK    7  A    between atoms: S_12  and  C_13
REMARK    8  A    between atoms: C_19  and  C_20
REMARK                            x       y       z     vdW  Elec       q    Type
REMARK                         _______ _______ _______ _____ _____    ______ ____
ROOT
ATOM      1  N   UNL     1       7.061   7.020  16.733  0.00  0.00    +0.000 N 
ATOM      2  C   UNL     1       7.719   7.629  17.782  0.00  0.00    +0.000 C 
ATOM      3  O   UNL     1       8.211   7.001  18.717  0.00  0.00    +0.000 OA
ATOM      4  H   UNL     1       6.631   7.594  16.019  0.00  0.00    +0.000 HD
ENDROOT
BRANCH   1   5
ATOM      5  C   UNL     1       6.862   5.579  16.691  0.00  0.00    +0.000 C 
ATOM      6  C   UNL     1       7.306   5.001  15.345  0.00  0.00    +0.000 C 
BRANCH   5  11
ATOM      7  C   UNL     1       1.352   4.178  18.104  0.00  0.00    +0.000 C 
ATOM      8  C   UNL     1       2.758   4.562  17.727  0.00  0.00    +0.000 A 
ATOM      9  C   UNL     1       3.533   3.683  16.956  0.00  0.00    +0.000 A 
ATOM     10  C   UNL     1       4.848   4.002  16.603  0.00  0.00    +0.000 A 
ATOM     11  C   UNL     1       5.422   5.213  17.012  0.00  0.00    +0.000 A 
ATOM     12  C   UNL     1       4.639   6.097  17.771  0.00  0.00    +0.000 A 
ATOM     13  C   UNL     1       3.320   5.783  18.144  0.00  0.00    +0.000 A 
ATOM     14  C   UNL     1       2.547   6.753  18.997  0.00  0.00    +0.000 C 
ENDBRANCH   5  11
ENDBRANCH   1   5
BRANCH   2  15
ATOM     15  C   UNL     1       7.872   9.138  17.669  0.00  0.00    +0.000 C 
BRANCH  15  16
ATOM     16  S   UNL     1       9.061   9.762  18.892  0.00  0.00    +0.000 S 
BRANCH  16  17
ATOM     17  C   UNL     1       9.549  11.268  18.211  0.00  0.00    +0.000 A 
ATOM     18  C   UNL     1       9.007  12.521  18.074  0.00  0.00    +0.000 A 
ATOM     19  N   UNL     1       9.903  13.334  17.432  0.00  0.00    +0.000 NA
ATOM     20  N   UNL     1      10.988  12.618  17.159  0.00  0.00    +0.000 NA
ATOM     21  N   UNL     1      10.774  11.375  17.620  0.00  0.00    +0.000 N 
ATOM     22  H   UNL     1      11.490  10.670  17.501  0.00  0.00    +0.000 HD
ENDBRANCH  16  17
ENDBRANCH  15  16
ENDBRANCH   2  15
TORSDOF 5
ENDMDL
MODEL 3
REMARK VINA RESULT:      -7.0      2.015      2.319
REMARK  Name = 
REMARK  8 active torsions:
REMARK  status: ('A' for Active; 'I' for Inactive)
REMARK    1  A    between atoms: C_1  and  C_2
REMARK    2  A    between atoms: C_5  and  C_6
REMARK    3  A    between atoms: C_6  and  C_7
REMARK    4  A    between atoms: C_6  and  N_8
REMARK    5  A    between atoms: C_9  and  C_11
REMARK    6  A    between atoms: C_11  and  S_12
REMARK    7  A    between atoms: S_12  and  C_13
REMARK    8  A    between atoms: C_19  and  C_20
REMARK                            x       y       z     vdW  Elec       q    Type
REMARK                         _______ _______ _______ _____ _____    ______ ____
ROOT
ATOM      1  N   UNL     1       3.821   4.810  18.912  0.00  0.00    +0.000 N 
ATOM      2  C   UNL     1       5.197   4.895  18.881  0.00  0.00    +0.000 C 
ATOM      3  O   UNL     1       5.855   5.428  19.773  0.00  0.00    +0.000 OA
ATOM      4  H   UNL     1       3.332   4.407  18.122  0.00  0.00    +0.000 HD
ENDROOT
BRANCH   1   5
ATOM      5  C   UNL     1       3.044   5.399  19.992  0.00  0.00    +0.000 C 
ATOM      6  C   UNL     1       1.957   4.437  20.477  0.00  0.00    +0.000 C 
BRANCH   5  11
ATOM      7  C   UNL     1       0.644  10.523  18.474  0.00  0.00    +0.000 C 
ATOM      8  C   UNL     1       1.278   9.220  18.883  0.00  0.00    +0.000 A 
ATOM      9  C   UNL     1       1.934   8.437  17.922  0.00  0.00    +0.000 A 
ATOM     10  C   UNL     1       2.519   7.214  18.266  0.00  0.00    +0.000 A 
ATOM     11  C   UNL     1       2.464   6.743  19.585  0.00  0.00    +0.000 A 
ATOM     12  C   UNL     1       1.819   7.537  20.547  0.00  0.00    +0.000 A 
ATOM     13  C   UNL     1       1.216   8.762  20.212  0.00  0.00    +0.000 A 
ATOM     14  C   UNL     1       0.500   9.545  21.280  0.00  0.00    +0.000 C 
ENDBRANCH   5  11
ENDBRANCH   1   5
BRANCH   2  15
ATOM     15  C   UNL     1       5.867   4.207  17.701  0.00  0.00    +0.000 C 
BRANCH  15  16
ATOM     16  S   UNL     1       4.870   4.386  16.194  0.00  0.00    +0.000 S 
BRANCH  16  17
ATOM     17  C   UNL     1       6.065   4.624  14.976  0.00  0.00    +0.000 A 
ATOM     18  C   UNL     1       6.287   4.175  13.698  0.00  0.00    +0.000 A 
ATOM     19  N   UNL     1       7.437   4.740  13.214  0.00  0.00    +0.000 NA
ATOM     20  N   UNL     1       7.941   5.525  14.159  0.00  0.00    +0.000 NA
ATOM     21  N   UNL     1       7.122   5.451  15.220  0.00  0.00    +0.000 N 
ATOM     22  H   UNL     1       7.340   5.979  16.055  0.00  0.00    +0.000 HD
ENDBRANCH  16  17
ENDBRANCH  15  16
ENDBRANCH   2  15
TORSDOF 5
ENDMDL
MODEL 4
REMARK VINA RESULT:      -6.9      1.313      1.351
REMARK  Name = 
REMARK  8 active torsions:
REMARK  status: ('A' for Active; 'I' for Inactive)
REMARK    1  A    between atoms: C_1  and  C_2
REMARK    2  A    between atoms: C_5  and  C_6
REMARK    3  A    between atoms: C_6  and  C_7
REMARK    4  A    between atoms: C_6  and  N_8
REMARK    5  A    between atoms: C_9  and  C_11
REMARK    6  A    between atoms: C_11  and  S_12
REMARK    7  A    between atoms: S_12  and  C_13
REMARK    8  A    between atoms: C_19  and  C_20
REMARK                            x       y       z     vdW  Elec       q    Type
REMARK                         _______ _______ _______ _____ _____    ______ ____
ROOT
ATOM      1  N   UNL     1       3.315   4.254  18.515  0.00  0.00    +0.000 N 
ATOM      2  C   UNL     1       4.656   3.942  18.439  0.00  0.00    +0.000 C 
ATOM      3  O   UNL     1       5.428   4.072  19.388  0.00  0.00    +0.000 OA
ATOM      4  H   UNL     1       2.741   4.176  17.684  0.00  0.00    +0.000 HD
ENDROOT
BRANCH   1   5
ATOM      5  C   UNL     1       2.728   4.812  19.724  0.00  0.00    +0.000 C 
ATOM      6  C   UNL     1       1.534   3.977  20.193  0.00  0.00    +0.000 C 
BRANCH   5  11
ATOM      7  C   UNL     1       1.109  10.398  19.032  0.00  0.00    +0.000 C 
ATOM      8  C   UNL     1       1.544   8.971  19.229  0.00  0.00    +0.000 A 
ATOM      9  C   UNL     1       2.045   8.243  18.140  0.00  0.00    +0.000 A 
ATOM     10  C   UNL     1       2.443   6.910  18.287  0.00  0.00    +0.000 A 
ATOM     11  C   UNL     1       2.352   6.271  19.531  0.00  0.00    +0.000 A 
ATOM     12  C   UNL     1       1.863   7.008  20.621  0.00  0.00    +0.000 A 
ATOM     13  C   UNL     1       1.448   8.345  20.486  0.00  0.00    +0.000 A 
ATOM     14  C   UNL     1       0.892   9.066  21.684  0.00  0.00    +0.000 C 
ENDBRANCH   5  11
ENDBRANCH   1   5
BRANCH   2  15
ATOM     15  C   UNL     1       5.114   3.342  17.119  0.00  0.00    +0.000 C 
BRANCH  15  16
ATOM     16  S   UNL     1       4.984   4.557  15.775  0.00  0.00    +0.000 S 
BRANCH  16  17
ATOM     17  C   UNL     1       5.944   5.866  16.355  0.00  0.00    +0.000 A 
ATOM     18  C   UNL     1       5.733   7.006  17.088  0.00  0.00    +0.000 A 
ATOM     19  N   UNL     1       6.921   7.671  17.243  0.00  0.00    +0.000 NA
ATOM     20  N   UNL     1       7.866   6.976  16.620  0.00  0.00    +0.000 NA
ATOM     21  N   UNL     1       7.279   5.895  16.080  0.00  0.00    +0.000 N 
ATOM     22  H   UNL     1       7.838   5.238  15.552  0.00  0.00    +0.000 HD
ENDBRANCH  16  17
ENDBRANCH  15  16
ENDBRANCH   2  15
TORSDOF 5
ENDMDL
MODEL 5
REMARK VINA RESULT:      -6.9      2.281      3.411
REMARK  Name = 
REMARK  8 active torsions:
REMARK  status: ('A' for Active; 'I' for Inactive)
REMARK    1  A    between atoms: C_1  and  C_2
REMARK    2  A    between atoms: C_5  and  C_6
REMARK    3  A    between atoms: C_6  and  C_7
REMARK    4  A    between atoms: C_6  and  N_8
REMARK    5  A    between atoms: C_9  and  C_11
REMARK    6  A    between atoms: C_11  and  S_12
REMARK    7  A    between atoms: S_12  and  C_13
REMARK    8  A    between atoms: C_19  and  C_20
REMARK                            x       y       z     vdW  Elec       q    Type
REMARK                         _______ _______ _______ _____ _____    ______ ____
ROOT
ATOM      1  N   UNL     1       4.798   4.158  17.980  0.00  0.00    +0.000 N 
ATOM      2  C   UNL     1       5.948   4.483  18.670  0.00  0.00    +0.000 C 
ATOM      3  O   UNL     1       6.005   4.517  19.897  0.00  0.00    +0.000 OA
ATOM      4  H   UNL     1       4.800   4.199  16.969  0.00  0.00    +0.000 HD
ENDROOT
BRANCH   1   5
ATOM      5  C   UNL     1       3.548   3.879  18.671  0.00  0.00    +0.000 C 
ATOM      6  C   UNL     1       2.604   3.055  17.791  0.00  0.00    +0.000 C 
BRANCH   5  11
ATOM      7  C   UNL     1       1.166   8.902  20.517  0.00  0.00    +0.000 C 
ATOM      8  C   UNL     1       1.760   7.612  20.020  0.00  0.00    +0.000 A 
ATOM      9  C   UNL     1       1.735   6.476  20.843  0.00  0.00    +0.000 A 
ATOM     10  C   UNL     1       2.292   5.266  20.417  0.00  0.00    +0.000 A 
ATOM     11  C   UNL     1       2.889   5.160  19.154  0.00  0.00    +0.000 A 
ATOM     12  C   UNL     1       2.899   6.296  18.328  0.00  0.00    +0.000 A 
ATOM     13  C   UNL     1       2.353   7.522  18.747  0.00  0.00    +0.000 A 
ATOM     14  C   UNL     1       2.435   8.714  17.833  0.00  0.00    +0.000 C 
ENDBRANCH   5  11
ENDBRANCH   1   5
BRANCH   2  15
ATOM     15  C   UNL     1       7.180   4.720  17.810  0.00  0.00    +0.000 C 
BRANCH  15  16
ATOM     16  S   UNL     1       6.871   6.017  16.577  0.00  0.00    +0.000 S 
BRANCH  16  17
ATOM     17  C   UNL     1       6.748   5.122  15.109  0.00  0.00    +0.000 A 
ATOM     18  C   UNL     1       5.961   4.108  14.624  0.00  0.00    +0.000 A 
ATOM     19  N   UNL     1       6.342   3.813  13.342  0.00  0.00    +0.000 NA
ATOM     20  N   UNL     1       7.350   4.614  13.017  0.00  0.00    +0.000 NA
ATOM     21  N   UNL     1       7.600   5.396  14.079  0.00  0.00    +0.000 N 
ATOM     22  H   UNL     1       8.346   6.078  14.031  0.00  0.00    +0.000 HD
ENDBRANCH  16  17
ENDBRANCH  15  16
ENDBRANCH   2  15
TORSDOF 5
ENDMDL
MODEL 6
REMARK VINA RESULT:      -6.8      1.866      2.404
REMARK  Name = 
REMARK  8 active torsions:
REMARK  status: ('A' for Active; 'I' for Inactive)
REMARK    1  A    between atoms: C_1  and  C_2
REMARK    2  A    between atoms: C_5  and  C_6
REMARK    3  A    between atoms: C_6  and  C_7
REMARK    4  A    between atoms: C_6  and  N_8
REMARK    5  A    between atoms: C_9  and  C_11
REMARK    6  A    between atoms: C_11  and  S_12
REMARK    7  A    between atoms: S_12  and  C_13
REMARK    8  A    between atoms: C_19  and  C_20
REMARK                            x       y       z     vdW  Elec       q    Type
REMARK                         _______ _______ _______ _____ _____    ______ ____
ROOT
ATOM      1  N   UNL     1       4.718   6.121  18.961  0.00  0.00    +0.000 N 
ATOM      2  C   UNL     1       5.640   5.130  19.228  0.00  0.00    +0.000 C 
ATOM      3  O   UNL     1       5.321   3.966  19.463  0.00  0.00    +0.000 OA
ATOM      4  H   UNL     1       5.039   7.072  18.828  0.00  0.00    +0.000 HD
ENDROOT
BRANCH   1   5
ATOM      5  C   UNL     1       3.287   5.860  18.992  0.00  0.00    +0.000 C 
ATOM      6  C   UNL     1       2.853   5.030  17.781  0.00  0.00    +0.000 C 
BRANCH   5  11
ATOM      7  C   UNL     1       0.085  10.742  19.465  0.00  0.00    +0.000 C 
ATOM      8  C   UNL     1       0.925   9.497  19.363  0.00  0.00    +0.000 A 
ATOM      9  C   UNL     1       1.506   9.152  18.134  0.00  0.00    +0.000 A 
ATOM     10  C   UNL     1       2.279   7.994  18.003  0.00  0.00    +0.000 A 
ATOM     11  C   UNL     1       2.494   7.151  19.101  0.00  0.00    +0.000 A 
ATOM     12  C   UNL     1       1.923   7.508  20.333  0.00  0.00    +0.000 A 
ATOM     13  C   UNL     1       1.133   8.662  20.477  0.00  0.00    +0.000 A 
ATOM     14  C   UNL     1       0.512   8.966  21.814  0.00  0.00    +0.000 C 
ENDBRANCH   5  11
ENDBRANCH   1   5
BRANCH   2  15
ATOM     15  C   UNL     1       7.098   5.551  19.130  0.00  0.00    +0.000 C 
BRANCH  15  16
ATOM     16  S   UNL     1       7.381   6.571  17.654  0.00  0.00    +0.000 S 
BRANCH  16  17
ATOM     17  C   UNL     1       6.828   5.551  16.379  0.00  0.00    +0.000 A 
ATOM     18  C   UNL     1       7.110   4.290  15.919  0.00  0.00    +0.000 A 
ATOM     19  N   UNL     1       6.312   4.012  14.841  0.00  0.00    +0.000 NA
ATOM     20  N   UNL     1       5.543   5.070  14.614  0.00  0.00    +0.000 NA
ATOM     21  N   UNL     1       5.856   5.999  15.532  0.00  0.00    +0.000 N 
ATOM     22  H   UNL     1       5.378   6.890  15.522  0.00  0.00    +0.000 HD
ENDBRANCH  16  17
ENDBRANCH  15  16
ENDBRANCH   2  15
TORSDOF 5
ENDMDL
MODEL 7
REMARK VINA RESULT:      -6.8      4.100      6.325
REMARK  Name = 
REMARK  8 active torsions:
REMARK  status: ('A' for Active; 'I' for Inactive)
REMARK    1  A    between atoms: C_1  and  C_2
REMARK    2  A    between atoms: C_5  and  C_6
REMARK    3  A    between atoms: C_6  and  C_7
REMARK    4  A    between atoms: C_6  and  N_8
REMARK    5  A    between atoms: C_9  and  C_11
REMARK    6  A    between atoms: C_11  and  S_12
REMARK    7  A    between atoms: S_12  and  C_13
REMARK    8  A    between atoms: C_19  and  C_20
REMARK                            x       y       z     vdW  Elec       q    Type
REMARK                         _______ _______ _______ _____ _____    ______ ____
ROOT
ATOM      1  N   UNL     1       7.087   7.039  16.801  0.00  0.00    +0.000 N 
ATOM      2  C   UNL     1       7.777   7.654  17.826  0.00  0.00    +0.000 C 
ATOM      3  O   UNL     1       8.256   7.036  18.775  0.00  0.00    +0.000 OA
ATOM      4  H   UNL     1       6.670   7.607  16.075  0.00  0.00    +0.000 HD
ENDROOT
BRANCH   1   5
ATOM      5  C   UNL     1       6.836   5.605  16.804  0.00  0.00    +0.000 C 
ATOM      6  C   UNL     1       6.891   5.034  15.385  0.00  0.00    +0.000 C 
BRANCH   5  11
ATOM      7  C   UNL     1       1.768   4.182  19.373  0.00  0.00    +0.000 C 
ATOM      8  C   UNL     1       3.082   4.551  18.739  0.00  0.00    +0.000 A 
ATOM      9  C   UNL     1       3.148   5.653  17.874  0.00  0.00    +0.000 A 
ATOM     10  C   UNL     1       4.350   6.013  17.256  0.00  0.00    +0.000 A 
ATOM     11  C   UNL     1       5.520   5.279  17.490  0.00  0.00    +0.000 A 
ATOM     12  C   UNL     1       5.453   4.185  18.369  0.00  0.00    +0.000 A 
ATOM     13  C   UNL     1       4.249   3.805  18.987  0.00  0.00    +0.000 A 
ATOM     14  C   UNL     1       4.233   2.596  19.883  0.00  0.00    +0.000 C 
ENDBRANCH   5  11
ENDBRANCH   1   5
BRANCH   2  15
ATOM     15  C   UNL     1       7.983   9.152  17.667  0.00  0.00    +0.000 C 
BRANCH  15  16
ATOM     16  S   UNL     1       9.040   9.805  18.992  0.00  0.00    +0.000 S 
BRANCH  16  17
ATOM     17  C   UNL     1       9.659  11.258  18.300  0.00  0.00    +0.000 A 
ATOM     18  C   UNL     1      10.819  11.650  17.681  0.00  0.00    +0.000 A 
ATOM     19  N   UNL     1      10.720  12.970  17.328  0.00  0.00    +0.000 NA
ATOM     20  N   UNL     1       9.529  13.412  17.717  0.00  0.00    +0.000 NA
ATOM     21  N   UNL     1       8.893  12.387  18.307  0.00  0.00    +0.000 N 
ATOM     22  H   UNL     1       7.964  12.527  18.680  0.00  0.00    +0.000 HD
ENDBRANCH  16  17
ENDBRANCH  15  16
ENDBRANCH   2  15
TORSDOF 5
ENDMDL
MODEL 8
REMARK VINA RESULT:      -6.8      2.378      3.123
REMARK  Name = 
REMARK  8 active torsions:
REMARK  status: ('A' for Active; 'I' for Inactive)
REMARK    1  A    between atoms: C_1  and  C_2
REMARK    2  A    between atoms: C_5  and  C_6
REMARK    3  A    between atoms: C_6  and  C_7
REMARK    4  A    between atoms: C_6  and  N_8
REMARK    5  A    between atoms: C_9  and  C_11
REMARK    6  A    between atoms: C_11  and  S_12
REMARK    7  A    between atoms: S_12  and  C_13
REMARK    8  A    between atoms: C_19  and  C_20
REMARK                            x       y       z     vdW  Elec       q    Type
REMARK                         _______ _______ _______ _____ _____    ______ ____
ROOT
ATOM      1  N   UNL     1       4.336   4.931  18.370  0.00  0.00    +0.000 N 
ATOM      2  C   UNL     1       5.706   4.815  18.493  0.00  0.00    +0.000 C 
ATOM      3  O   UNL     1       6.266   4.631  19.572  0.00  0.00    +0.000 OA
ATOM      4  H   UNL     1       3.937   5.135  17.462  0.00  0.00    +0.000 HD
ENDROOT
BRANCH   1   5
ATOM      5  C   UNL     1       3.460   4.891  19.530  0.00  0.00    +0.000 C 
ATOM      6  C   UNL     1       2.534   3.673  19.480  0.00  0.00    +0.000 C 
BRANCH   5  11
ATOM      7  C   UNL     1       0.594   9.972  20.058  0.00  0.00    +0.000 C 
ATOM      8  C   UNL     1       1.314   8.661  19.900  0.00  0.00    +0.000 A 
ATOM      9  C   UNL     1       1.286   7.724  20.944  0.00  0.00    +0.000 A 
ATOM     10  C   UNL     1       1.959   6.503  20.834  0.00  0.00    +0.000 A 
ATOM     11  C   UNL     1       2.676   6.185  19.673  0.00  0.00    +0.000 A 
ATOM     12  C   UNL     1       2.690   7.119  18.625  0.00  0.00    +0.000 A 
ATOM     13  C   UNL     1       2.028   8.356  18.726  0.00  0.00    +0.000 A 
ATOM     14  C   UNL     1       2.118   9.333  17.585  0.00  0.00    +0.000 C 
ENDBRANCH   5  11
ENDBRANCH   1   5
BRANCH   2  15
ATOM     15  C   UNL     1       6.484   4.848  17.187  0.00  0.00    +0.000 C 
BRANCH  15  16
ATOM     16  S   UNL     1       5.449   4.294  15.802  0.00  0.00    +0.000 S 
BRANCH  16  17
ATOM     17  C   UNL     1       6.463   4.574  14.436  0.00  0.00    +0.000 A 
ATOM     18  C   UNL     1       6.563   4.094  13.155  0.00  0.00    +0.000 A 
ATOM     19  N   UNL     1       7.595   4.727  12.514  0.00  0.00    +0.000 NA
ATOM     20  N   UNL     1       8.144   5.586  13.365  0.00  0.00    +0.000 NA
ATOM     21  N   UNL     1       7.470   5.490  14.522  0.00  0.00    +0.000 N 
ATOM     22  H   UNL     1       7.745   6.067  15.307  0.00  0.00    +0.000 HD
ENDBRANCH  16  17
ENDBRANCH  15  16
ENDBRANCH   2  15
TORSDOF 5
ENDMDL
MODEL 9
REMARK VINA RESULT:      -6.8      0.755      1.620
REMARK  Name = 
REMARK  8 active torsions:
REMARK  status: ('A' for Active; 'I' for Inactive)
REMARK    1  A    between atoms: C_1  and  C_2
REMARK    2  A    between atoms: C_5  and  C_6
REMARK    3  A    between atoms: C_6  and  C_7
REMARK    4  A    between atoms: C_6  and  N_8
REMARK    5  A    between atoms: C_9  and  C_11
REMARK    6  A    between atoms: C_11  and  S_12
REMARK    7  A    between atoms: S_12  and  C_13
REMARK    8  A    between atoms: C_19  and  C_20
REMARK                            x       y       z     vdW  Elec       q    Type
REMARK                         _______ _______ _______ _____ _____    ______ ____
ROOT
ATOM      1  N   UNL     1       2.933   4.601  18.860  0.00  0.00    +0.000 N 
ATOM      2  C   UNL     1       3.983   3.718  18.717  0.00  0.00    +0.000 C 
ATOM      3  O   UNL     1       4.557   3.201  19.673  0.00  0.00    +0.000 OA
ATOM      4  H   UNL     1       2.536   5.035  18.036  0.00  0.00    +0.000 HD
ENDROOT
BRANCH   1   5
ATOM      5  C   UNL     1       2.464   5.023  20.171  0.00  0.00    +0.000 C 
ATOM      6  C   UNL     1       1.402   4.062  20.711  0.00  0.00    +0.000 C 
BRANCH   5  11
ATOM      7  C   UNL     1       0.695  10.605  20.031  0.00  0.00    +0.000 C 
ATOM      8  C   UNL     1       1.133   9.165  20.044  0.00  0.00    +0.000 A 
ATOM      9  C   UNL     1       0.896   8.380  21.181  0.00  0.00    +0.000 A 
ATOM     10  C   UNL     1       1.305   7.043  21.231  0.00  0.00    +0.000 A 
ATOM     11  C   UNL     1       1.961   6.456  20.141  0.00  0.00    +0.000 A 
ATOM     12  C   UNL     1       2.184   7.242  18.999  0.00  0.00    +0.000 A 
ATOM     13  C   UNL     1       1.790   8.591  18.940  0.00  0.00    +0.000 A 
ATOM     14  C   UNL     1       2.098   9.392  17.704  0.00  0.00    +0.000 C 
ENDBRANCH   5  11
ENDBRANCH   1   5
BRANCH   2  15
ATOM     15  C   UNL     1       4.339   3.353  17.284  0.00  0.00    +0.000 C 
BRANCH  15  16
ATOM     16  S   UNL     1       5.037   4.781  16.406  0.00  0.00    +0.000 S 
BRANCH  16  17
ATOM     17  C   UNL     1       6.331   5.264  17.438  0.00  0.00    +0.000 A 
ATOM     18  C   UNL     1       6.876   6.449  17.862  0.00  0.00    +0.000 A 
ATOM     19  N   UNL     1       7.917   6.189  18.714  0.00  0.00    +0.000 NA
ATOM     20  N   UNL     1       8.037   4.871  18.827  0.00  0.00    +0.000 NA
ATOM     21  N   UNL     1       7.090   4.314  18.056  0.00  0.00    +0.000 N 
ATOM     22  H   UNL     1       7.021   3.306  18.002  0.00  0.00    +0.000 HD
ENDBRANCH  16  17
ENDBRANCH  15  16
ENDBRANCH   2  15
TORSDOF 5
ENDMDL
