MODEL 1
REMARK VINA RESULT:      -6.7      0.000      0.000
REMARK  Name = 
REMARK  4 active torsions:
REMARK  status: ('A' for Active; 'I' for Inactive)
REMARK    1  A    between atoms: C_4  and  C_5
REMARK    2  A    between atoms: C_5  and  C_6
REMARK    3  A    between atoms: C_6  and  C_7
REMARK    4  A    between atoms: C_7  and  C_8
REMARK                            x       y       z     vdW  Elec       q    Type
REMARK                         _______ _______ _______ _____ _____    ______ ____
ROOT
ATOM      1  C   UNL     1       4.505   3.636  16.872  0.00  0.00    +0.000 C 
ENDROOT
BRANCH   1   2
ATOM      2  C   UNL     1       3.630   4.773  17.406  0.00  0.00    +0.000 C 
BRANCH   2   6
ATOM      3  C   UNL     1       0.697   3.220  20.166  0.00  0.00    +0.000 A 
ATOM      4  C   UNL     1       1.328   4.435  20.427  0.00  0.00    +0.000 A 
ATOM      5  C   UNL     1       2.263   4.946  19.523  0.00  0.00    +0.000 A 
ATOM      6  C   UNL     1       2.572   4.247  18.349  0.00  0.00    +0.000 A 
ATOM      7  C   UNL     1       1.927   3.028  18.094  0.00  0.00    +0.000 A 
ATOM      8  C   UNL     1       0.995   2.519  18.999  0.00  0.00    +0.000 A 
ENDBRANCH   2   6
ENDBRANCH   1   2
BRANCH   1   9
ATOM      9  C   UNL     1       5.765   4.154  16.177  0.00  0.00    +0.000 C 
BRANCH   9  10
ATOM     10  C   UNL     1       6.536   5.091  17.075  0.00  0.00    +0.000 A 
ATOM     11  C   UNL     1       6.795   6.403  16.682  0.00  0.00    +0.000 A 
ATOM     12  C   UNL     1       7.541   7.224  17.522  0.00  0.00    +0.000 A 
ATOM     13  C   UNL     1       8.014   6.717  18.727  0.00  0.00    +0.000 A 
ATOM     14  C   UNL     1       7.716   5.401  19.040  0.00  0.00    +0.000 A 
ATOM     15  N   UNL     1       6.993   4.582  18.245  0.00  0.00    +0.000 NA
ENDBRANCH   9  10
ENDBRANCH   1   9
TORSDOF 4
ENDMDL
MODEL 2
REMARK VINA RESULT:      -6.6      1.375      1.760
REMARK  Name = 
REMARK  4 active torsions:
REMARK  status: ('A' for Active; 'I' for Inactive)
REMARK    1  A    between atoms: C_4  and  C_5
REMARK    2  A    between atoms: C_5  and  C_6
REMARK    3  A    between atoms: C_6  and  C_7
REMARK    4  A    between atoms: C_7  and  C_8
REMARK                            x       y       z     vdW  Elec       q    Type
REMARK                         _______ _______ _______ _____ _____    ______ ____
ROOT
ATOM      1  C   UNL     1       4.350   3.874  17.017  0.00  0.00    +0.000 C 
ENDROOT
BRANCH   1   2
ATOM      2  C   UNL     1       2.948   4.310  17.453  0.00  0.00    +0.000 C 
BRANCH   2   6
ATOM      3  C   UNL     1       2.003   2.842  21.401  0.00  0.00    +0.000 A 
ATOM      4  C   UNL     1       1.029   3.491  20.644  0.00  0.00    +0.000 A 
ATOM      5  C   UNL     1       1.330   3.948  19.359  0.00  0.00    +0.000 A 
ATOM      6  C   UNL     1       2.609   3.758  18.819  0.00  0.00    +0.000 A 
ATOM      7  C   UNL     1       3.580   3.100  19.587  0.00  0.00    +0.000 A 
ATOM      8  C   UNL     1       3.278   2.646  20.871  0.00  0.00    +0.000 A 
ENDBRANCH   2   6
ENDBRANCH   1   2
BRANCH   1   9
ATOM      9  C   UNL     1       5.073   4.962  16.223  0.00  0.00    +0.000 C 
BRANCH   9  10
ATOM     10  C   UNL     1       6.145   5.622  17.056  0.00  0.00    +0.000 A 
ATOM     11  C   UNL     1       6.650   4.995  18.194  0.00  0.00    +0.000 A 
ATOM     12  C   UNL     1       7.612   5.652  18.956  0.00  0.00    +0.000 A 
ATOM     13  C   UNL     1       8.041   6.916  18.569  0.00  0.00    +0.000 A 
ATOM     14  C   UNL     1       7.485   7.470  17.428  0.00  0.00    +0.000 A 
ATOM     15  N   UNL     1       6.552   6.855  16.669  0.00  0.00    +0.000 NA
ENDBRANCH   9  10
ENDBRANCH   1   9
TORSDOF 4
ENDMDL
MODEL 3
REMARK VINA RESULT:      -6.6      0.505      1.304
REMARK  Name = 
REMARK  4 active torsions:
REMARK  status: ('A' for Active; 'I' for Inactive)
REMARK    1  A    between atoms: C_4  and  C_5
REMARK    2  A    between atoms: C_5  and  C_6
REMARK    3  A    between atoms: C_6  and  C_7
REMARK    4  A    between atoms: C_7  and  C_8
REMARK                            x       y       z     vdW  Elec       q    Type
REMARK                         _______ _______ _______ _____ _____    ______ ____
ROOT
ATOM      1  C   UNL     1       4.238   3.953  16.819  0.00  0.00    +0.000 C 
ENDROOT
BRANCH   1   2
ATOM      2  C   UNL     1       3.447   5.042  17.548  0.00  0.00    +0.000 C 
BRANCH   2   6
ATOM      3  C   UNL     1       1.087   3.454  20.795  0.00  0.00    +0.000 A 
ATOM      4  C   UNL     1       0.919   2.961  19.503  0.00  0.00    +0.000 A 
ATOM      5  C   UNL     1       1.697   3.462  18.456  0.00  0.00    +0.000 A 
ATOM      6  C   UNL     1       2.652   4.460  18.694  0.00  0.00    +0.000 A 
ATOM      7  C   UNL     1       2.816   4.944  19.999  0.00  0.00    +0.000 A 
ATOM      8  C   UNL     1       2.037   4.444  21.043  0.00  0.00    +0.000 A 
ENDBRANCH   2   6
ENDBRANCH   1   2
BRANCH   1   9
ATOM      9  C   UNL     1       5.457   4.515  16.087  0.00  0.00    +0.000 C 
BRANCH   9  10
ATOM     10  C   UNL     1       6.344   5.294  17.028  0.00  0.00    +0.000 A 
ATOM     11  C   UNL     1       6.647   6.632  16.777  0.00  0.00    +0.000 A 
ATOM     12  C   UNL     1       7.499   7.306  17.648  0.00  0.00    +0.000 A 
ATOM     13  C   UNL     1       8.030   6.630  18.741  0.00  0.00    +0.000 A 
ATOM     14  C   UNL     1       7.682   5.300  18.914  0.00  0.00    +0.000 A 
ATOM     15  N   UNL     1       6.857   4.622  18.086  0.00  0.00    +0.000 NA
ENDBRANCH   9  10
ENDBRANCH   1   9
TORSDOF 4
ENDMDL
MODEL 4
REMARK VINA RESULT:      -6.6      1.887      5.835
REMARK  Name = 
REMARK  4 active torsions:
REMARK  status: ('A' for Active; 'I' for Inactive)
REMARK    1  A    between atoms: C_4  and  C_5
REMARK    2  A    between atoms: C_5  and  C_6
REMARK    3  A    between atoms: C_6  and  C_7
REMARK    4  A    between atoms: C_7  and  C_8
REMARK                            x       y       z     vdW  Elec       q    Type
REMARK                         _______ _______ _______ _____ _____    ______ ____
ROOT
ATOM      1  C   UNL     1       4.311   3.717  17.106  0.00  0.00    +0.000 C 
ENDROOT
BRANCH   1   2
ATOM      2  C   UNL     1       4.299   5.245  17.202  0.00  0.00    +0.000 C 
BRANCH   2   6
ATOM      3  C   UNL     1       8.067   6.811  18.609  0.00  0.00    +0.000 A 
ATOM      4  C   UNL     1       7.487   5.712  19.240  0.00  0.00    +0.000 A 
ATOM      5  C   UNL     1       6.277   5.194  18.772  0.00  0.00    +0.000 A 
ATOM      6  C   UNL     1       5.638   5.770  17.666  0.00  0.00    +0.000 A 
ATOM      7  C   UNL     1       6.233   6.872  17.035  0.00  0.00    +0.000 A 
ATOM      8  C   UNL     1       7.441   7.389  17.506  0.00  0.00    +0.000 A 
ENDBRANCH   2   6
ENDBRANCH   1   2
BRANCH   1   9
ATOM      9  C   UNL     1       2.920   3.114  17.304  0.00  0.00    +0.000 C 
BRANCH   9  10
ATOM     10  C   UNL     1       2.486   3.208  18.746  0.00  0.00    +0.000 A 
ATOM     11  C   UNL     1       3.219   2.579  19.752  0.00  0.00    +0.000 A 
ATOM     12  C   UNL     1       2.766   2.658  21.067  0.00  0.00    +0.000 A 
ATOM     13  C   UNL     1       1.595   3.354  21.343  0.00  0.00    +0.000 A 
ATOM     14  C   UNL     1       0.925   3.945  20.285  0.00  0.00    +0.000 A 
ATOM     15  N   UNL     1       1.342   3.887  19.001  0.00  0.00    +0.000 NA
ENDBRANCH   9  10
ENDBRANCH   1   9
TORSDOF 4
ENDMDL
MODEL 5
REMARK VINA RESULT:      -6.6      1.322      1.587
REMARK  Name = 
REMARK  4 active torsions:
REMARK  status: ('A' for Active; 'I' for Inactive)
REMARK    1  A    between atoms: C_4  and  C_5
REMARK    2  A    between atoms: C_5  and  C_6
REMARK    3  A    between atoms: C_6  and  C_7
REMARK    4  A    between atoms: C_7  and  C_8
REMARK                            x       y       z     vdW  Elec       q    Type
REMARK                         _______ _______ _______ _____ _____    ______ ____
ROOT
ATOM      1  C   UNL     1       3.745   4.204  16.950  0.00  0.00    +0.000 C 
ENDROOT
BRANCH   1   2
ATOM      2  C   UNL     1       3.827   2.893  17.736  0.00  0.00    +0.000 C 
BRANCH   2   6
ATOM      3  C   UNL     1       1.245   2.877  21.195  0.00  0.00    +0.000 A 
ATOM      4  C   UNL     1       2.624   2.751  21.351  0.00  0.00    +0.000 A 
ATOM      5  C   UNL     1       3.460   2.776  20.232  0.00  0.00    +0.000 A 
ATOM      6  C   UNL     1       2.924   2.929  18.947  0.00  0.00    +0.000 A 
ATOM      7  C   UNL     1       1.535   3.060  18.802  0.00  0.00    +0.000 A 
ATOM      8  C   UNL     1       0.701   3.033  19.921  0.00  0.00    +0.000 A 
ENDBRANCH   2   6
ENDBRANCH   1   2
BRANCH   1   9
ATOM      9  C   UNL     1       3.842   5.430  17.859  0.00  0.00    +0.000 C 
BRANCH   9  10
ATOM     10  C   UNL     1       5.281   5.825  18.088  0.00  0.00    +0.000 A 
ATOM     11  C   UNL     1       5.941   6.663  17.190  0.00  0.00    +0.000 A 
ATOM     12  C   UNL     1       7.278   6.975  17.416  0.00  0.00    +0.000 A 
ATOM     13  C   UNL     1       7.924   6.441  18.526  0.00  0.00    +0.000 A 
ATOM     14  C   UNL     1       7.197   5.614  19.366  0.00  0.00    +0.000 A 
ATOM     15  N   UNL     1       5.898   5.296  19.171  0.00  0.00    +0.000 NA
ENDBRANCH   9  10
ENDBRANCH   1   9
TORSDOF 4
ENDMDL
MODEL 6
REMARK VINA RESULT:      -6.5      1.080      1.383
REMARK  Name = 
REMARK  4 active torsions:
REMARK  status: ('A' for Active; 'I' for Inactive)
REMARK    1  A    between atoms: C_4  and  C_5
REMARK    2  A    between atoms: C_5  and  C_6
REMARK    3  A    between atoms: C_6  and  C_7
REMARK    4  A    between atoms: C_7  and  C_8
REMARK                            x       y       z     vdW  Elec       q    Type
REMARK                         _______ _______ _______ _____ _____    ______ ____
ROOT
ATOM      1  C   UNL     1       3.250   5.983  17.814  0.00  0.00    +0.000 C 
ENDROOT
BRANCH   1   2
ATOM      2  C   UNL     1       1.902   5.259  17.842  0.00  0.00    +0.000 C 
BRANCH   2   6
ATOM      3  C   UNL     1       1.673   2.738  21.339  0.00  0.00    +0.000 A 
ATOM      4  C   UNL     1       2.060   4.071  21.462  0.00  0.00    +0.000 A 
ATOM      5  C   UNL     1       2.115   4.891  20.332  0.00  0.00    +0.000 A 
ATOM      6  C   UNL     1       1.781   4.385  19.070  0.00  0.00    +0.000 A 
ATOM      7  C   UNL     1       1.388   3.043  18.958  0.00  0.00    +0.000 A 
ATOM      8  C   UNL     1       1.335   2.225  20.087  0.00  0.00    +0.000 A 
ENDBRANCH   2   6
ENDBRANCH   1   2
BRANCH   1   9
ATOM      9  C   UNL     1       4.420   5.018  17.619  0.00  0.00    +0.000 C 
BRANCH   9  10
ATOM     10  C   UNL     1       5.730   5.670  17.990  0.00  0.00    +0.000 A 
ATOM     11  C   UNL     1       6.226   6.743  17.251  0.00  0.00    +0.000 A 
ATOM     12  C   UNL     1       7.456   7.293  17.602  0.00  0.00    +0.000 A 
ATOM     13  C   UNL     1       8.161   6.757  18.674  0.00  0.00    +0.000 A 
ATOM     14  C   UNL     1       7.599   5.688  19.352  0.00  0.00    +0.000 A 
ATOM     15  N   UNL     1       6.408   5.136  19.034  0.00  0.00    +0.000 NA
ENDBRANCH   9  10
ENDBRANCH   1   9
TORSDOF 4
ENDMDL
MODEL 7
REMARK VINA RESULT:      -6.5      2.414      3.686
REMARK  Name = 
REMARK  4 active torsions:
REMARK  status: ('A' for Active; 'I' for Inactive)
REMARK    1  A    between atoms: C_4  and  C_5
REMARK    2  A    between atoms: C_5  and  C_6
REMARK    3  A    between atoms: C_6  and  C_7
REMARK    4  A    between atoms: C_7  and  C_8
REMARK                            x       y       z     vdW  Elec       q    Type
REMARK                         _______ _______ _______ _____ _____    ______ ____
ROOT
ATOM      1  C   UNL     1       4.836   5.246  16.346  0.00  0.00    +0.000 C 
ENDROOT
BRANCH   1   2
ATOM      2  C   UNL     1       4.565   5.864  17.720  0.00  0.00    +0.000 C 
BRANCH   2   6
ATOM      3  C   UNL     1       1.243   3.936  19.690  0.00  0.00    +0.000 A 
ATOM      4  C   UNL     1       1.414   3.800  18.313  0.00  0.00    +0.000 A 
ATOM      5  C   UNL     1       2.501   4.409  17.680  0.00  0.00    +0.000 A 
ATOM      6  C   UNL     1       3.427   5.157  18.419  0.00  0.00    +0.000 A 
ATOM      7  C   UNL     1       3.248   5.282  19.804  0.00  0.00    +0.000 A 
ATOM      8  C   UNL     1       2.161   4.675  20.434  0.00  0.00    +0.000 A 
ENDBRANCH   2   6
ENDBRANCH   1   2
BRANCH   1   9
ATOM      9  C   UNL     1       6.321   4.960  16.123  0.00  0.00    +0.000 C 
BRANCH   9  10
ATOM     10  C   UNL     1       6.619   4.737  14.660  0.00  0.00    +0.000 A 
ATOM     11  C   UNL     1       5.902   3.795  13.923  0.00  0.00    +0.000 A 
ATOM     12  C   UNL     1       6.231   3.592  12.585  0.00  0.00    +0.000 A 
ATOM     13  C   UNL     1       7.266   4.327  12.020  0.00  0.00    +0.000 A 
ATOM     14  C   UNL     1       7.931   5.239  12.823  0.00  0.00    +0.000 A 
ATOM     15  N   UNL     1       7.632   5.458  14.122  0.00  0.00    +0.000 NA
ENDBRANCH   9  10
ENDBRANCH   1   9
TORSDOF 4
ENDMDL
MODEL 8
REMARK VINA RESULT:      -6.4      2.142      5.883
REMARK  Name = 
REMARK  4 active torsions:
REMARK  status: ('A' for Active; 'I' for Inactive)
REMARK    1  A    between atoms: C_4  and  C_5
REMARK    2  A    between atoms: C_5  and  C_6
REMARK    3  A    between atoms: C_6  and  C_7
REMARK    4  A    between atoms: C_7  and  C_8
REMARK                            x       y       z     vdW  Elec       q    Type
REMARK                         _______ _______ _______ _____ _____    ______ ____
ROOT
ATOM      1  C   UNL     1       3.047   6.682  18.482  0.00  0.00    +0.000 C 
ENDROOT
BRANCH   1   2
ATOM      2  C   UNL     1       3.941   7.271  17.388  0.00  0.00    +0.000 C 
BRANCH   2   6
ATOM      3  C   UNL     1       7.157   4.535  16.490  0.00  0.00    +0.000 A 
ATOM      4  C   UNL     1       6.342   5.015  15.468  0.00  0.00    +0.000 A 
ATOM      5  C   UNL     1       5.313   5.916  15.757  0.00  0.00    +0.000 A 
ATOM      6  C   UNL     1       5.094   6.346  17.072  0.00  0.00    +0.000 A 
ATOM      7  C   UNL     1       5.924   5.860  18.092  0.00  0.00    +0.000 A 
ATOM      8  C   UNL     1       6.949   4.960  17.802  0.00  0.00    +0.000 A 
ENDBRANCH   2   6
ENDBRANCH   1   2
BRANCH   1   9
ATOM      9  C   UNL     1       2.243   5.479  17.986  0.00  0.00    +0.000 C 
BRANCH   9  10
ATOM     10  C   UNL     1       1.940   4.525  19.116  0.00  0.00    +0.000 A 
ATOM     11  C   UNL     1       2.338   4.815  20.420  0.00  0.00    +0.000 A 
ATOM     12  C   UNL     1       2.072   3.891  21.427  0.00  0.00    +0.000 A 
ATOM     13  C   UNL     1       1.424   2.704  21.109  0.00  0.00    +0.000 A 
ATOM     14  C   UNL     1       1.067   2.492  19.788  0.00  0.00    +0.000 A 
ATOM     15  N   UNL     1       1.310   3.370  18.791  0.00  0.00    +0.000 NA
ENDBRANCH   9  10
ENDBRANCH   1   9
TORSDOF 4
ENDMDL
MODEL 9
REMARK VINA RESULT:      -6.4      0.919      1.614
REMARK  Name = 
REMARK  4 active torsions:
REMARK  status: ('A' for Active; 'I' for Inactive)
REMARK    1  A    between atoms: C_4  and  C_5
REMARK    2  A    between atoms: C_5  and  C_6
REMARK    3  A    between atoms: C_6  and  C_7
REMARK    4  A    between atoms: C_7  and  C_8
REMARK                            x       y       z     vdW  Elec       q    Type
REMARK                         _______ _______ _______ _____ _____    ______ ____
ROOT
ATOM      1  C   UNL     1       4.356   4.080  16.606  0.00  0.00    +0.000 C 
ENDROOT
BRANCH   1   2
ATOM      2  C   UNL     1       3.899   3.256  17.813  0.00  0.00    +0.000 C 
BRANCH   2   6
ATOM      3  C   UNL     1       1.667   5.719  20.568  0.00  0.00    +0.000 A 
ATOM      4  C   UNL     1       1.486   4.338  20.561  0.00  0.00    +0.000 A 
ATOM      5  C   UNL     1       2.223   3.540  19.682  0.00  0.00    +0.000 A 
ATOM      6  C   UNL     1       3.150   4.117  18.805  0.00  0.00    +0.000 A 
ATOM      7  C   UNL     1       3.328   5.508  18.824  0.00  0.00    +0.000 A 
ATOM      8  C   UNL     1       2.590   6.304  19.701  0.00  0.00    +0.000 A 
ENDBRANCH   2   6
ENDBRANCH   1   2
BRANCH   1   9
ATOM      9  C   UNL     1       5.866   3.985  16.381  0.00  0.00    +0.000 C 
BRANCH   9  10
ATOM     10  C   UNL     1       6.602   5.031  17.182  0.00  0.00    +0.000 A 
ATOM     11  C   UNL     1       6.698   6.344  16.721  0.00  0.00    +0.000 A 
ATOM     12  C   UNL     1       7.418   7.271  17.471  0.00  0.00    +0.000 A 
ATOM     13  C   UNL     1       8.025   6.866  18.653  0.00  0.00    +0.000 A 
ATOM     14  C   UNL     1       7.885   5.543  19.037  0.00  0.00    +0.000 A 
ATOM     15  N   UNL     1       7.192   4.623  18.331  0.00  0.00    +0.000 NA
ENDBRANCH   9  10
ENDBRANCH   1   9
TORSDOF 4
ENDMDL
