MODEL 1
REMARK VINA RESULT:      -8.5      0.000      0.000
REMARK  Name = 
REMARK  9 active torsions:
REMARK  status: ('A' for Active; 'I' for Inactive)
REMARK    1  A    between atoms: C_2  and  C_17
REMARK    2  A    between atoms: N_3  and  C_4
REMARK    3  A    between atoms: C_6  and  C_7
REMARK    4  A    between atoms: C_15  and  O_16
REMARK    5  A    between atoms: C_20  and  C_21
REMARK    6  A    between atoms: C_21  and  N_22
REMARK    7  A    between atoms: N_22  and  C_23
REMARK    8  A    between atoms: C_23  and  C_24
REMARK    9  A    between atoms: C_24  and  C_25
REMARK                            x       y       z     vdW  Elec       q    Type
REMARK                         _______ _______ _______ _____ _____    ______ ____
ROOT
ATOM      1  O   UNL     1       1.470   9.411  17.394  0.00  0.00    +0.000 OA
ATOM      2  C   UNL     1       1.625   8.837  18.466  0.00  0.00    +0.000 C 
ATOM      3  N   UNL     1       1.067   9.182  19.684  0.00  0.00    +0.000 N 
ATOM      4  H   UNL     1       1.447   8.778  20.533  0.00  0.00    +0.000 HD
ENDROOT
BRANCH   3   5
ATOM      5  C   UNL     1       0.154  10.234  19.903  0.00  0.00    +0.000 A 
ATOM      6  C   UNL     1      -1.046  10.347  19.202  0.00  0.00    +0.000 A 
ATOM      7  C   UNL     1      -1.902  11.448  19.362  0.00  0.00    +0.000 A 
ATOM      8  C   UNL     1      -1.541  12.413  20.319  0.00  0.00    +0.000 A 
ATOM      9  C   UNL     1      -0.366  12.290  21.070  0.00  0.00    +0.000 A 
ATOM     10  C   UNL     1       0.476  11.203  20.854  0.00  0.00    +0.000 A 
BRANCH   7  11
ATOM     11  C   UNL     1      -3.107  11.588  18.513  0.00  0.00    +0.000 A 
ATOM     12  C   UNL     1      -3.118  11.180  17.170  0.00  0.00    +0.000 A 
ATOM     13  C   UNL     1      -4.274  11.290  16.389  0.00  0.00    +0.000 A 
ATOM     14  C   UNL     1      -5.440  11.821  16.933  0.00  0.00    +0.000 A 
ATOM     15  C   UNL     1      -5.453  12.246  18.256  0.00  0.00    +0.000 A 
ATOM     16  C   UNL     1      -4.301  12.126  19.037  0.00  0.00    +0.000 A 
ENDBRANCH   7  11
BRANCH  10  17
ATOM     17  O   UNL     1       1.649  11.079  21.555  0.00  0.00    +0.000 OA
ATOM     18  H   UNL     1       1.893  11.957  21.893  0.00  0.00    +0.000 HD
ENDBRANCH  10  17
ENDBRANCH   3   5
BRANCH   2  19
ATOM     19  C   UNL     1       2.554   7.687  18.504  0.00  0.00    +0.000 A 
ATOM     20  C   UNL     1       2.516   6.848  19.623  0.00  0.00    +0.000 A 
ATOM     21  C   UNL     1       3.377   5.760  19.695  0.00  0.00    +0.000 A 
ATOM     22  C   UNL     1       4.283   5.504  18.656  0.00  0.00    +0.000 A 
ATOM     23  C   UNL     1       4.337   6.367  17.553  0.00  0.00    +0.000 A 
ATOM     24  C   UNL     1       3.475   7.460  17.476  0.00  0.00    +0.000 A 
BRANCH  22  25
ATOM     25  C   UNL     1       5.222   4.333  18.754  0.00  0.00    +0.000 C 
BRANCH  25  26
ATOM     26  N   UNL     1       5.066   3.445  17.601  0.00  0.00    +0.000 NA
ATOM     27  H   UNL     1       5.598   2.593  17.778  0.00  0.00    +0.000 HD
BRANCH  26  28
ATOM     28  C   UNL     1       3.658   3.088  17.376  0.00  0.00    +0.000 C 
BRANCH  28  29
ATOM     29  C   UNL     1       3.196   1.908  18.238  0.00  0.00    +0.000 C 
BRANCH  29  30
ATOM     30  C   UNL     1       2.212   2.302  19.277  0.00  0.00    +0.000 A 
ATOM     31  C   UNL     1       0.887   2.638  19.124  0.00  0.00    +0.000 A 
ATOM     32  N   UNL     1       0.464   2.995  20.373  0.00  0.00    +0.000 N 
ATOM     33  C   UNL     1       1.526   2.869  21.220  0.00  0.00    +0.000 A 
ATOM     34  N   UNL     1       2.599   2.448  20.589  0.00  0.00    +0.000 NA
ATOM     35  H   UNL     1      -0.460   3.313  20.626  0.00  0.00    +0.000 HD
ENDBRANCH  29  30
ENDBRANCH  28  29
ENDBRANCH  26  28
ENDBRANCH  25  26
ENDBRANCH  22  25
ENDBRANCH   2  19
TORSDOF 9
ENDMDL
MODEL 2
REMARK VINA RESULT:      -8.3      3.984     10.124
REMARK  Name = 
REMARK  9 active torsions:
REMARK  status: ('A' for Active; 'I' for Inactive)
REMARK    1  A    between atoms: C_2  and  C_17
REMARK    2  A    between atoms: N_3  and  C_4
REMARK    3  A    between atoms: C_6  and  C_7
REMARK    4  A    between atoms: C_15  and  O_16
REMARK    5  A    between atoms: C_20  and  C_21
REMARK    6  A    between atoms: C_21  and  N_22
REMARK    7  A    between atoms: N_22  and  C_23
REMARK    8  A    between atoms: C_23  and  C_24
REMARK    9  A    between atoms: C_24  and  C_25
REMARK                            x       y       z     vdW  Elec       q    Type
REMARK                         _______ _______ _______ _____ _____    ______ ____
ROOT
ATOM      1  O   UNL     1       2.634   5.518  18.063  0.00  0.00    +0.000 OA
ATOM      2  C   UNL     1       3.143   6.625  18.204  0.00  0.00    +0.000 C 
ATOM      3  N   UNL     1       4.462   6.970  17.975  0.00  0.00    +0.000 N 
ATOM      4  H   UNL     1       4.813   7.848  18.344  0.00  0.00    +0.000 HD
ENDROOT
BRANCH   3   5
ATOM      5  C   UNL     1       5.461   6.115  17.469  0.00  0.00    +0.000 A 
ATOM      6  C   UNL     1       5.608   5.852  16.107  0.00  0.00    +0.000 A 
ATOM      7  C   UNL     1       6.546   4.926  15.624  0.00  0.00    +0.000 A 
ATOM      8  C   UNL     1       7.395   4.316  16.564  0.00  0.00    +0.000 A 
ATOM      9  C   UNL     1       7.299   4.607  17.930  0.00  0.00    +0.000 A 
ATOM     10  C   UNL     1       6.330   5.502  18.374  0.00  0.00    +0.000 A 
BRANCH   7  11
ATOM     11  C   UNL     1       6.589   4.589  14.183  0.00  0.00    +0.000 A 
ATOM     12  C   UNL     1       7.529   5.165  13.315  0.00  0.00    +0.000 A 
ATOM     13  C   UNL     1       7.578   4.812  11.962  0.00  0.00    +0.000 A 
ATOM     14  C   UNL     1       6.678   3.884  11.446  0.00  0.00    +0.000 A 
ATOM     15  C   UNL     1       5.727   3.308  12.280  0.00  0.00    +0.000 A 
ATOM     16  C   UNL     1       5.688   3.654  13.633  0.00  0.00    +0.000 A 
ENDBRANCH   7  11
BRANCH  10  17
ATOM     17  O   UNL     1       6.194   5.777  19.711  0.00  0.00    +0.000 OA
ATOM     18  H   UNL     1       5.481   6.429  19.814  0.00  0.00    +0.000 HD
ENDBRANCH  10  17
ENDBRANCH   3   5
BRANCH   2  19
ATOM     19  C   UNL     1       2.292   7.711  18.736  0.00  0.00    +0.000 A 
ATOM     20  C   UNL     1       1.946   7.671  20.091  0.00  0.00    +0.000 A 
ATOM     21  C   UNL     1       1.144   8.673  20.625  0.00  0.00    +0.000 A 
ATOM     22  C   UNL     1       0.678   9.716  19.811  0.00  0.00    +0.000 A 
ATOM     23  C   UNL     1       1.002   9.731  18.448  0.00  0.00    +0.000 A 
ATOM     24  C   UNL     1       1.806   8.729  17.908  0.00  0.00    +0.000 A 
BRANCH  22  25
ATOM     25  C   UNL     1      -0.204  10.784  20.398  0.00  0.00    +0.000 C 
BRANCH  25  26
ATOM     26  N   UNL     1       0.262  11.168  21.731  0.00  0.00    +0.000 NA
ATOM     27  H   UNL     1       0.704  12.085  21.664  0.00  0.00    +0.000 HD
BRANCH  26  28
ATOM     28  C   UNL     1      -0.846  11.243  22.694  0.00  0.00    +0.000 C 
BRANCH  28  29
ATOM     29  C   UNL     1      -2.031  12.065  22.176  0.00  0.00    +0.000 C 
BRANCH  29  30
ATOM     30  C   UNL     1      -2.864  12.629  23.267  0.00  0.00    +0.000 A 
ATOM     31  C   UNL     1      -2.760  13.856  23.882  0.00  0.00    +0.000 A 
ATOM     32  N   UNL     1      -3.708  13.841  24.867  0.00  0.00    +0.000 N 
ATOM     33  C   UNL     1      -4.336  12.630  24.817  0.00  0.00    +0.000 A 
ATOM     34  N   UNL     1      -3.851  11.875  23.857  0.00  0.00    +0.000 NA
ATOM     35  H   UNL     1      -3.900  14.580  25.527  0.00  0.00    +0.000 HD
ENDBRANCH  29  30
ENDBRANCH  28  29
ENDBRANCH  26  28
ENDBRANCH  25  26
ENDBRANCH  22  25
ENDBRANCH   2  19
TORSDOF 9
ENDMDL
MODEL 3
REMARK VINA RESULT:      -8.3      6.223     10.308
REMARK  Name = 
REMARK  9 active torsions:
REMARK  status: ('A' for Active; 'I' for Inactive)
REMARK    1  A    between atoms: C_2  and  C_17
REMARK    2  A    between atoms: N_3  and  C_4
REMARK    3  A    between atoms: C_6  and  C_7
REMARK    4  A    between atoms: C_15  and  O_16
REMARK    5  A    between atoms: C_20  and  C_21
REMARK    6  A    between atoms: C_21  and  N_22
REMARK    7  A    between atoms: N_22  and  C_23
REMARK    8  A    between atoms: C_23  and  C_24
REMARK    9  A    between atoms: C_24  and  C_25
REMARK                            x       y       z     vdW  Elec       q    Type
REMARK                         _______ _______ _______ _____ _____    ______ ____
ROOT
ATOM      1  O   UNL     1       8.267   6.893  18.807  0.00  0.00    +0.000 OA
ATOM      2  C   UNL     1       7.740   7.760  18.118  0.00  0.00    +0.000 C 
ATOM      3  N   UNL     1       6.715   7.591  17.207  0.00  0.00    +0.000 N 
ATOM      4  H   UNL     1       6.523   8.329  16.537  0.00  0.00    +0.000 HD
ENDROOT
BRANCH   3   5
ATOM      5  C   UNL     1       6.035   6.384  16.946  0.00  0.00    +0.000 A 
ATOM      6  C   UNL     1       4.860   6.024  17.606  0.00  0.00    +0.000 A 
ATOM      7  C   UNL     1       4.244   4.779  17.406  0.00  0.00    +0.000 A 
ATOM      8  C   UNL     1       4.818   3.920  16.451  0.00  0.00    +0.000 A 
ATOM      9  C   UNL     1       5.967   4.286  15.740  0.00  0.00    +0.000 A 
ATOM     10  C   UNL     1       6.571   5.513  15.996  0.00  0.00    +0.000 A 
BRANCH   7  11
ATOM     11  C   UNL     1       3.066   4.390  18.212  0.00  0.00    +0.000 A 
ATOM     12  C   UNL     1       2.219   3.338  17.828  0.00  0.00    +0.000 A 
ATOM     13  C   UNL     1       1.127   2.961  18.617  0.00  0.00    +0.000 A 
ATOM     14  C   UNL     1       0.851   3.637  19.802  0.00  0.00    +0.000 A 
ATOM     15  C   UNL     1       1.665   4.691  20.200  0.00  0.00    +0.000 A 
ATOM     16  C   UNL     1       2.761   5.059  19.416  0.00  0.00    +0.000 A 
ENDBRANCH   7  11
BRANCH  10  17
ATOM     17  O   UNL     1       7.717   5.878  15.336  0.00  0.00    +0.000 OA
ATOM     18  H   UNL     1       7.513   6.651  14.783  0.00  0.00    +0.000 HD
ENDBRANCH  10  17
ENDBRANCH   3   5
BRANCH   2  19
ATOM     19  C   UNL     1       8.283   9.133  18.206  0.00  0.00    +0.000 A 
ATOM     20  C   UNL     1       9.255   9.394  19.178  0.00  0.00    +0.000 A 
ATOM     21  C   UNL     1       9.786  10.673  19.293  0.00  0.00    +0.000 A 
ATOM     22  C   UNL     1       9.347  11.700  18.444  0.00  0.00    +0.000 A 
ATOM     23  C   UNL     1       8.350  11.438  17.495  0.00  0.00    +0.000 A 
ATOM     24  C   UNL     1       7.816  10.157  17.376  0.00  0.00    +0.000 A 
BRANCH  22  25
ATOM     25  C   UNL     1       9.917  13.085  18.590  0.00  0.00    +0.000 C 
BRANCH  25  26
ATOM     26  N   UNL     1       9.050  13.918  19.425  0.00  0.00    +0.000 NA
ATOM     27  H   UNL     1       9.136  13.603  20.391  0.00  0.00    +0.000 HD
BRANCH  26  28
ATOM     28  C   UNL     1       9.425  15.337  19.352  0.00  0.00    +0.000 C 
BRANCH  28  29
ATOM     29  C   UNL     1       8.690  16.092  18.240  0.00  0.00    +0.000 C 
BRANCH  29  30
ATOM     30  C   UNL     1       7.230  15.826  18.228  0.00  0.00    +0.000 A 
ATOM     31  C   UNL     1       6.216  16.558  18.802  0.00  0.00    +0.000 A 
ATOM     32  N   UNL     1       5.079  15.837  18.567  0.00  0.00    +0.000 N 
ATOM     33  C   UNL     1       5.437  14.716  17.876  0.00  0.00    +0.000 A 
ATOM     34  N   UNL     1       6.731  14.681  17.651  0.00  0.00    +0.000 NA
ATOM     35  H   UNL     1       4.144  16.076  18.863  0.00  0.00    +0.000 HD
ENDBRANCH  29  30
ENDBRANCH  28  29
ENDBRANCH  26  28
ENDBRANCH  25  26
ENDBRANCH  22  25
ENDBRANCH   2  19
TORSDOF 9
ENDMDL
MODEL 4
REMARK VINA RESULT:      -8.2      6.997     11.176
REMARK  Name = 
REMARK  9 active torsions:
REMARK  status: ('A' for Active; 'I' for Inactive)
REMARK    1  A    between atoms: C_2  and  C_17
REMARK    2  A    between atoms: N_3  and  C_4
REMARK    3  A    between atoms: C_6  and  C_7
REMARK    4  A    between atoms: C_15  and  O_16
REMARK    5  A    between atoms: C_20  and  C_21
REMARK    6  A    between atoms: C_21  and  N_22
REMARK    7  A    between atoms: N_22  and  C_23
REMARK    8  A    between atoms: C_23  and  C_24
REMARK    9  A    between atoms: C_24  and  C_25
REMARK                            x       y       z     vdW  Elec       q    Type
REMARK                         _______ _______ _______ _____ _____    ______ ____
ROOT
ATOM      1  O   UNL     1       8.321   6.814  18.880  0.00  0.00    +0.000 OA
ATOM      2  C   UNL     1       7.794   7.703  18.219  0.00  0.00    +0.000 C 
ATOM      3  N   UNL     1       6.768   7.562  17.303  0.00  0.00    +0.000 N 
ATOM      4  H   UNL     1       6.576   8.321  16.658  0.00  0.00    +0.000 HD
ENDROOT
BRANCH   3   5
ATOM      5  C   UNL     1       6.089   6.363  17.004  0.00  0.00    +0.000 A 
ATOM      6  C   UNL     1       4.944   5.956  17.687  0.00  0.00    +0.000 A 
ATOM      7  C   UNL     1       4.332   4.716  17.444  0.00  0.00    +0.000 A 
ATOM      8  C   UNL     1       4.876   3.916  16.424  0.00  0.00    +0.000 A 
ATOM      9  C   UNL     1       5.994   4.331  15.690  0.00  0.00    +0.000 A 
ATOM     10  C   UNL     1       6.596   5.550  15.988  0.00  0.00    +0.000 A 
BRANCH   7  11
ATOM     11  C   UNL     1       3.189   4.272  18.273  0.00  0.00    +0.000 A 
ATOM     12  C   UNL     1       3.153   4.482  19.660  0.00  0.00    +0.000 A 
ATOM     13  C   UNL     1       2.052   4.085  20.426  0.00  0.00    +0.000 A 
ATOM     14  C   UNL     1       0.967   3.456  19.821  0.00  0.00    +0.000 A 
ATOM     15  C   UNL     1       0.982   3.222  18.451  0.00  0.00    +0.000 A 
ATOM     16  C   UNL     1       2.078   3.630  17.687  0.00  0.00    +0.000 A 
ENDBRANCH   7  11
BRANCH  10  17
ATOM     17  O   UNL     1       7.712   5.962  15.306  0.00  0.00    +0.000 OA
ATOM     18  H   UNL     1       7.739   5.490  14.457  0.00  0.00    +0.000 HD
ENDBRANCH  10  17
ENDBRANCH   3   5
BRANCH   2  19
ATOM     19  C   UNL     1       8.336   9.072  18.351  0.00  0.00    +0.000 A 
ATOM     20  C   UNL     1       7.934  10.031  17.414  0.00  0.00    +0.000 A 
ATOM     21  C   UNL     1       8.426  11.327  17.504  0.00  0.00    +0.000 A 
ATOM     22  C   UNL     1       9.324  11.674  18.523  0.00  0.00    +0.000 A 
ATOM     23  C   UNL     1       9.746  10.701  19.439  0.00  0.00    +0.000 A 
ATOM     24  C   UNL     1       9.255   9.399  19.353  0.00  0.00    +0.000 A 
BRANCH  22  25
ATOM     25  C   UNL     1       9.863  13.077  18.599  0.00  0.00    +0.000 C 
BRANCH  25  26
ATOM     26  N   UNL     1      10.068  13.628  17.259  0.00  0.00    +0.000 NA
ATOM     27  H   UNL     1       9.247  14.178  17.009  0.00  0.00    +0.000 HD
BRANCH  26  28
ATOM     28  C   UNL     1      11.256  14.492  17.202  0.00  0.00    +0.000 C 
BRANCH  28  29
ATOM     29  C   UNL     1      11.017  15.783  16.412  0.00  0.00    +0.000 C 
BRANCH  29  30
ATOM     30  C   UNL     1      10.221  16.784  17.166  0.00  0.00    +0.000 A 
ATOM     31  C   UNL     1      10.542  18.087  17.469  0.00  0.00    +0.000 A 
ATOM     32  N   UNL     1       9.510  18.537  18.243  0.00  0.00    +0.000 N 
ATOM     33  C   UNL     1       8.621  17.511  18.382  0.00  0.00    +0.000 A 
ATOM     34  N   UNL     1       9.020  16.437  17.738  0.00  0.00    +0.000 NA
ATOM     35  H   UNL     1       9.424  19.454  18.656  0.00  0.00    +0.000 HD
ENDBRANCH  29  30
ENDBRANCH  28  29
ENDBRANCH  26  28
ENDBRANCH  25  26
ENDBRANCH  22  25
ENDBRANCH   2  19
TORSDOF 9
ENDMDL
MODEL 5
REMARK VINA RESULT:      -8.2      6.050     10.245
REMARK  Name = 
REMARK  9 active torsions:
REMARK  status: ('A' for Active; 'I' for Inactive)
REMARK    1  A    between atoms: C_2  and  C_17
REMARK    2  A    between atoms: N_3  and  C_4
REMARK    3  A    between atoms: C_6  and  C_7
REMARK    4  A    between atoms: C_15  and  O_16
REMARK    5  A    between atoms: C_20  and  C_21
REMARK    6  A    between atoms: C_21  and  N_22
REMARK    7  A    between atoms: N_22  and  C_23
REMARK    8  A    between atoms: C_23  and  C_24
REMARK    9  A    between atoms: C_24  and  C_25
REMARK                            x       y       z     vdW  Elec       q    Type
REMARK                         _______ _______ _______ _____ _____    ______ ____
ROOT
ATOM      1  O   UNL     1       8.345   6.959  18.803  0.00  0.00    +0.000 OA
ATOM      2  C   UNL     1       7.774   7.817  18.138  0.00  0.00    +0.000 C 
ATOM      3  N   UNL     1       6.717   7.629  17.267  0.00  0.00    +0.000 N 
ATOM      4  H   UNL     1       6.484   8.364  16.608  0.00  0.00    +0.000 HD
ENDROOT
BRANCH   3   5
ATOM      5  C   UNL     1       6.052   6.408  17.031  0.00  0.00    +0.000 A 
ATOM      6  C   UNL     1       4.894   6.037  17.714  0.00  0.00    +0.000 A 
ATOM      7  C   UNL     1       4.295   4.781  17.537  0.00  0.00    +0.000 A 
ATOM      8  C   UNL     1       4.866   3.921  16.582  0.00  0.00    +0.000 A 
ATOM      9  C   UNL     1       5.998   4.296  15.848  0.00  0.00    +0.000 A 
ATOM     10  C   UNL     1       6.586   5.536  16.080  0.00  0.00    +0.000 A 
BRANCH   7  11
ATOM     11  C   UNL     1       3.136   4.382  18.367  0.00  0.00    +0.000 A 
ATOM     12  C   UNL     1       2.923   4.916  19.647  0.00  0.00    +0.000 A 
ATOM     13  C   UNL     1       1.806   4.553  20.407  0.00  0.00    +0.000 A 
ATOM     14  C   UNL     1       0.883   3.638  19.907  0.00  0.00    +0.000 A 
ATOM     15  C   UNL     1       1.077   3.082  18.648  0.00  0.00    +0.000 A 
ATOM     16  C   UNL     1       2.188   3.455  17.887  0.00  0.00    +0.000 A 
ENDBRANCH   7  11
BRANCH  10  17
ATOM     17  O   UNL     1       7.715   5.911  15.398  0.00  0.00    +0.000 OA
ATOM     18  H   UNL     1       8.159   6.608  15.909  0.00  0.00    +0.000 HD
ENDBRANCH  10  17
ENDBRANCH   3   5
BRANCH   2  19
ATOM     19  C   UNL     1       8.293   9.200  18.208  0.00  0.00    +0.000 A 
ATOM     20  C   UNL     1       7.738  10.154  17.348  0.00  0.00    +0.000 A 
ATOM     21  C   UNL     1       8.203  11.463  17.382  0.00  0.00    +0.000 A 
ATOM     22  C   UNL     1       9.226  11.827  18.269  0.00  0.00    +0.000 A 
ATOM     23  C   UNL     1       9.799  10.859  19.105  0.00  0.00    +0.000 A 
ATOM     24  C   UNL     1       9.335   9.545  19.074  0.00  0.00    +0.000 A 
BRANCH  22  25
ATOM     25  C   UNL     1       9.732  13.244  18.284  0.00  0.00    +0.000 C 
BRANCH  25  26
ATOM     26  N   UNL     1       8.871  14.112  17.480  0.00  0.00    +0.000 NA
ATOM     27  H   UNL     1       8.054  13.575  17.191  0.00  0.00    +0.000 HD
BRANCH  26  28
ATOM     28  C   UNL     1       8.422  15.288  18.240  0.00  0.00    +0.000 C 
BRANCH  28  29
ATOM     29  C   UNL     1       7.250  14.980  19.177  0.00  0.00    +0.000 C 
BRANCH  29  30
ATOM     30  C   UNL     1       5.951  15.481  18.661  0.00  0.00    +0.000 A 
ATOM     31  C   UNL     1       5.331  16.683  18.913  0.00  0.00    +0.000 A 
ATOM     32  N   UNL     1       4.130  16.607  18.264  0.00  0.00    +0.000 N 
ATOM     33  C   UNL     1       4.066  15.387  17.658  0.00  0.00    +0.000 A 
ATOM     34  N   UNL     1       5.154  14.682  17.875  0.00  0.00    +0.000 NA
ATOM     35  H   UNL     1       3.411  17.315  18.248  0.00  0.00    +0.000 HD
ENDBRANCH  29  30
ENDBRANCH  28  29
ENDBRANCH  26  28
ENDBRANCH  25  26
ENDBRANCH  22  25
ENDBRANCH   2  19
TORSDOF 9
ENDMDL
MODEL 6
REMARK VINA RESULT:      -8.2      3.546      9.847
REMARK  Name = 
REMARK  9 active torsions:
REMARK  status: ('A' for Active; 'I' for Inactive)
REMARK    1  A    between atoms: C_2  and  C_17
REMARK    2  A    between atoms: N_3  and  C_4
REMARK    3  A    between atoms: C_6  and  C_7
REMARK    4  A    between atoms: C_15  and  O_16
REMARK    5  A    between atoms: C_20  and  C_21
REMARK    6  A    between atoms: C_21  and  N_22
REMARK    7  A    between atoms: N_22  and  C_23
REMARK    8  A    between atoms: C_23  and  C_24
REMARK    9  A    between atoms: C_24  and  C_25
REMARK                            x       y       z     vdW  Elec       q    Type
REMARK                         _______ _______ _______ _____ _____    ______ ____
ROOT
ATOM      1  O   UNL     1       3.103   5.475  19.177  0.00  0.00    +0.000 OA
ATOM      2  C   UNL     1       3.280   6.570  18.656  0.00  0.00    +0.000 C 
ATOM      3  N   UNL     1       4.314   6.935  17.814  0.00  0.00    +0.000 N 
ATOM      4  H   UNL     1       4.480   7.920  17.635  0.00  0.00    +0.000 HD
ENDROOT
BRANCH   3   5
ATOM      5  C   UNL     1       5.332   6.081  17.342  0.00  0.00    +0.000 A 
ATOM      6  C   UNL     1       5.494   5.779  15.990  0.00  0.00    +0.000 A 
ATOM      7  C   UNL     1       6.451   4.856  15.542  0.00  0.00    +0.000 A 
ATOM      8  C   UNL     1       7.303   4.289  16.507  0.00  0.00    +0.000 A 
ATOM      9  C   UNL     1       7.190   4.620  17.863  0.00  0.00    +0.000 A 
ATOM     10  C   UNL     1       6.202   5.511  18.272  0.00  0.00    +0.000 A 
BRANCH   7  11
ATOM     11  C   UNL     1       6.512   4.475  14.113  0.00  0.00    +0.000 A 
ATOM     12  C   UNL     1       7.542   4.922  13.270  0.00  0.00    +0.000 A 
ATOM     13  C   UNL     1       7.603   4.529  11.929  0.00  0.00    +0.000 A 
ATOM     14  C   UNL     1       6.628   3.689  11.399  0.00  0.00    +0.000 A 
ATOM     15  C   UNL     1       5.589   3.243  12.207  0.00  0.00    +0.000 A 
ATOM     16  C   UNL     1       5.536   3.628  13.549  0.00  0.00    +0.000 A 
ENDBRANCH   7  11
BRANCH  10  17
ATOM     17  O   UNL     1       6.051   5.824  19.599  0.00  0.00    +0.000 OA
ATOM     18  H   UNL     1       5.217   6.313  19.700  0.00  0.00    +0.000 HD
ENDBRANCH  10  17
ENDBRANCH   3   5
BRANCH   2  19
ATOM     19  C   UNL     1       2.337   7.656  19.000  0.00  0.00    +0.000 A 
ATOM     20  C   UNL     1       1.809   7.683  20.295  0.00  0.00    +0.000 A 
ATOM     21  C   UNL     1       0.917   8.686  20.654  0.00  0.00    +0.000 A 
ATOM     22  C   UNL     1       0.540   9.664  19.722  0.00  0.00    +0.000 A 
ATOM     23  C   UNL     1       1.048   9.612  18.417  0.00  0.00    +0.000 A 
ATOM     24  C   UNL     1       1.944   8.608  18.054  0.00  0.00    +0.000 A 
BRANCH  22  25
ATOM     25  C   UNL     1      -0.441  10.734  20.117  0.00  0.00    +0.000 C 
BRANCH  25  26
ATOM     26  N   UNL     1      -0.490  11.792  19.106  0.00  0.00    +0.000 NA
ATOM     27  H   UNL     1      -0.555  11.354  18.187  0.00  0.00    +0.000 HD
BRANCH  26  28
ATOM     28  C   UNL     1      -1.651  12.672  19.296  0.00  0.00    +0.000 C 
BRANCH  28  29
ATOM     29  C   UNL     1      -2.987  11.928  19.196  0.00  0.00    +0.000 C 
BRANCH  29  30
ATOM     30  C   UNL     1      -3.331  11.545  17.804  0.00  0.00    +0.000 A 
ATOM     31  C   UNL     1      -4.575  11.358  17.245  0.00  0.00    +0.000 A 
ATOM     32  N   UNL     1      -4.331  10.937  15.967  0.00  0.00    +0.000 N 
ATOM     33  C   UNL     1      -2.978  10.882  15.802  0.00  0.00    +0.000 A 
ATOM     34  N   UNL     1      -2.343  11.248  16.894  0.00  0.00    +0.000 NA
ATOM     35  H   UNL     1      -5.022  10.691  15.274  0.00  0.00    +0.000 HD
ENDBRANCH  29  30
ENDBRANCH  28  29
ENDBRANCH  26  28
ENDBRANCH  25  26
ENDBRANCH  22  25
ENDBRANCH   2  19
TORSDOF 9
ENDMDL
MODEL 7
REMARK VINA RESULT:      -8.2      0.781      1.346
REMARK  Name = 
REMARK  9 active torsions:
REMARK  status: ('A' for Active; 'I' for Inactive)
REMARK    1  A    between atoms: C_2  and  C_17
REMARK    2  A    between atoms: N_3  and  C_4
REMARK    3  A    between atoms: C_6  and  C_7
REMARK    4  A    between atoms: C_15  and  O_16
REMARK    5  A    between atoms: C_20  and  C_21
REMARK    6  A    between atoms: C_21  and  N_22
REMARK    7  A    between atoms: N_22  and  C_23
REMARK    8  A    between atoms: C_23  and  C_24
REMARK    9  A    between atoms: C_24  and  C_25
REMARK                            x       y       z     vdW  Elec       q    Type
REMARK                         _______ _______ _______ _____ _____    ______ ____
ROOT
ATOM      1  O   UNL     1       1.948   9.666  17.514  0.00  0.00    +0.000 OA
ATOM      2  C   UNL     1       1.880   8.883  18.455  0.00  0.00    +0.000 C 
ATOM      3  N   UNL     1       1.120   9.021  19.601  0.00  0.00    +0.000 N 
ATOM      4  H   UNL     1       1.322   8.430  20.401  0.00  0.00    +0.000 HD
ENDROOT
BRANCH   3   5
ATOM      5  C   UNL     1       0.223  10.074  19.872  0.00  0.00    +0.000 A 
ATOM      6  C   UNL     1      -0.974  10.240  19.176  0.00  0.00    +0.000 A 
ATOM      7  C   UNL     1      -1.814  11.344  19.391  0.00  0.00    +0.000 A 
ATOM      8  C   UNL     1      -1.441  12.254  20.395  0.00  0.00    +0.000 A 
ATOM      9  C   UNL     1      -0.270  12.076  21.142  0.00  0.00    +0.000 A 
ATOM     10  C   UNL     1       0.556  10.989  20.872  0.00  0.00    +0.000 A 
BRANCH   7  11
ATOM     11  C   UNL     1      -3.014  11.545  18.548  0.00  0.00    +0.000 A 
ATOM     12  C   UNL     1      -3.025  11.217  17.183  0.00  0.00    +0.000 A 
ATOM     13  C   UNL     1      -4.178  11.383  16.407  0.00  0.00    +0.000 A 
ATOM     14  C   UNL     1      -5.341  11.892  16.978  0.00  0.00    +0.000 A 
ATOM     15  C   UNL     1      -5.354  12.239  18.324  0.00  0.00    +0.000 A 
ATOM     16  C   UNL     1      -4.205  12.062  19.099  0.00  0.00    +0.000 A 
ENDBRANCH   7  11
BRANCH  10  17
ATOM     17  O   UNL     1       1.726  10.812  21.567  0.00  0.00    +0.000 OA
ATOM     18  H   UNL     1       2.423  10.579  20.931  0.00  0.00    +0.000 HD
ENDBRANCH  10  17
ENDBRANCH   3   5
BRANCH   2  19
ATOM     19  C   UNL     1       2.743   7.682  18.413  0.00  0.00    +0.000 A 
ATOM     20  C   UNL     1       3.502   7.458  17.260  0.00  0.00    +0.000 A 
ATOM     21  C   UNL     1       4.321   6.338  17.183  0.00  0.00    +0.000 A 
ATOM     22  C   UNL     1       4.383   5.432  18.252  0.00  0.00    +0.000 A 
ATOM     23  C   UNL     1       3.595   5.646  19.391  0.00  0.00    +0.000 A 
ATOM     24  C   UNL     1       2.773   6.769  19.472  0.00  0.00    +0.000 A 
BRANCH  22  25
ATOM     25  C   UNL     1       5.260   4.214  18.150  0.00  0.00    +0.000 C 
BRANCH  25  26
ATOM     26  N   UNL     1       5.438   3.591  19.462  0.00  0.00    +0.000 NA
ATOM     27  H   UNL     1       5.069   4.224  20.170  0.00  0.00    +0.000 HD
BRANCH  26  28
ATOM     28  C   UNL     1       4.729   2.307  19.555  0.00  0.00    +0.000 C 
BRANCH  28  29
ATOM     29  C   UNL     1       3.688   2.281  20.679  0.00  0.00    +0.000 C 
BRANCH  29  30
ATOM     30  C   UNL     1       2.317   2.590  20.204  0.00  0.00    +0.000 A 
ATOM     31  C   UNL     1       1.258   3.113  20.911  0.00  0.00    +0.000 A 
ATOM     32  N   UNL     1       0.212   3.122  20.031  0.00  0.00    +0.000 N 
ATOM     33  C   UNL     1       0.664   2.612  18.848  0.00  0.00    +0.000 A 
ATOM     34  N   UNL     1       1.935   2.284  18.919  0.00  0.00    +0.000 NA
ATOM     35  H   UNL     1      -0.730   3.431  20.220  0.00  0.00    +0.000 HD
ENDBRANCH  29  30
ENDBRANCH  28  29
ENDBRANCH  26  28
ENDBRANCH  25  26
ENDBRANCH  22  25
ENDBRANCH   2  19
TORSDOF 9
ENDMDL
MODEL 8
REMARK VINA RESULT:      -8.1      1.208      1.275
REMARK  Name = 
REMARK  9 active torsions:
REMARK  status: ('A' for Active; 'I' for Inactive)
REMARK    1  A    between atoms: C_2  and  C_17
REMARK    2  A    between atoms: N_3  and  C_4
REMARK    3  A    between atoms: C_6  and  C_7
REMARK    4  A    between atoms: C_15  and  O_16
REMARK    5  A    between atoms: C_20  and  C_21
REMARK    6  A    between atoms: C_21  and  N_22
REMARK    7  A    between atoms: N_22  and  C_23
REMARK    8  A    between atoms: C_23  and  C_24
REMARK    9  A    between atoms: C_24  and  C_25
REMARK                            x       y       z     vdW  Elec       q    Type
REMARK                         _______ _______ _______ _____ _____    ______ ____
ROOT
ATOM      1  O   UNL     1       0.797   8.697  20.539  0.00  0.00    +0.000 OA
ATOM      2  C   UNL     1       1.350   8.869  19.459  0.00  0.00    +0.000 C 
ATOM      3  N   UNL     1       1.141   9.911  18.573  0.00  0.00    +0.000 N 
ATOM      4  H   UNL     1       1.480   9.824  17.621  0.00  0.00    +0.000 HD
ENDROOT
BRANCH   3   5
ATOM      5  C   UNL     1       0.290  11.014  18.786  0.00  0.00    +0.000 A 
ATOM      6  C   UNL     1      -1.101  10.907  18.761  0.00  0.00    +0.000 A 
ATOM      7  C   UNL     1      -1.936  12.029  18.880  0.00  0.00    +0.000 A 
ATOM      8  C   UNL     1      -1.321  13.273  19.102  0.00  0.00    +0.000 A 
ATOM      9  C   UNL     1       0.072  13.392  19.183  0.00  0.00    +0.000 A 
ATOM     10  C   UNL     1       0.868  12.263  19.020  0.00  0.00    +0.000 A 
BRANCH   7  11
ATOM     11  C   UNL     1      -3.402  11.888  18.730  0.00  0.00    +0.000 A 
ATOM     12  C   UNL     1      -3.976  11.254  17.617  0.00  0.00    +0.000 A 
ATOM     13  C   UNL     1      -5.361  11.100  17.504  0.00  0.00    +0.000 A 
ATOM     14  C   UNL     1      -6.205  11.588  18.498  0.00  0.00    +0.000 A 
ATOM     15  C   UNL     1      -5.665  12.233  19.604  0.00  0.00    +0.000 A 
ATOM     16  C   UNL     1      -4.281  12.376  19.720  0.00  0.00    +0.000 A 
ENDBRANCH   7  11
BRANCH  10  17
ATOM     17  O   UNL     1       2.236  12.361  19.062  0.00  0.00    +0.000 OA
ATOM     18  H   UNL     1       2.487  13.227  18.701  0.00  0.00    +0.000 HD
ENDBRANCH  10  17
ENDBRANCH   3   5
BRANCH   2  19
ATOM     19  C   UNL     1       2.300   7.834  18.998  0.00  0.00    +0.000 A 
ATOM     20  C   UNL     1       2.552   6.750  19.846  0.00  0.00    +0.000 A 
ATOM     21  C   UNL     1       3.442   5.759  19.448  0.00  0.00    +0.000 A 
ATOM     22  C   UNL     1       4.090   5.846  18.208  0.00  0.00    +0.000 A 
ATOM     23  C   UNL     1       3.857   6.951  17.378  0.00  0.00    +0.000 A 
ATOM     24  C   UNL     1       2.964   7.947  17.772  0.00  0.00    +0.000 A 
BRANCH  22  25
ATOM     25  C   UNL     1       5.064   4.776  17.797  0.00  0.00    +0.000 C 
BRANCH  25  26
ATOM     26  N   UNL     1       4.736   3.501  18.436  0.00  0.00    +0.000 NA
ATOM     27  H   UNL     1       4.234   3.697  19.302  0.00  0.00    +0.000 HD
BRANCH  26  28
ATOM     28  C   UNL     1       3.888   2.663  17.575  0.00  0.00    +0.000 C 
BRANCH  28  29
ATOM     29  C   UNL     1       3.070   1.636  18.364  0.00  0.00    +0.000 C 
BRANCH  29  30
ATOM     30  C   UNL     1       2.108   2.262  19.305  0.00  0.00    +0.000 A 
ATOM     31  C   UNL     1       0.858   2.774  19.045  0.00  0.00    +0.000 A 
ATOM     32  N   UNL     1       0.435   3.301  20.233  0.00  0.00    +0.000 N 
ATOM     33  C   UNL     1       1.424   3.098  21.150  0.00  0.00    +0.000 A 
ATOM     34  N   UNL     1       2.449   2.468  20.621  0.00  0.00    +0.000 NA
ATOM     35  H   UNL     1      -0.442   3.773  20.402  0.00  0.00    +0.000 HD
ENDBRANCH  29  30
ENDBRANCH  28  29
ENDBRANCH  26  28
ENDBRANCH  25  26
ENDBRANCH  22  25
ENDBRANCH   2  19
TORSDOF 9
ENDMDL
MODEL 9
REMARK VINA RESULT:      -8.1      0.984      1.593
REMARK  Name = 
REMARK  9 active torsions:
REMARK  status: ('A' for Active; 'I' for Inactive)
REMARK    1  A    between atoms: C_2  and  C_17
REMARK    2  A    between atoms: N_3  and  C_4
REMARK    3  A    between atoms: C_6  and  C_7
REMARK    4  A    between atoms: C_15  and  O_16
REMARK    5  A    between atoms: C_20  and  C_21
REMARK    6  A    between atoms: C_21  and  N_22
REMARK    7  A    between atoms: N_22  and  C_23
REMARK    8  A    between atoms: C_23  and  C_24
REMARK    9  A    between atoms: C_24  and  C_25
REMARK                            x       y       z     vdW  Elec       q    Type
REMARK                         _______ _______ _______ _____ _____    ______ ____
ROOT
ATOM      1  O   UNL     1       0.827   8.441  21.281  0.00  0.00    +0.000 OA
ATOM      2  C   UNL     1       1.181   8.667  20.129  0.00  0.00    +0.000 C 
ATOM      3  N   UNL     1       0.747   9.693  19.310  0.00  0.00    +0.000 N 
ATOM      4  H   UNL     1       0.933   9.641  18.314  0.00  0.00    +0.000 HD
ENDROOT
BRANCH   3   5
ATOM      5  C   UNL     1      -0.148  10.718  19.679  0.00  0.00    +0.000 A 
ATOM      6  C   UNL     1      -1.451  10.794  19.187  0.00  0.00    +0.000 A 
ATOM      7  C   UNL     1      -2.300  11.870  19.488  0.00  0.00    +0.000 A 
ATOM      8  C   UNL     1      -1.813  12.849  20.372  0.00  0.00    +0.000 A 
ATOM      9  C   UNL     1      -0.527  12.763  20.919  0.00  0.00    +0.000 A 
ATOM     10  C   UNL     1       0.299  11.700  20.565  0.00  0.00    +0.000 A 
BRANCH   7  11
ATOM     11  C   UNL     1      -3.632  11.971  18.852  0.00  0.00    +0.000 A 
ATOM     12  C   UNL     1      -4.737  12.512  19.528  0.00  0.00    +0.000 A 
ATOM     13  C   UNL     1      -5.983  12.630  18.902  0.00  0.00    +0.000 A 
ATOM     14  C   UNL     1      -6.153  12.198  17.589  0.00  0.00    +0.000 A 
ATOM     15  C   UNL     1      -5.080  11.645  16.901  0.00  0.00    +0.000 A 
ATOM     16  C   UNL     1      -3.834  11.538  17.525  0.00  0.00    +0.000 A 
ENDBRANCH   7  11
BRANCH  10  17
ATOM     17  O   UNL     1       1.575  11.613  21.060  0.00  0.00    +0.000 OA
ATOM     18  H   UNL     1       1.526  11.666  22.030  0.00  0.00    +0.000 HD
ENDBRANCH  10  17
ENDBRANCH   3   5
BRANCH   2  19
ATOM     19  C   UNL     1       2.126   7.719  19.501  0.00  0.00    +0.000 A 
ATOM     20  C   UNL     1       2.618   8.027  18.228  0.00  0.00    +0.000 A 
ATOM     21  C   UNL     1       3.506   7.158  17.605  0.00  0.00    +0.000 A 
ATOM     22  C   UNL     1       3.902   5.974  18.243  0.00  0.00    +0.000 A 
ATOM     23  C   UNL     1       3.380   5.656  19.504  0.00  0.00    +0.000 A 
ATOM     24  C   UNL     1       2.491   6.526  20.134  0.00  0.00    +0.000 A 
BRANCH  22  25
ATOM     25  C   UNL     1       4.850   5.032  17.551  0.00  0.00    +0.000 C 
BRANCH  25  26
ATOM     26  N   UNL     1       4.828   3.714  18.186  0.00  0.00    +0.000 NA
ATOM     27  H   UNL     1       4.550   3.832  19.159  0.00  0.00    +0.000 HD
BRANCH  26  28
ATOM     28  C   UNL     1       3.878   2.808  17.525  0.00  0.00    +0.000 C 
BRANCH  28  29
ATOM     29  C   UNL     1       3.323   1.735  18.469  0.00  0.00    +0.000 C 
BRANCH  29  30
ATOM     30  C   UNL     1       2.269   2.253  19.376  0.00  0.00    +0.000 A 
ATOM     31  C   UNL     1       1.004   2.694  19.063  0.00  0.00    +0.000 A 
ATOM     32  N   UNL     1       0.479   3.136  20.245  0.00  0.00    +0.000 N 
ATOM     33  C   UNL     1       1.425   2.956  21.211  0.00  0.00    +0.000 A 
ATOM     34  N   UNL     1       2.520   2.419  20.719  0.00  0.00    +0.000 NA
ATOM     35  H   UNL     1      -0.436   3.542  20.381  0.00  0.00    +0.000 HD
ENDBRANCH  29  30
ENDBRANCH  28  29
ENDBRANCH  26  28
ENDBRANCH  25  26
ENDBRANCH  22  25
ENDBRANCH   2  19
TORSDOF 9
ENDMDL
