MODEL 1
REMARK VINA RESULT:      -7.9      0.000      0.000
REMARK  Name = 
REMARK  4 active torsions:
REMARK  status: ('A' for Active; 'I' for Inactive)
REMARK    1  A    between atoms: C_4  and  C_5
REMARK    2  A    between atoms: C_7  and  C_8
REMARK    3  A    between atoms: C_8  and  N_9
REMARK    4  A    between atoms: N_12  and  C_13
REMARK                            x       y       z     vdW  Elec       q    Type
REMARK                         _______ _______ _______ _____ _____    ______ ____
ROOT
ATOM      1  C   UNL     1       5.048   5.415  19.224  0.00  0.00    +0.000 C 
ENDROOT
BRANCH   1   2
ATOM      2  N   UNL     1       5.834   4.272  18.690  0.00  0.00    +0.000 NA
ATOM      3  C   UNL     1       5.043   3.570  17.633  0.00  0.00    +0.000 C 
ATOM      4  C   UNL     1       4.720   4.443  16.398  0.00  0.00    +0.000 C 
ATOM      5  N   UNL     1       5.944   5.012  15.817  0.00  0.00    +0.000 N 
ATOM      6  C   UNL     1       6.927   5.587  16.760  0.00  0.00    +0.000 C 
ATOM      7  C   UNL     1       7.093   4.690  18.017  0.00  0.00    +0.000 C 
BRANCH   5   8
ATOM      8  C   UNL     1       6.340   4.680  14.532  0.00  0.00    +0.000 A 
ATOM      9  C   UNL     1       7.442   5.313  13.936  0.00  0.00    +0.000 A 
ATOM     10  C   UNL     1       7.823   5.035  12.616  0.00  0.00    +0.000 A 
ATOM     11  C   UNL     1       7.103   4.108  11.872  0.00  0.00    +0.000 A 
ATOM     12  C   UNL     1       6.019   3.451  12.442  0.00  0.00    +0.000 A 
ATOM     13  C   UNL     1       5.645   3.741  13.760  0.00  0.00    +0.000 A 
ENDBRANCH   5   8
ENDBRANCH   1   2
BRANCH   1  16
ATOM     14  C   UNL     1       2.183   6.992  19.874  0.00  0.00    +0.000 C 
ATOM     15  N   UNL     1       2.993   6.807  18.878  0.00  0.00    +0.000 NA
ATOM     16  C   UNL     1       3.506   5.445  19.100  0.00  0.00    +0.000 C 
ATOM     17  C   UNL     1       2.737   4.900  20.285  0.00  0.00    +0.000 C 
ATOM     18  O   UNL     1       1.969   5.995  20.763  0.00  0.00    +0.000 OA
BRANCH  14  22
ATOM     19  C   UNL     1       0.013  10.557  20.770  0.00  0.00    +0.000 A 
ATOM     20  C   UNL     1       0.163   9.559  21.730  0.00  0.00    +0.000 A 
ATOM     21  C   UNL     1       0.890   8.408  21.430  0.00  0.00    +0.000 A 
ATOM     22  C   UNL     1       1.467   8.247  20.162  0.00  0.00    +0.000 A 
ATOM     23  C   UNL     1       1.318   9.254  19.202  0.00  0.00    +0.000 A 
ATOM     24  C   UNL     1       0.591  10.407  19.508  0.00  0.00    +0.000 A 
ENDBRANCH  14  22
ENDBRANCH   1  16
TORSDOF 4
ENDMDL
MODEL 2
REMARK VINA RESULT:      -7.8      0.291      1.026
REMARK  Name = 
REMARK  4 active torsions:
REMARK  status: ('A' for Active; 'I' for Inactive)
REMARK    1  A    between atoms: C_4  and  C_5
REMARK    2  A    between atoms: C_7  and  C_8
REMARK    3  A    between atoms: C_8  and  N_9
REMARK    4  A    between atoms: N_12  and  C_13
REMARK                            x       y       z     vdW  Elec       q    Type
REMARK                         _______ _______ _______ _____ _____    ______ ____
ROOT
ATOM      1  C   UNL     1       4.770   5.558  19.086  0.00  0.00    +0.000 C 
ENDROOT
BRANCH   1   2
ATOM      2  N   UNL     1       5.495   4.353  18.605  0.00  0.00    +0.000 NA
ATOM      3  C   UNL     1       4.716   3.703  17.507  0.00  0.00    +0.000 C 
ATOM      4  C   UNL     1       4.533   4.586  16.250  0.00  0.00    +0.000 C 
ATOM      5  N   UNL     1       5.829   5.053  15.739  0.00  0.00    +0.000 N 
ATOM      6  C   UNL     1       6.796   5.560  16.735  0.00  0.00    +0.000 C 
ATOM      7  C   UNL     1       6.819   4.666  18.005  0.00  0.00    +0.000 C 
BRANCH   5   8
ATOM      8  C   UNL     1       6.273   4.679  14.481  0.00  0.00    +0.000 A 
ATOM      9  C   UNL     1       7.407   5.280  13.914  0.00  0.00    +0.000 A 
ATOM     10  C   UNL     1       7.837   4.959  12.619  0.00  0.00    +0.000 A 
ATOM     11  C   UNL     1       7.136   4.020  11.873  0.00  0.00    +0.000 A 
ATOM     12  C   UNL     1       6.020   3.395  12.416  0.00  0.00    +0.000 A 
ATOM     13  C   UNL     1       5.596   3.727  13.708  0.00  0.00    +0.000 A 
ENDBRANCH   5   8
ENDBRANCH   1   2
BRANCH   1  16
ATOM     14  C   UNL     1       1.986   7.120  20.051  0.00  0.00    +0.000 C 
ATOM     15  N   UNL     1       2.704   6.974  18.982  0.00  0.00    +0.000 NA
ATOM     16  C   UNL     1       3.224   5.601  19.099  0.00  0.00    +0.000 C 
ATOM     17  C   UNL     1       2.557   5.009  20.324  0.00  0.00    +0.000 C 
ATOM     18  O   UNL     1       1.843   6.087  20.913  0.00  0.00    +0.000 OA
BRANCH  14  22
ATOM     19  C   UNL     1       0.113  10.796  21.146  0.00  0.00    +0.000 A 
ATOM     20  C   UNL     1       0.490  10.559  19.825  0.00  0.00    +0.000 A 
ATOM     21  C   UNL     1       1.084   9.346  19.478  0.00  0.00    +0.000 A 
ATOM     22  C   UNL     1       1.310   8.365  20.455  0.00  0.00    +0.000 A 
ATOM     23  C   UNL     1       0.925   8.605  21.778  0.00  0.00    +0.000 A 
ATOM     24  C   UNL     1       0.328   9.821  22.121  0.00  0.00    +0.000 A 
ENDBRANCH  14  22
ENDBRANCH   1  16
TORSDOF 4
ENDMDL
MODEL 3
REMARK VINA RESULT:      -7.4      4.204      6.667
REMARK  Name = 
REMARK  4 active torsions:
REMARK  status: ('A' for Active; 'I' for Inactive)
REMARK    1  A    between atoms: C_4  and  C_5
REMARK    2  A    between atoms: C_7  and  C_8
REMARK    3  A    between atoms: C_8  and  N_9
REMARK    4  A    between atoms: N_12  and  C_13
REMARK                            x       y       z     vdW  Elec       q    Type
REMARK                         _______ _______ _______ _____ _____    ______ ____
ROOT
ATOM      1  C   UNL     1       7.406   6.432  16.136  0.00  0.00    +0.000 C 
ENDROOT
BRANCH   1   2
ATOM      2  N   UNL     1       6.281   5.868  15.347  0.00  0.00    +0.000 NA
ATOM      3  C   UNL     1       6.193   4.394  15.580  0.00  0.00    +0.000 C 
ATOM      4  C   UNL     1       5.888   4.001  17.044  0.00  0.00    +0.000 C 
ATOM      5  N   UNL     1       4.667   4.660  17.525  0.00  0.00    +0.000 N 
ATOM      6  C   UNL     1       4.514   6.096  17.210  0.00  0.00    +0.000 C 
ATOM      7  C   UNL     1       4.954   6.403  15.752  0.00  0.00    +0.000 C 
BRANCH   5   8
ATOM      8  C   UNL     1       3.556   3.917  17.893  0.00  0.00    +0.000 A 
ATOM      9  C   UNL     1       3.677   2.553  18.198  0.00  0.00    +0.000 A 
ATOM     10  C   UNL     1       2.558   1.770  18.514  0.00  0.00    +0.000 A 
ATOM     11  C   UNL     1       1.295   2.349  18.535  0.00  0.00    +0.000 A 
ATOM     12  C   UNL     1       1.148   3.703  18.255  0.00  0.00    +0.000 A 
ATOM     13  C   UNL     1       2.272   4.474  17.936  0.00  0.00    +0.000 A 
ENDBRANCH   5   8
ENDBRANCH   1   2
BRANCH   1  16
ATOM     14  C   UNL     1       8.275   8.840  18.275  0.00  0.00    +0.000 C 
ATOM     15  N   UNL     1       7.362   8.606  17.384  0.00  0.00    +0.000 NA
ATOM     16  C   UNL     1       7.148   7.152  17.482  0.00  0.00    +0.000 C 
ATOM     17  C   UNL     1       7.990   6.688  18.652  0.00  0.00    +0.000 C 
ATOM     18  O   UNL     1       8.739   7.829  19.045  0.00  0.00    +0.000 OA
BRANCH  14  22
ATOM     19  C   UNL     1      10.135  12.639  18.847  0.00  0.00    +0.000 A 
ATOM     20  C   UNL     1       9.264  12.430  17.779  0.00  0.00    +0.000 A 
ATOM     21  C   UNL     1       8.649  11.190  17.615  0.00  0.00    +0.000 A 
ATOM     22  C   UNL     1       8.908  10.148  18.517  0.00  0.00    +0.000 A 
ATOM     23  C   UNL     1       9.779  10.363  19.590  0.00  0.00    +0.000 A 
ATOM     24  C   UNL     1      10.391  11.608  19.752  0.00  0.00    +0.000 A 
ENDBRANCH  14  22
ENDBRANCH   1  16
TORSDOF 4
ENDMDL
MODEL 4
REMARK VINA RESULT:      -7.2      4.250      6.840
REMARK  Name = 
REMARK  4 active torsions:
REMARK  status: ('A' for Active; 'I' for Inactive)
REMARK    1  A    between atoms: C_4  and  C_5
REMARK    2  A    between atoms: C_7  and  C_8
REMARK    3  A    between atoms: C_8  and  N_9
REMARK    4  A    between atoms: N_12  and  C_13
REMARK                            x       y       z     vdW  Elec       q    Type
REMARK                         _______ _______ _______ _____ _____    ______ ____
ROOT
ATOM      1  C   UNL     1       7.201   6.461  16.385  0.00  0.00    +0.000 C 
ENDROOT
BRANCH   1   2
ATOM      2  N   UNL     1       5.980   5.978  15.688  0.00  0.00    +0.000 NA
ATOM      3  C   UNL     1       5.818   4.509  15.920  0.00  0.00    +0.000 C 
ATOM      4  C   UNL     1       5.611   4.120  17.402  0.00  0.00    +0.000 C 
ATOM      5  N   UNL     1       4.479   4.851  17.987  0.00  0.00    +0.000 N 
ATOM      6  C   UNL     1       4.392   6.297  17.693  0.00  0.00    +0.000 C 
ATOM      7  C   UNL     1       4.728   6.591  16.206  0.00  0.00    +0.000 C 
BRANCH   5   8
ATOM      8  C   UNL     1       3.357   4.175  18.442  0.00  0.00    +0.000 A 
ATOM      9  C   UNL     1       2.164   4.190  17.704  0.00  0.00    +0.000 A 
ATOM     10  C   UNL     1       1.002   3.564  18.176  0.00  0.00    +0.000 A 
ATOM     11  C   UNL     1       1.022   2.905  19.399  0.00  0.00    +0.000 A 
ATOM     12  C   UNL     1       2.195   2.858  20.143  0.00  0.00    +0.000 A 
ATOM     13  C   UNL     1       3.348   3.491  19.665  0.00  0.00    +0.000 A 
ENDBRANCH   5   8
ENDBRANCH   1   2
BRANCH   1  16
ATOM     14  C   UNL     1       8.270   9.068  18.167  0.00  0.00    +0.000 C 
ATOM     15  N   UNL     1       7.259   8.741  17.425  0.00  0.00    +0.000 NA
ATOM     16  C   UNL     1       7.095   7.300  17.681  0.00  0.00    +0.000 C 
ATOM     17  C   UNL     1       8.088   6.958  18.772  0.00  0.00    +0.000 C 
ATOM     18  O   UNL     1       8.851   8.141  18.962  0.00  0.00    +0.000 OA
BRANCH  14  22
ATOM     19  C   UNL     1      10.101  12.916  18.417  0.00  0.00    +0.000 A 
ATOM     20  C   UNL     1      10.657  11.823  19.079  0.00  0.00    +0.000 A 
ATOM     21  C   UNL     1      10.059  10.568  18.973  0.00  0.00    +0.000 A 
ATOM     22  C   UNL     1       8.896  10.402  18.208  0.00  0.00    +0.000 A 
ATOM     23  C   UNL     1       8.343  11.500  17.542  0.00  0.00    +0.000 A 
ATOM     24  C   UNL     1       8.947  12.756  17.648  0.00  0.00    +0.000 A 
ENDBRANCH  14  22
ENDBRANCH   1  16
TORSDOF 4
ENDMDL
MODEL 5
REMARK VINA RESULT:      -7.2      0.754      1.524
REMARK  Name = 
REMARK  4 active torsions:
REMARK  status: ('A' for Active; 'I' for Inactive)
REMARK    1  A    between atoms: C_4  and  C_5
REMARK    2  A    between atoms: C_7  and  C_8
REMARK    3  A    between atoms: C_8  and  N_9
REMARK    4  A    between atoms: N_12  and  C_13
REMARK                            x       y       z     vdW  Elec       q    Type
REMARK                         _______ _______ _______ _____ _____    ______ ____
ROOT
ATOM      1  C   UNL     1       5.053   5.368  19.062  0.00  0.00    +0.000 C 
ENDROOT
BRANCH   1   2
ATOM      2  N   UNL     1       5.856   6.272  18.198  0.00  0.00    +0.000 NA
ATOM      3  C   UNL     1       7.093   5.565  17.745  0.00  0.00    +0.000 C 
ATOM      4  C   UNL     1       6.827   4.315  16.875  0.00  0.00    +0.000 C 
ATOM      5  N   UNL     1       5.984   4.646  15.718  0.00  0.00    +0.000 N 
ATOM      6  C   UNL     1       4.807   5.504  15.972  0.00  0.00    +0.000 C 
ATOM      7  C   UNL     1       5.154   6.662  16.947  0.00  0.00    +0.000 C 
BRANCH   5   8
ATOM      8  C   UNL     1       6.466   4.509  14.426  0.00  0.00    +0.000 A 
ATOM      9  C   UNL     1       7.498   5.334  13.954  0.00  0.00    +0.000 A 
ATOM     10  C   UNL     1       7.958   5.251  12.633  0.00  0.00    +0.000 A 
ATOM     11  C   UNL     1       7.390   4.329  11.762  0.00  0.00    +0.000 A 
ATOM     12  C   UNL     1       6.379   3.486  12.207  0.00  0.00    +0.000 A 
ATOM     13  C   UNL     1       5.924   3.581  13.527  0.00  0.00    +0.000 A 
ENDBRANCH   5   8
ENDBRANCH   1   2
BRANCH   1  16
ATOM     14  C   UNL     1       2.217   6.885  19.945  0.00  0.00    +0.000 C 
ATOM     15  N   UNL     1       2.977   6.763  18.902  0.00  0.00    +0.000 NA
ATOM     16  C   UNL     1       3.506   5.394  19.016  0.00  0.00    +0.000 C 
ATOM     17  C   UNL     1       2.800   4.776  20.205  0.00  0.00    +0.000 C 
ATOM     18  O   UNL     1       2.052   5.836  20.783  0.00  0.00    +0.000 OA
BRANCH  14  22
ATOM     19  C   UNL     1       0.264  10.522  21.028  0.00  0.00    +0.000 A 
ATOM     20  C   UNL     1       0.710  10.319  19.724  0.00  0.00    +0.000 A 
ATOM     21  C   UNL     1       1.330   9.119  19.379  0.00  0.00    +0.000 A 
ATOM     22  C   UNL     1       1.511   8.116  20.342  0.00  0.00    +0.000 A 
ATOM     23  C   UNL     1       1.058   8.322  21.649  0.00  0.00    +0.000 A 
ATOM     24  C   UNL     1       0.436   9.525  21.989  0.00  0.00    +0.000 A 
ENDBRANCH  14  22
ENDBRANCH   1  16
TORSDOF 4
ENDMDL
MODEL 6
REMARK VINA RESULT:      -7.1      4.644     10.498
REMARK  Name = 
REMARK  4 active torsions:
REMARK  status: ('A' for Active; 'I' for Inactive)
REMARK    1  A    between atoms: C_4  and  C_5
REMARK    2  A    between atoms: C_7  and  C_8
REMARK    3  A    between atoms: C_8  and  N_9
REMARK    4  A    between atoms: N_12  and  C_13
REMARK                            x       y       z     vdW  Elec       q    Type
REMARK                         _______ _______ _______ _____ _____    ______ ____
ROOT
ATOM      1  C   UNL     1      -0.616   9.863  18.361  0.00  0.00    +0.000 C 
ENDROOT
BRANCH   1   2
ATOM      2  N   UNL     1      -1.111  10.954  17.483  0.00  0.00    +0.000 NA
ATOM      3  C   UNL     1      -2.308  10.483  16.721  0.00  0.00    +0.000 C 
ATOM      4  C   UNL     1      -3.517  10.108  17.609  0.00  0.00    +0.000 C 
ATOM      5  N   UNL     1      -3.889  11.220  18.493  0.00  0.00    +0.000 N 
ATOM      6  C   UNL     1      -2.787  11.921  19.186  0.00  0.00    +0.000 C 
ATOM      7  C   UNL     1      -1.579  12.147  18.237  0.00  0.00    +0.000 C 
BRANCH   5   8
ATOM      8  C   UNL     1      -5.127  11.832  18.382  0.00  0.00    +0.000 A 
ATOM      9  C   UNL     1      -6.018  11.846  19.466  0.00  0.00    +0.000 A 
ATOM     10  C   UNL     1      -7.299  12.407  19.355  0.00  0.00    +0.000 A 
ATOM     11  C   UNL     1      -7.703  12.970  18.151  0.00  0.00    +0.000 A 
ATOM     12  C   UNL     1      -6.834  12.987  17.067  0.00  0.00    +0.000 A 
ATOM     13  C   UNL     1      -5.560  12.420  17.187  0.00  0.00    +0.000 A 
ENDBRANCH   5   8
ENDBRANCH   1   2
BRANCH   1  16
ATOM     14  C   UNL     1       2.146   7.997  18.479  0.00  0.00    +0.000 C 
ATOM     15  N   UNL     1       1.636   8.943  17.754  0.00  0.00    +0.000 NA
ATOM     16  C   UNL     1       0.884   9.756  18.726  0.00  0.00    +0.000 C 
ATOM     17  C   UNL     1       1.193   9.165  20.086  0.00  0.00    +0.000 C 
ATOM     18  O   UNL     1       1.947   7.992  19.817  0.00  0.00    +0.000 OA
BRANCH  14  22
ATOM     19  C   UNL     1       4.380   4.635  17.091  0.00  0.00    +0.000 A 
ATOM     20  C   UNL     1       3.125   4.461  17.671  0.00  0.00    +0.000 A 
ATOM     21  C   UNL     1       2.398   5.570  18.103  0.00  0.00    +0.000 A 
ATOM     22  C   UNL     1       2.927   6.860  17.962  0.00  0.00    +0.000 A 
ATOM     23  C   UNL     1       4.185   7.031  17.375  0.00  0.00    +0.000 A 
ATOM     24  C   UNL     1       4.909   5.918  16.941  0.00  0.00    +0.000 A 
ENDBRANCH  14  22
ENDBRANCH   1  16
TORSDOF 4
ENDMDL
MODEL 7
REMARK VINA RESULT:      -7.1      1.687      8.433
REMARK  Name = 
REMARK  4 active torsions:
REMARK  status: ('A' for Active; 'I' for Inactive)
REMARK    1  A    between atoms: C_4  and  C_5
REMARK    2  A    between atoms: C_7  and  C_8
REMARK    3  A    between atoms: C_8  and  N_9
REMARK    4  A    between atoms: N_12  and  C_13
REMARK                            x       y       z     vdW  Elec       q    Type
REMARK                         _______ _______ _______ _____ _____    ______ ____
ROOT
ATOM      1  C   UNL     1       3.866   4.243  18.537  0.00  0.00    +0.000 C 
ENDROOT
BRANCH   1   2
ATOM      2  N   UNL     1       2.420   4.545  18.377  0.00  0.00    +0.000 NA
ATOM      3  C   UNL     1       1.777   4.650  19.723  0.00  0.00    +0.000 C 
ATOM      4  C   UNL     1       2.329   5.796  20.602  0.00  0.00    +0.000 C 
ATOM      5  N   UNL     1       2.245   7.086  19.902  0.00  0.00    +0.000 N 
ATOM      6  C   UNL     1       2.675   7.108  18.488  0.00  0.00    +0.000 C 
ATOM      7  C   UNL     1       2.164   5.857  17.724  0.00  0.00    +0.000 C 
BRANCH   5   8
ATOM      8  C   UNL     1       1.452   8.110  20.394  0.00  0.00    +0.000 A 
ATOM      9  C   UNL     1       1.116   9.206  19.585  0.00  0.00    +0.000 A 
ATOM     10  C   UNL     1       0.364  10.281  20.081  0.00  0.00    +0.000 A 
ATOM     11  C   UNL     1      -0.068  10.268  21.402  0.00  0.00    +0.000 A 
ATOM     12  C   UNL     1       0.235   9.187  22.221  0.00  0.00    +0.000 A 
ATOM     13  C   UNL     1       0.990   8.122  21.716  0.00  0.00    +0.000 A 
ENDBRANCH   5   8
ENDBRANCH   1   2
BRANCH   1  16
ATOM     14  C   UNL     1       5.969   4.717  15.992  0.00  0.00    +0.000 C 
ATOM     15  N   UNL     1       4.816   5.147  16.401  0.00  0.00    +0.000 NA
ATOM     16  C   UNL     1       4.941   5.133  17.868  0.00  0.00    +0.000 C 
ATOM     17  C   UNL     1       6.381   4.759  18.157  0.00  0.00    +0.000 C 
ATOM     18  O   UNL     1       6.939   4.434  16.892  0.00  0.00    +0.000 OA
BRANCH  14  22
ATOM     19  C   UNL     1       7.036   4.117  11.903  0.00  0.00    +0.000 A 
ATOM     20  C   UNL     1       7.773   4.985  12.708  0.00  0.00    +0.000 A 
ATOM     21  C   UNL     1       7.425   5.156  14.047  0.00  0.00    +0.000 A 
ATOM     22  C   UNL     1       6.331   4.465  14.587  0.00  0.00    +0.000 A 
ATOM     23  C   UNL     1       5.597   3.592  13.777  0.00  0.00    +0.000 A 
ATOM     24  C   UNL     1       5.951   3.421  12.437  0.00  0.00    +0.000 A 
ENDBRANCH  14  22
ENDBRANCH   1  16
TORSDOF 4
ENDMDL
MODEL 8
REMARK VINA RESULT:      -7.1      1.701      8.477
REMARK  Name = 
REMARK  4 active torsions:
REMARK  status: ('A' for Active; 'I' for Inactive)
REMARK    1  A    between atoms: C_4  and  C_5
REMARK    2  A    between atoms: C_7  and  C_8
REMARK    3  A    between atoms: C_8  and  N_9
REMARK    4  A    between atoms: N_12  and  C_13
REMARK                            x       y       z     vdW  Elec       q    Type
REMARK                         _______ _______ _______ _____ _____    ______ ____
ROOT
ATOM      1  C   UNL     1       4.022   4.509  18.560  0.00  0.00    +0.000 C 
ENDROOT
BRANCH   1   2
ATOM      2  N   UNL     1       2.584   4.777  18.302  0.00  0.00    +0.000 NA
ATOM      3  C   UNL     1       1.838   4.805  19.598  0.00  0.00    +0.000 C 
ATOM      4  C   UNL     1       2.285   5.927  20.563  0.00  0.00    +0.000 C 
ATOM      5  N   UNL     1       2.214   7.242  19.913  0.00  0.00    +0.000 N 
ATOM      6  C   UNL     1       2.749   7.338  18.538  0.00  0.00    +0.000 C 
ATOM      7  C   UNL     1       2.336   6.108  17.686  0.00  0.00    +0.000 C 
BRANCH   5   8
ATOM      8  C   UNL     1       1.354   8.222  20.384  0.00  0.00    +0.000 A 
ATOM      9  C   UNL     1       0.720   8.080  21.627  0.00  0.00    +0.000 A 
ATOM     10  C   UNL     1      -0.199   9.030  22.095  0.00  0.00    +0.000 A 
ATOM     11  C   UNL     1      -0.492  10.145  21.320  0.00  0.00    +0.000 A 
ATOM     12  C   UNL     1       0.135  10.321  20.093  0.00  0.00    +0.000 A 
ATOM     13  C   UNL     1       1.047   9.364  19.633  0.00  0.00    +0.000 A 
ENDBRANCH   5   8
ENDBRANCH   1   2
BRANCH   1  16
ATOM     14  C   UNL     1       6.087   4.903  15.971  0.00  0.00    +0.000 C 
ATOM     15  N   UNL     1       4.965   5.382  16.408  0.00  0.00    +0.000 NA
ATOM     16  C   UNL     1       5.122   5.353  17.872  0.00  0.00    +0.000 C 
ATOM     17  C   UNL     1       6.548   4.912  18.126  0.00  0.00    +0.000 C 
ATOM     18  O   UNL     1       7.063   4.569  16.847  0.00  0.00    +0.000 OA
BRANCH  14  22
ATOM     19  C   UNL     1       6.985   4.021  11.892  0.00  0.00    +0.000 A 
ATOM     20  C   UNL     1       5.874   3.452  12.512  0.00  0.00    +0.000 A 
ATOM     21  C   UNL     1       5.582   3.763  13.839  0.00  0.00    +0.000 A 
ATOM     22  C   UNL     1       6.406   4.643  14.556  0.00  0.00    +0.000 A 
ATOM     23  C   UNL     1       7.517   5.216  13.929  0.00  0.00    +0.000 A 
ATOM     24  C   UNL     1       7.804   4.903  12.598  0.00  0.00    +0.000 A 
ENDBRANCH  14  22
ENDBRANCH   1  16
TORSDOF 4
ENDMDL
MODEL 9
REMARK VINA RESULT:      -7.0      0.796      1.807
REMARK  Name = 
REMARK  4 active torsions:
REMARK  status: ('A' for Active; 'I' for Inactive)
REMARK    1  A    between atoms: C_4  and  C_5
REMARK    2  A    between atoms: C_7  and  C_8
REMARK    3  A    between atoms: C_8  and  N_9
REMARK    4  A    between atoms: N_12  and  C_13
REMARK                            x       y       z     vdW  Elec       q    Type
REMARK                         _______ _______ _______ _____ _____    ______ ____
ROOT
ATOM      1  C   UNL     1       5.434   5.526  19.134  0.00  0.00    +0.000 C 
ENDROOT
BRANCH   1   2
ATOM      2  N   UNL     1       6.358   6.287  18.254  0.00  0.00    +0.000 NA
ATOM      3  C   UNL     1       7.403   5.368  17.708  0.00  0.00    +0.000 C 
ATOM      4  C   UNL     1       6.846   4.234  16.816  0.00  0.00    +0.000 C 
ATOM      5  N   UNL     1       6.030   4.775  15.721  0.00  0.00    +0.000 N 
ATOM      6  C   UNL     1       5.064   5.839  16.069  0.00  0.00    +0.000 C 
ATOM      7  C   UNL     1       5.686   6.863  17.058  0.00  0.00    +0.000 C 
BRANCH   5   8
ATOM      8  C   UNL     1       6.407   4.599  14.399  0.00  0.00    +0.000 A 
ATOM      9  C   UNL     1       5.772   3.641  13.595  0.00  0.00    +0.000 A 
ATOM     10  C   UNL     1       6.178   3.406  12.274  0.00  0.00    +0.000 A 
ATOM     11  C   UNL     1       7.231   4.136  11.736  0.00  0.00    +0.000 A 
ATOM     12  C   UNL     1       7.867   5.104  12.504  0.00  0.00    +0.000 A 
ATOM     13  C   UNL     1       7.456   5.328  13.823  0.00  0.00    +0.000 A 
ENDBRANCH   5   8
ENDBRANCH   1   2
BRANCH   1  16
ATOM     14  C   UNL     1       2.424   6.819  19.758  0.00  0.00    +0.000 C 
ATOM     15  N   UNL     1       3.333   6.860  18.835  0.00  0.00    +0.000 NA
ATOM     16  C   UNL     1       3.911   5.506  18.859  0.00  0.00    +0.000 C 
ATOM     17  C   UNL     1       3.072   4.715  19.841  0.00  0.00    +0.000 C 
ATOM     18  O   UNL     1       2.194   5.666  20.426  0.00  0.00    +0.000 OA
BRANCH  14  22
ATOM     19  C   UNL     1       0.138  10.218  20.960  0.00  0.00    +0.000 A 
ATOM     20  C   UNL     1       0.673  10.142  19.675  0.00  0.00    +0.000 A 
ATOM     21  C   UNL     1       1.401   9.018  19.290  0.00  0.00    +0.000 A 
ATOM     22  C   UNL     1       1.604   7.964  20.192  0.00  0.00    +0.000 A 
ATOM     23  C   UNL     1       1.062   8.042  21.479  0.00  0.00    +0.000 A 
ATOM     24  C   UNL     1       0.331   9.170  21.860  0.00  0.00    +0.000 A 
ENDBRANCH  14  22
ENDBRANCH   1  16
TORSDOF 4
ENDMDL
