MODEL 1
REMARK VINA RESULT:      -8.9      0.000      0.000
REMARK  Name = 
REMARK  8 active torsions:
REMARK  status: ('A' for Active; 'I' for Inactive)
REMARK    1  A    between atoms: C_1  and  O_2
REMARK    2  A    between atoms: O_2  and  C_3
REMARK    3  A    between atoms: C_6  and  C_7
REMARK    4  A    between atoms: C_10  and  C_11
REMARK    5  A    between atoms: C_11  and  N_12
REMARK    6  A    between atoms: C_14  and  C_15
REMARK    7  A    between atoms: C_15  and  O_17
REMARK    8  A    between atoms: C_19  and  C_20
REMARK                            x       y       z     vdW  Elec       q    Type
REMARK                         _______ _______ _______ _____ _____    ______ ____
ROOT
ATOM      1  N   UNL     1       4.650   5.990  16.987  0.00  0.00    +0.000 N 
ATOM      2  N   UNL     1       5.569   6.112  16.000  0.00  0.00    +0.000 NA
ATOM      3  C   UNL     1       5.664   4.884  15.470  0.00  0.00    +0.000 A 
ATOM      4  C   UNL     1       4.815   3.980  16.143  0.00  0.00    +0.000 A 
ATOM      5  C   UNL     1       4.169   4.704  17.137  0.00  0.00    +0.000 A 
ENDROOT
BRANCH   5   6
ATOM      6  C   UNL     1       3.209   4.229  18.146  0.00  0.00    +0.000 A 
ATOM      7  C   UNL     1       3.601   4.135  19.491  0.00  0.00    +0.000 A 
ATOM      8  C   UNL     1       2.730   3.634  20.466  0.00  0.00    +0.000 A 
ATOM      9  C   UNL     1       1.444   3.236  20.115  0.00  0.00    +0.000 A 
ATOM     10  C   UNL     1       1.029   3.340  18.794  0.00  0.00    +0.000 A 
ATOM     11  C   UNL     1       1.910   3.814  17.818  0.00  0.00    +0.000 A 
ENDBRANCH   5   6
BRANCH   3  12
ATOM     12  C   UNL     1       6.570   4.642  14.345  0.00  0.00    +0.000 C 
ATOM     13  O   UNL     1       6.363   3.845  13.447  0.00  0.00    +0.000 OA
BRANCH  12  14
ATOM     14  O   UNL     1       7.689   5.425  14.403  0.00  0.00    +0.000 OA
ATOM     15  H   UNL     1       7.606   5.967  15.221  0.00  0.00    +0.000 HD
ENDBRANCH  12  14
ENDBRANCH   3  12
BRANCH   1  16
ATOM     16  C   UNL     1       4.305   7.175  17.751  0.00  0.00    +0.000 C 
BRANCH  16  20
ATOM     17  C   UNL     1       1.561   8.917  19.089  0.00  0.00    +0.000 C 
ATOM     18  N   UNL     1       1.657   9.453  17.914  0.00  0.00    +0.000 NA
ATOM     19  O   UNL     1       2.531   8.664  17.144  0.00  0.00    +0.000 OA
ATOM     20  C   UNL     1       2.809   7.449  17.855  0.00  0.00    +0.000 C 
ATOM     21  C   UNL     1       2.348   7.680  19.282  0.00  0.00    +0.000 C 
BRANCH  17  25
ATOM     22  C   UNL     1      -0.792  10.488  22.289  0.00  0.00    +0.000 A 
ATOM     23  C   UNL     1      -0.009   9.347  22.467  0.00  0.00    +0.000 A 
ATOM     24  C   UNL     1       0.777   8.863  21.423  0.00  0.00    +0.000 A 
ATOM     25  C   UNL     1       0.769   9.509  20.184  0.00  0.00    +0.000 A 
ATOM     26  C   UNL     1      -0.015  10.652  20.001  0.00  0.00    +0.000 A 
ATOM     27  C   UNL     1      -0.797  11.138  21.054  0.00  0.00    +0.000 A 
BRANCH  22  29
ATOM     28  C   UNL     1      -2.393  11.971  23.184  0.00  0.00    +0.000 C 
ATOM     29  O   UNL     1      -1.546  10.844  23.372  0.00  0.00    +0.000 OA
ENDBRANCH  22  29
ENDBRANCH  17  25
ENDBRANCH  16  20
ENDBRANCH   1  16
TORSDOF 7
ENDMDL
MODEL 2
REMARK VINA RESULT:      -8.9      0.277      1.311
REMARK  Name = 
REMARK  8 active torsions:
REMARK  status: ('A' for Active; 'I' for Inactive)
REMARK    1  A    between atoms: C_1  and  O_2
REMARK    2  A    between atoms: O_2  and  C_3
REMARK    3  A    between atoms: C_6  and  C_7
REMARK    4  A    between atoms: C_10  and  C_11
REMARK    5  A    between atoms: C_11  and  N_12
REMARK    6  A    between atoms: C_14  and  C_15
REMARK    7  A    between atoms: C_15  and  O_17
REMARK    8  A    between atoms: C_19  and  C_20
REMARK                            x       y       z     vdW  Elec       q    Type
REMARK                         _______ _______ _______ _____ _____    ______ ____
ROOT
ATOM      1  N   UNL     1       4.658   5.901  16.948  0.00  0.00    +0.000 N 
ATOM      2  N   UNL     1       5.549   6.054  15.939  0.00  0.00    +0.000 NA
ATOM      3  C   UNL     1       5.661   4.833  15.395  0.00  0.00    +0.000 A 
ATOM      4  C   UNL     1       4.850   3.904  16.080  0.00  0.00    +0.000 A 
ATOM      5  C   UNL     1       4.212   4.602  17.097  0.00  0.00    +0.000 A 
ENDROOT
BRANCH   5   6
ATOM      6  C   UNL     1       3.289   4.095  18.125  0.00  0.00    +0.000 A 
ATOM      7  C   UNL     1       1.944   3.858  17.798  0.00  0.00    +0.000 A 
ATOM      8  C   UNL     1       1.028   3.430  18.766  0.00  0.00    +0.000 A 
ATOM      9  C   UNL     1       1.446   3.211  20.075  0.00  0.00    +0.000 A 
ATOM     10  C   UNL     1       2.777   3.420  20.415  0.00  0.00    +0.000 A 
ATOM     11  C   UNL     1       3.683   3.875  19.453  0.00  0.00    +0.000 A 
ENDBRANCH   5   6
BRANCH   3  12
ATOM     12  C   UNL     1       6.543   4.624  14.246  0.00  0.00    +0.000 C 
ATOM     13  O   UNL     1       6.337   3.825  13.350  0.00  0.00    +0.000 OA
BRANCH  12  14
ATOM     14  O   UNL     1       7.639   5.440  14.279  0.00  0.00    +0.000 OA
ATOM     15  H   UNL     1       7.570   5.963  15.111  0.00  0.00    +0.000 HD
ENDBRANCH  12  14
ENDBRANCH   3  12
BRANCH   1  16
ATOM     16  C   UNL     1       4.304   7.070  17.732  0.00  0.00    +0.000 C 
BRANCH  16  20
ATOM     17  C   UNL     1       1.562   8.723  19.181  0.00  0.00    +0.000 C 
ATOM     18  N   UNL     1       1.575   9.241  17.995  0.00  0.00    +0.000 NA
ATOM     19  O   UNL     1       2.441   8.474  17.193  0.00  0.00    +0.000 OA
ATOM     20  C   UNL     1       2.806   7.285  17.909  0.00  0.00    +0.000 C 
ATOM     21  C   UNL     1       2.408   7.523  19.354  0.00  0.00    +0.000 C 
BRANCH  17  25
ATOM     22  C   UNL     1      -0.554  10.535  22.419  0.00  0.00    +0.000 A 
ATOM     23  C   UNL     1      -0.438  11.180  21.188  0.00  0.00    +0.000 A 
ATOM     24  C   UNL     1       0.229  10.564  20.131  0.00  0.00    +0.000 A 
ATOM     25  C   UNL     1       0.803   9.302  20.307  0.00  0.00    +0.000 A 
ATOM     26  C   UNL     1       0.690   8.652  21.540  0.00  0.00    +0.000 A 
ATOM     27  C   UNL     1       0.013   9.272  22.596  0.00  0.00    +0.000 A 
BRANCH  22  29
ATOM     28  C   UNL     1      -1.647  12.545  22.996  0.00  0.00    +0.000 C 
ATOM     29  O   UNL     1      -1.197  11.254  23.388  0.00  0.00    +0.000 OA
ENDBRANCH  22  29
ENDBRANCH  17  25
ENDBRANCH  16  20
ENDBRANCH   1  16
TORSDOF 7
ENDMDL
MODEL 3
REMARK VINA RESULT:      -8.6      4.622      6.743
REMARK  Name = 
REMARK  8 active torsions:
REMARK  status: ('A' for Active; 'I' for Inactive)
REMARK    1  A    between atoms: C_1  and  O_2
REMARK    2  A    between atoms: O_2  and  C_3
REMARK    3  A    between atoms: C_6  and  C_7
REMARK    4  A    between atoms: C_10  and  C_11
REMARK    5  A    between atoms: C_11  and  N_12
REMARK    6  A    between atoms: C_14  and  C_15
REMARK    7  A    between atoms: C_15  and  O_17
REMARK    8  A    between atoms: C_19  and  C_20
REMARK                            x       y       z     vdW  Elec       q    Type
REMARK                         _______ _______ _______ _____ _____    ______ ____
ROOT
ATOM      1  N   UNL     1       6.890   5.091  16.268  0.00  0.00    +0.000 N 
ATOM      2  N   UNL     1       7.675   5.155  15.166  0.00  0.00    +0.000 NA
ATOM      3  C   UNL     1       6.857   4.849  14.148  0.00  0.00    +0.000 A 
ATOM      4  C   UNL     1       5.556   4.570  14.616  0.00  0.00    +0.000 A 
ATOM      5  C   UNL     1       5.588   4.716  15.997  0.00  0.00    +0.000 A 
ENDROOT
BRANCH   5   6
ATOM      6  C   UNL     1       4.507   4.501  16.972  0.00  0.00    +0.000 A 
ATOM      7  C   UNL     1       4.203   3.199  17.401  0.00  0.00    +0.000 A 
ATOM      8  C   UNL     1       3.144   2.957  18.284  0.00  0.00    +0.000 A 
ATOM      9  C   UNL     1       2.382   4.015  18.769  0.00  0.00    +0.000 A 
ATOM     10  C   UNL     1       2.678   5.313  18.372  0.00  0.00    +0.000 A 
ATOM     11  C   UNL     1       3.718   5.549  17.469  0.00  0.00    +0.000 A 
ENDBRANCH   5   6
BRANCH   3  12
ATOM     12  C   UNL     1       7.371   4.839  12.777  0.00  0.00    +0.000 C 
ATOM     13  O   UNL     1       7.074   4.013  11.931  0.00  0.00    +0.000 OA
BRANCH  12  14
ATOM     14  O   UNL     1       8.229   5.875  12.538  0.00  0.00    +0.000 OA
ATOM     15  H   UNL     1       9.126   5.557  12.794  0.00  0.00    +0.000 HD
ENDBRANCH  12  14
ENDBRANCH   3  12
BRANCH   1  16
ATOM     16  C   UNL     1       7.490   5.394  17.555  0.00  0.00    +0.000 C 
BRANCH  16  20
ATOM     17  C   UNL     1       8.183   8.780  18.198  0.00  0.00    +0.000 C 
ATOM     18  N   UNL     1       7.346   8.872  17.215  0.00  0.00    +0.000 NA
ATOM     19  O   UNL     1       6.752   7.610  17.026  0.00  0.00    +0.000 OA
ATOM     20  C   UNL     1       7.114   6.758  18.123  0.00  0.00    +0.000 C 
ATOM     21  C   UNL     1       8.269   7.444  18.828  0.00  0.00    +0.000 C 
BRANCH  17  25
ATOM     22  C   UNL     1      10.761  11.971  19.387  0.00  0.00    +0.000 A 
ATOM     23  C   UNL     1      10.559  11.676  18.039  0.00  0.00    +0.000 A 
ATOM     24  C   UNL     1       9.692  10.652  17.665  0.00  0.00    +0.000 A 
ATOM     25  C   UNL     1       9.034   9.901  18.642  0.00  0.00    +0.000 A 
ATOM     26  C   UNL     1       9.234  10.192  19.995  0.00  0.00    +0.000 A 
ATOM     27  C   UNL     1      10.101  11.226  20.365  0.00  0.00    +0.000 A 
BRANCH  22  29
ATOM     28  C   UNL     1      11.108  14.275  19.758  0.00  0.00    +0.000 C 
ATOM     29  O   UNL     1      11.661  12.971  19.631  0.00  0.00    +0.000 OA
ENDBRANCH  22  29
ENDBRANCH  17  25
ENDBRANCH  16  20
ENDBRANCH   1  16
TORSDOF 7
ENDMDL
MODEL 4
REMARK VINA RESULT:      -8.5      0.821      1.411
REMARK  Name = 
REMARK  8 active torsions:
REMARK  status: ('A' for Active; 'I' for Inactive)
REMARK    1  A    between atoms: C_1  and  O_2
REMARK    2  A    between atoms: O_2  and  C_3
REMARK    3  A    between atoms: C_6  and  C_7
REMARK    4  A    between atoms: C_10  and  C_11
REMARK    5  A    between atoms: C_11  and  N_12
REMARK    6  A    between atoms: C_14  and  C_15
REMARK    7  A    between atoms: C_15  and  O_17
REMARK    8  A    between atoms: C_19  and  C_20
REMARK                            x       y       z     vdW  Elec       q    Type
REMARK                         _______ _______ _______ _____ _____    ______ ____
ROOT
ATOM      1  N   UNL     1       4.521   5.750  17.496  0.00  0.00    +0.000 N 
ATOM      2  N   UNL     1       5.482   5.943  16.562  0.00  0.00    +0.000 NA
ATOM      3  C   UNL     1       5.644   4.743  15.986  0.00  0.00    +0.000 A 
ATOM      4  C   UNL     1       4.794   3.785  16.577  0.00  0.00    +0.000 A 
ATOM      5  C   UNL     1       4.077   4.443  17.567  0.00  0.00    +0.000 A 
ENDROOT
BRANCH   5   6
ATOM      6  C   UNL     1       3.085   3.895  18.507  0.00  0.00    +0.000 A 
ATOM      7  C   UNL     1       1.837   3.464  18.029  0.00  0.00    +0.000 A 
ATOM      8  C   UNL     1       0.852   2.990  18.903  0.00  0.00    +0.000 A 
ATOM      9  C   UNL     1       1.105   2.921  20.270  0.00  0.00    +0.000 A 
ATOM     10  C   UNL     1       2.340   3.325  20.761  0.00  0.00    +0.000 A 
ATOM     11  C   UNL     1       3.312   3.823  19.889  0.00  0.00    +0.000 A 
ENDBRANCH   5   6
BRANCH   3  12
ATOM     12  C   UNL     1       6.610   4.579  14.898  0.00  0.00    +0.000 C 
ATOM     13  O   UNL     1       7.545   5.331  14.683  0.00  0.00    +0.000 OA
BRANCH  12  14
ATOM     14  O   UNL     1       6.354   3.472  14.140  0.00  0.00    +0.000 OA
ATOM     15  H   UNL     1       5.882   3.789  13.335  0.00  0.00    +0.000 HD
ENDBRANCH  12  14
ENDBRANCH   3  12
BRANCH   1  16
ATOM     16  C   UNL     1       4.101   6.889  18.292  0.00  0.00    +0.000 C 
BRANCH  16  20
ATOM     17  C   UNL     1       1.462   9.171  18.717  0.00  0.00    +0.000 C 
ATOM     18  N   UNL     1       1.884   9.485  17.534  0.00  0.00    +0.000 NA
ATOM     19  O   UNL     1       2.758   8.471  17.099  0.00  0.00    +0.000 OA
ATOM     20  C   UNL     1       2.681   7.367  18.012  0.00  0.00    +0.000 C 
ATOM     21  C   UNL     1       1.979   7.892  19.251  0.00  0.00    +0.000 C 
BRANCH  17  25
ATOM     22  C   UNL     1      -1.144  11.556  21.118  0.00  0.00    +0.000 A 
ATOM     23  C   UNL     1      -0.086  10.850  21.691  0.00  0.00    +0.000 A 
ATOM     24  C   UNL     1       0.774  10.100  20.892  0.00  0.00    +0.000 A 
ATOM     25  C   UNL     1       0.569  10.036  19.512  0.00  0.00    +0.000 A 
ATOM     26  C   UNL     1      -0.490  10.742  18.932  0.00  0.00    +0.000 A 
ATOM     27  C   UNL     1      -1.347  11.499  19.739  0.00  0.00    +0.000 A 
BRANCH  22  29
ATOM     28  C   UNL     1      -1.258  12.861  23.081  0.00  0.00    +0.000 C 
ATOM     29  O   UNL     1      -1.939  12.224  22.007  0.00  0.00    +0.000 OA
ENDBRANCH  22  29
ENDBRANCH  17  25
ENDBRANCH  16  20
ENDBRANCH   1  16
TORSDOF 7
ENDMDL
MODEL 5
REMARK VINA RESULT:      -8.5      0.734      1.163
REMARK  Name = 
REMARK  8 active torsions:
REMARK  status: ('A' for Active; 'I' for Inactive)
REMARK    1  A    between atoms: C_1  and  O_2
REMARK    2  A    between atoms: O_2  and  C_3
REMARK    3  A    between atoms: C_6  and  C_7
REMARK    4  A    between atoms: C_10  and  C_11
REMARK    5  A    between atoms: C_11  and  N_12
REMARK    6  A    between atoms: C_14  and  C_15
REMARK    7  A    between atoms: C_15  and  O_17
REMARK    8  A    between atoms: C_19  and  C_20
REMARK                            x       y       z     vdW  Elec       q    Type
REMARK                         _______ _______ _______ _____ _____    ______ ____
ROOT
ATOM      1  N   UNL     1       4.506   5.757  17.381  0.00  0.00    +0.000 N 
ATOM      2  N   UNL     1       5.429   5.926  16.403  0.00  0.00    +0.000 NA
ATOM      3  C   UNL     1       5.559   4.714  15.844  0.00  0.00    +0.000 A 
ATOM      4  C   UNL     1       4.728   3.773  16.488  0.00  0.00    +0.000 A 
ATOM      5  C   UNL     1       4.057   4.455  17.495  0.00  0.00    +0.000 A 
ENDROOT
BRANCH   5   6
ATOM      6  C   UNL     1       3.102   3.931  18.485  0.00  0.00    +0.000 A 
ATOM      7  C   UNL     1       3.546   3.607  19.777  0.00  0.00    +0.000 A 
ATOM      8  C   UNL     1       2.676   3.055  20.724  0.00  0.00    +0.000 A 
ATOM      9  C   UNL     1       1.340   2.834  20.401  0.00  0.00    +0.000 A 
ATOM     10  C   UNL     1       0.876   3.166  19.134  0.00  0.00    +0.000 A 
ATOM     11  C   UNL     1       1.754   3.692  18.182  0.00  0.00    +0.000 A 
ENDBRANCH   5   6
BRANCH   3  12
ATOM     12  C   UNL     1       6.478   4.524  14.720  0.00  0.00    +0.000 C 
ATOM     13  O   UNL     1       6.278   3.773  13.781  0.00  0.00    +0.000 OA
BRANCH  12  14
ATOM     14  O   UNL     1       7.600   5.296  14.832  0.00  0.00    +0.000 OA
ATOM     15  H   UNL     1       7.298   6.233  14.781  0.00  0.00    +0.000 HD
ENDBRANCH  12  14
ENDBRANCH   3  12
BRANCH   1  16
ATOM     16  C   UNL     1       4.127   6.913  18.171  0.00  0.00    +0.000 C 
BRANCH  16  20
ATOM     17  C   UNL     1       1.463   9.117  18.806  0.00  0.00    +0.000 C 
ATOM     18  N   UNL     1       1.859   9.522  17.642  0.00  0.00    +0.000 NA
ATOM     19  O   UNL     1       2.739   8.556  17.119  0.00  0.00    +0.000 OA
ATOM     20  C   UNL     1       2.695   7.388  17.951  0.00  0.00    +0.000 C 
ATOM     21  C   UNL     1       2.008   7.812  19.237  0.00  0.00    +0.000 C 
BRANCH  17  25
ATOM     22  C   UNL     1      -1.096  11.531  21.229  0.00  0.00    +0.000 A 
ATOM     23  C   UNL     1      -1.282  11.450  19.849  0.00  0.00    +0.000 A 
ATOM     24  C   UNL     1      -0.459  10.635  19.074  0.00  0.00    +0.000 A 
ATOM     25  C   UNL     1       0.572   9.908  19.676  0.00  0.00    +0.000 A 
ATOM     26  C   UNL     1       0.763   9.987  21.059  0.00  0.00    +0.000 A 
ATOM     27  C   UNL     1      -0.071  10.802  21.833  0.00  0.00    +0.000 A 
BRANCH  22  29
ATOM     28  C   UNL     1      -2.379  11.967  23.159  0.00  0.00    +0.000 C 
ATOM     29  O   UNL     1      -1.940  12.390  21.874  0.00  0.00    +0.000 OA
ENDBRANCH  22  29
ENDBRANCH  17  25
ENDBRANCH  16  20
ENDBRANCH   1  16
TORSDOF 7
ENDMDL
MODEL 6
REMARK VINA RESULT:      -8.4      4.526      6.477
REMARK  Name = 
REMARK  8 active torsions:
REMARK  status: ('A' for Active; 'I' for Inactive)
REMARK    1  A    between atoms: C_1  and  O_2
REMARK    2  A    between atoms: O_2  and  C_3
REMARK    3  A    between atoms: C_6  and  C_7
REMARK    4  A    between atoms: C_10  and  C_11
REMARK    5  A    between atoms: C_11  and  N_12
REMARK    6  A    between atoms: C_14  and  C_15
REMARK    7  A    between atoms: C_15  and  O_17
REMARK    8  A    between atoms: C_19  and  C_20
REMARK                            x       y       z     vdW  Elec       q    Type
REMARK                         _______ _______ _______ _____ _____    ______ ____
ROOT
ATOM      1  N   UNL     1       6.870   4.985  16.242  0.00  0.00    +0.000 N 
ATOM      2  N   UNL     1       7.659   5.102  15.148  0.00  0.00    +0.000 NA
ATOM      3  C   UNL     1       6.863   4.779  14.118  0.00  0.00    +0.000 A 
ATOM      4  C   UNL     1       5.572   4.436  14.571  0.00  0.00    +0.000 A 
ATOM      5  C   UNL     1       5.588   4.559  15.954  0.00  0.00    +0.000 A 
ENDROOT
BRANCH   5   6
ATOM      6  C   UNL     1       4.509   4.281  16.916  0.00  0.00    +0.000 A 
ATOM      7  C   UNL     1       3.704   5.332  17.383  0.00  0.00    +0.000 A 
ATOM      8  C   UNL     1       2.708   5.110  18.341  0.00  0.00    +0.000 A 
ATOM      9  C   UNL     1       2.486   3.828  18.834  0.00  0.00    +0.000 A 
ATOM     10  C   UNL     1       3.258   2.770  18.371  0.00  0.00    +0.000 A 
ATOM     11  C   UNL     1       4.271   3.000  17.435  0.00  0.00    +0.000 A 
ENDBRANCH   5   6
BRANCH   3  12
ATOM     12  C   UNL     1       7.388   4.814  12.751  0.00  0.00    +0.000 C 
ATOM     13  O   UNL     1       7.111   4.007  11.881  0.00  0.00    +0.000 OA
BRANCH  12  14
ATOM     14  O   UNL     1       8.229   5.871  12.546  0.00  0.00    +0.000 OA
ATOM     15  H   UNL     1       8.594   6.111  13.430  0.00  0.00    +0.000 HD
ENDBRANCH  12  14
ENDBRANCH   3  12
BRANCH   1  16
ATOM     16  C   UNL     1       7.447   5.292  17.538  0.00  0.00    +0.000 C 
BRANCH  16  20
ATOM     17  C   UNL     1       7.944   8.736  18.036  0.00  0.00    +0.000 C 
ATOM     18  N   UNL     1       7.006   8.738  17.143  0.00  0.00    +0.000 NA
ATOM     19  O   UNL     1       6.493   7.431  17.044  0.00  0.00    +0.000 OA
ATOM     20  C   UNL     1       7.029   6.640  18.114  0.00  0.00    +0.000 C 
ATOM     21  C   UNL     1       8.195   7.429  18.680  0.00  0.00    +0.000 C 
BRANCH  17  25
ATOM     22  C   UNL     1      10.212  12.185  19.133  0.00  0.00    +0.000 A 
ATOM     23  C   UNL     1      10.200  11.048  19.940  0.00  0.00    +0.000 A 
ATOM     24  C   UNL     1       9.480   9.919  19.555  0.00  0.00    +0.000 A 
ATOM     25  C   UNL     1       8.749   9.928  18.364  0.00  0.00    +0.000 A 
ATOM     26  C   UNL     1       8.757  11.066  17.552  0.00  0.00    +0.000 A 
ATOM     27  C   UNL     1       9.487  12.195  17.940  0.00  0.00    +0.000 A 
BRANCH  22  29
ATOM     28  C   UNL     1      10.425  14.529  19.295  0.00  0.00    +0.000 C 
ATOM     29  O   UNL     1      10.923  13.240  19.633  0.00  0.00    +0.000 OA
ENDBRANCH  22  29
ENDBRANCH  17  25
ENDBRANCH  16  20
ENDBRANCH   1  16
TORSDOF 7
ENDMDL
MODEL 7
REMARK VINA RESULT:      -8.4      1.052      1.758
REMARK  Name = 
REMARK  8 active torsions:
REMARK  status: ('A' for Active; 'I' for Inactive)
REMARK    1  A    between atoms: C_1  and  O_2
REMARK    2  A    between atoms: O_2  and  C_3
REMARK    3  A    between atoms: C_6  and  C_7
REMARK    4  A    between atoms: C_10  and  C_11
REMARK    5  A    between atoms: C_11  and  N_12
REMARK    6  A    between atoms: C_14  and  C_15
REMARK    7  A    between atoms: C_15  and  O_17
REMARK    8  A    between atoms: C_19  and  C_20
REMARK                            x       y       z     vdW  Elec       q    Type
REMARK                         _______ _______ _______ _____ _____    ______ ____
ROOT
ATOM      1  N   UNL     1       4.547   5.678  17.533  0.00  0.00    +0.000 N 
ATOM      2  N   UNL     1       5.501   5.890  16.595  0.00  0.00    +0.000 NA
ATOM      3  C   UNL     1       5.679   4.694  16.014  0.00  0.00    +0.000 A 
ATOM      4  C   UNL     1       4.847   3.721  16.605  0.00  0.00    +0.000 A 
ATOM      5  C   UNL     1       4.124   4.365  17.601  0.00  0.00    +0.000 A 
ENDROOT
BRANCH   5   6
ATOM      6  C   UNL     1       3.145   3.797  18.542  0.00  0.00    +0.000 A 
ATOM      7  C   UNL     1       1.809   3.631  18.143  0.00  0.00    +0.000 A 
ATOM      8  C   UNL     1       0.842   3.147  19.032  0.00  0.00    +0.000 A 
ATOM      9  C   UNL     1       1.199   2.802  20.332  0.00  0.00    +0.000 A 
ATOM     10  C   UNL     1       2.519   2.940  20.742  0.00  0.00    +0.000 A 
ATOM     11  C   UNL     1       3.476   3.450  19.860  0.00  0.00    +0.000 A 
ENDBRANCH   5   6
BRANCH   3  12
ATOM     12  C   UNL     1       6.644   4.551  14.922  0.00  0.00    +0.000 C 
ATOM     13  O   UNL     1       7.604   5.280  14.744  0.00  0.00    +0.000 OA
BRANCH  12  14
ATOM     14  O   UNL     1       6.354   3.489  14.111  0.00  0.00    +0.000 OA
ATOM     15  H   UNL     1       6.911   2.740  14.426  0.00  0.00    +0.000 HD
ENDBRANCH  12  14
ENDBRANCH   3  12
BRANCH   1  16
ATOM     16  C   UNL     1       4.112   6.807  18.334  0.00  0.00    +0.000 C 
BRANCH  16  20
ATOM     17  C   UNL     1       1.489   9.116  18.710  0.00  0.00    +0.000 C 
ATOM     18  N   UNL     1       1.978   9.470  17.565  0.00  0.00    +0.000 NA
ATOM     19  O   UNL     1       2.859   8.459  17.136  0.00  0.00    +0.000 OA
ATOM     20  C   UNL     1       2.716   7.321  17.999  0.00  0.00    +0.000 C 
ATOM     21  C   UNL     1       1.957   7.809  19.219  0.00  0.00    +0.000 C 
BRANCH  17  25
ATOM     22  C   UNL     1      -1.176  11.678  20.852  0.00  0.00    +0.000 A 
ATOM     23  C   UNL     1      -1.424  11.334  19.523  0.00  0.00    +0.000 A 
ATOM     24  C   UNL     1      -0.563  10.473  18.846  0.00  0.00    +0.000 A 
ATOM     25  C   UNL     1       0.567   9.965  19.491  0.00  0.00    +0.000 A 
ATOM     26  C   UNL     1       0.822  10.308  20.823  0.00  0.00    +0.000 A 
ATOM     27  C   UNL     1      -0.050  11.167  21.500  0.00  0.00    +0.000 A 
BRANCH  22  29
ATOM     28  C   UNL     1      -1.761  13.934  21.218  0.00  0.00    +0.000 C 
ATOM     29  O   UNL     1      -2.070  12.557  21.397  0.00  0.00    +0.000 OA
ENDBRANCH  22  29
ENDBRANCH  17  25
ENDBRANCH  16  20
ENDBRANCH   1  16
TORSDOF 7
ENDMDL
MODEL 8
REMARK VINA RESULT:      -8.2      1.840      2.342
REMARK  Name = 
REMARK  8 active torsions:
REMARK  status: ('A' for Active; 'I' for Inactive)
REMARK    1  A    between atoms: C_1  and  O_2
REMARK    2  A    between atoms: O_2  and  C_3
REMARK    3  A    between atoms: C_6  and  C_7
REMARK    4  A    between atoms: C_10  and  C_11
REMARK    5  A    between atoms: C_11  and  N_12
REMARK    6  A    between atoms: C_14  and  C_15
REMARK    7  A    between atoms: C_15  and  O_17
REMARK    8  A    between atoms: C_19  and  C_20
REMARK                            x       y       z     vdW  Elec       q    Type
REMARK                         _______ _______ _______ _____ _____    ______ ____
ROOT
ATOM      1  N   UNL     1       3.777   5.972  17.626  0.00  0.00    +0.000 N 
ATOM      2  N   UNL     1       4.915   6.376  17.013  0.00  0.00    +0.000 NA
ATOM      3  C   UNL     1       5.802   5.401  17.264  0.00  0.00    +0.000 A 
ATOM      4  C   UNL     1       5.222   4.389  18.058  0.00  0.00    +0.000 A 
ATOM      5  C   UNL     1       3.910   4.774  18.301  0.00  0.00    +0.000 A 
ENDROOT
BRANCH   5   6
ATOM      6  C   UNL     1       2.884   4.094  19.108  0.00  0.00    +0.000 A 
ATOM      7  C   UNL     1       1.928   3.281  18.479  0.00  0.00    +0.000 A 
ATOM      8  C   UNL     1       0.906   2.666  19.211  0.00  0.00    +0.000 A 
ATOM      9  C   UNL     1       0.834   2.837  20.591  0.00  0.00    +0.000 A 
ATOM     10  C   UNL     1       1.782   3.621  21.236  0.00  0.00    +0.000 A 
ATOM     11  C   UNL     1       2.785   4.256  20.498  0.00  0.00    +0.000 A 
ENDBRANCH   5   6
BRANCH   3  12
ATOM     12  C   UNL     1       7.161   5.495  16.729  0.00  0.00    +0.000 C 
ATOM     13  O   UNL     1       7.894   4.543  16.527  0.00  0.00    +0.000 OA
BRANCH  12  14
ATOM     14  O   UNL     1       7.526   6.786  16.466  0.00  0.00    +0.000 OA
ATOM     15  H   UNL     1       8.281   6.988  17.067  0.00  0.00    +0.000 HD
ENDBRANCH  12  14
ENDBRANCH   3  12
BRANCH   1  16
ATOM     16  C   UNL     1       2.605   6.822  17.521  0.00  0.00    +0.000 C 
BRANCH  16  20
ATOM     17  C   UNL     1       1.000   9.366  19.339  0.00  0.00    +0.000 C 
ATOM     18  N   UNL     1       1.375   8.570  20.288  0.00  0.00    +0.000 NA
ATOM     19  O   UNL     1       2.284   7.642  19.747  0.00  0.00    +0.000 OA
ATOM     20  C   UNL     1       2.633   8.054  18.418  0.00  0.00    +0.000 C 
ATOM     21  C   UNL     1       1.608   9.100  18.017  0.00  0.00    +0.000 C 
BRANCH  17  25
ATOM     22  C   UNL     1      -1.965  12.370  19.997  0.00  0.00    +0.000 A 
ATOM     23  C   UNL     1      -1.289  11.782  21.067  0.00  0.00    +0.000 A 
ATOM     24  C   UNL     1      -0.303  10.826  20.836  0.00  0.00    +0.000 A 
ATOM     25  C   UNL     1       0.000  10.435  19.529  0.00  0.00    +0.000 A 
ATOM     26  C   UNL     1      -0.676  11.020  18.453  0.00  0.00    +0.000 A 
ATOM     27  C   UNL     1      -1.660  11.985  18.691  0.00  0.00    +0.000 A 
BRANCH  22  29
ATOM     28  C   UNL     1      -4.273  12.802  20.224  0.00  0.00    +0.000 C 
ATOM     29  O   UNL     1      -2.935  13.266  20.351  0.00  0.00    +0.000 OA
ENDBRANCH  22  29
ENDBRANCH  17  25
ENDBRANCH  16  20
ENDBRANCH   1  16
TORSDOF 7
ENDMDL
MODEL 9
REMARK VINA RESULT:      -8.2      1.970      2.510
REMARK  Name = 
REMARK  8 active torsions:
REMARK  status: ('A' for Active; 'I' for Inactive)
REMARK    1  A    between atoms: C_1  and  O_2
REMARK    2  A    between atoms: O_2  and  C_3
REMARK    3  A    between atoms: C_6  and  C_7
REMARK    4  A    between atoms: C_10  and  C_11
REMARK    5  A    between atoms: C_11  and  N_12
REMARK    6  A    between atoms: C_14  and  C_15
REMARK    7  A    between atoms: C_15  and  O_17
REMARK    8  A    between atoms: C_19  and  C_20
REMARK                            x       y       z     vdW  Elec       q    Type
REMARK                         _______ _______ _______ _____ _____    ______ ____
ROOT
ATOM      1  N   UNL     1       3.560   6.495  17.716  0.00  0.00    +0.000 N 
ATOM      2  N   UNL     1       4.681   7.015  17.159  0.00  0.00    +0.000 NA
ATOM      3  C   UNL     1       5.639   6.113  17.418  0.00  0.00    +0.000 A 
ATOM      4  C   UNL     1       5.121   5.030  18.159  0.00  0.00    +0.000 A 
ATOM      5  C   UNL     1       3.773   5.292  18.361  0.00  0.00    +0.000 A 
ENDROOT
BRANCH   5   6
ATOM      6  C   UNL     1       2.781   4.501  19.108  0.00  0.00    +0.000 A 
ATOM      7  C   UNL     1       2.734   4.587  20.509  0.00  0.00    +0.000 A 
ATOM      8  C   UNL     1       1.841   3.806  21.252  0.00  0.00    +0.000 A 
ATOM      9  C   UNL     1       0.966   2.938  20.605  0.00  0.00    +0.000 A 
ATOM     10  C   UNL     1       0.984   2.852  19.219  0.00  0.00    +0.000 A 
ATOM     11  C   UNL     1       1.895   3.613  18.481  0.00  0.00    +0.000 A 
ENDBRANCH   5   6
BRANCH   3  12
ATOM     12  C   UNL     1       7.004   6.341  16.940  0.00  0.00    +0.000 C 
ATOM     13  O   UNL     1       7.598   7.402  17.020  0.00  0.00    +0.000 OA
BRANCH  12  14
ATOM     14  O   UNL     1       7.556   5.217  16.392  0.00  0.00    +0.000 OA
ATOM     15  H   UNL     1       7.658   5.400  15.429  0.00  0.00    +0.000 HD
ENDBRANCH  12  14
ENDBRANCH   3  12
BRANCH   1  16
ATOM     16  C   UNL     1       2.323   7.243  17.587  0.00  0.00    +0.000 C 
BRANCH  16  20
ATOM     17  C   UNL     1       0.533   9.691  19.363  0.00  0.00    +0.000 C 
ATOM     18  N   UNL     1       1.016   8.977  20.328  0.00  0.00    +0.000 NA
ATOM     19  O   UNL     1       1.995   8.121  19.790  0.00  0.00    +0.000 OA
ATOM     20  C   UNL     1       2.257   8.508  18.434  0.00  0.00    +0.000 C 
ATOM     21  C   UNL     1       1.121   9.431  18.031  0.00  0.00    +0.000 C 
BRANCH  17  25
ATOM     22  C   UNL     1      -2.667  12.440  20.039  0.00  0.00    +0.000 A 
ATOM     23  C   UNL     1      -1.692  12.220  21.012  0.00  0.00    +0.000 A 
ATOM     24  C   UNL     1      -0.638  11.343  20.766  0.00  0.00    +0.000 A 
ATOM     25  C   UNL     1      -0.562  10.664  19.548  0.00  0.00    +0.000 A 
ATOM     26  C   UNL     1      -1.537  10.880  18.569  0.00  0.00    +0.000 A 
ATOM     27  C   UNL     1      -2.591  11.767  18.818  0.00  0.00    +0.000 A 
BRANCH  22  29
ATOM     28  C   UNL     1      -4.965  12.711  20.495  0.00  0.00    +0.000 C 
ATOM     29  O   UNL     1      -3.670  13.292  20.409  0.00  0.00    +0.000 OA
ENDBRANCH  22  29
ENDBRANCH  17  25
ENDBRANCH  16  20
ENDBRANCH   1  16
TORSDOF 7
ENDMDL
