MODEL 1
REMARK VINA RESULT:      -8.0      0.000      0.000
REMARK  Name = 
REMARK  5 active torsions:
REMARK  status: ('A' for Active; 'I' for Inactive)
REMARK    1  A    between atoms: C_1  and  C_2
REMARK    2  A    between atoms: C_9  and  O_10
REMARK    3  A    between atoms: C_19  and  N_20
REMARK    4  A    between atoms: N_20  and  S_21
REMARK    5  A    between atoms: S_21  and  C_24
REMARK                            x       y       z     vdW  Elec       q    Type
REMARK                         _______ _______ _______ _____ _____    ______ ____
ROOT
ATOM      1  C   UNL     1       0.044   8.962  17.981  0.00  0.00    +0.000 C 
ATOM      2  C   UNL     1       1.284   9.381  18.820  0.00  0.00    +0.000 C 
ATOM      3  C   UNL     1       2.609   9.228  18.068  0.00  0.00    +0.000 C 
ATOM      4  C   UNL     1       2.877   7.788  17.670  0.00  0.00    +0.000 C 
ATOM      5  C   UNL     1       2.907   6.862  18.894  0.00  0.00    +0.000 C 
ATOM      6  C   UNL     1       3.189   5.415  18.533  0.00  0.00    +0.000 A 
ATOM      7  C   UNL     1       4.003   5.087  17.430  0.00  0.00    +0.000 A 
ATOM      8  C   UNL     1       4.286   3.764  17.102  0.00  0.00    +0.000 A 
ATOM      9  C   UNL     1       3.771   2.753  17.897  0.00  0.00    +0.000 A 
ATOM     10  C   UNL     1       2.990   3.047  19.008  0.00  0.00    +0.000 A 
ATOM     11  C   UNL     1       2.699   4.379  19.348  0.00  0.00    +0.000 A 
ATOM     12  C   UNL     1       1.812   4.650  20.543  0.00  0.00    +0.000 C 
ATOM     13  C   UNL     1       1.758   6.119  20.986  0.00  0.00    +0.000 C 
ATOM     14  C   UNL     1       1.620   7.028  19.765  0.00  0.00    +0.000 C 
ATOM     15  C   UNL     1       1.442   8.521  20.106  0.00  0.00    +0.000 C 
ATOM     16  C   UNL     1       0.289   8.989  20.985  0.00  0.00    +0.000 C 
ATOM     17  C   UNL     1       0.153  10.492  20.645  0.00  0.00    +0.000 C 
ATOM     18  C   UNL     1       1.082  10.780  19.427  0.00  0.00    +0.000 C 
ENDROOT
BRANCH   9  19
ATOM     19  O   UNL     1       4.019   1.442  17.607  0.00  0.00    +0.000 OA
ATOM     20  H   UNL     1       3.285   0.909  17.955  0.00  0.00    +0.000 HD
ENDBRANCH   9  19
BRANCH  18  21
ATOM     21  N   UNL     1       0.447  11.772  18.535  0.00  0.00    +0.000 NA
ATOM     22  H   UNL     1       0.131  11.414  17.633  0.00  0.00    +0.000 HD
BRANCH  21  23
ATOM     23  S   UNL     1      -0.618  12.991  19.063  0.00  0.00    +0.000 S 
ATOM     24  O   UNL     1      -0.543  13.201  20.485  0.00  0.00    +0.000 OA
ATOM     25  O   UNL     1      -0.428  14.089  18.137  0.00  0.00    +0.000 OA
BRANCH  23  26
ATOM     26  C   UNL     1      -2.198  12.277  18.651  0.00  0.00    +0.000 A 
ATOM     27  C   UNL     1      -2.395  11.512  17.487  0.00  0.00    +0.000 A 
ATOM     28  C   UNL     1      -3.670  11.001  17.228  0.00  0.00    +0.000 A 
ATOM     29  C   UNL     1      -4.713  11.250  18.120  0.00  0.00    +0.000 A 
ATOM     30  F   UNL     1      -5.936  10.767  17.865  0.00  0.00    +0.000 F 
ATOM     31  C   UNL     1      -4.510  11.991  19.279  0.00  0.00    +0.000 A 
ATOM     32  C   UNL     1      -3.246  12.497  19.548  0.00  0.00    +0.000 A 
ENDBRANCH  23  26
ENDBRANCH  21  23
ENDBRANCH  18  21
TORSDOF 4
ENDMDL
MODEL 2
REMARK VINA RESULT:      -7.7      4.546      8.880
REMARK  Name = 
REMARK  5 active torsions:
REMARK  status: ('A' for Active; 'I' for Inactive)
REMARK    1  A    between atoms: C_1  and  C_2
REMARK    2  A    between atoms: C_9  and  O_10
REMARK    3  A    between atoms: C_19  and  N_20
REMARK    4  A    between atoms: N_20  and  S_21
REMARK    5  A    between atoms: S_21  and  C_24
REMARK                            x       y       z     vdW  Elec       q    Type
REMARK                         _______ _______ _______ _____ _____    ______ ____
ROOT
ATOM      1  C   UNL     1       4.615   5.979  19.515  0.00  0.00    +0.000 C 
ATOM      2  C   UNL     1       3.362   5.639  18.661  0.00  0.00    +0.000 C 
ATOM      3  C   UNL     1       3.127   6.619  17.507  0.00  0.00    +0.000 C 
ATOM      4  C   UNL     1       2.890   8.034  17.999  0.00  0.00    +0.000 C 
ATOM      5  C   UNL     1       1.684   8.107  18.947  0.00  0.00    +0.000 C 
ATOM      6  C   UNL     1       1.408   9.514  19.446  0.00  0.00    +0.000 A 
ATOM      7  C   UNL     1       1.694  10.637  18.644  0.00  0.00    +0.000 A 
ATOM      8  C   UNL     1       1.425  11.930  19.082  0.00  0.00    +0.000 A 
ATOM      9  C   UNL     1       0.844  12.108  20.327  0.00  0.00    +0.000 A 
ATOM     10  C   UNL     1       0.525  11.018  21.127  0.00  0.00    +0.000 A 
ATOM     11  C   UNL     1       0.791   9.708  20.693  0.00  0.00    +0.000 A 
ATOM     12  C   UNL     1       0.463   8.554  21.614  0.00  0.00    +0.000 C 
ATOM     13  C   UNL     1       0.548   7.166  20.965  0.00  0.00    +0.000 C 
ATOM     14  C   UNL     1       1.810   7.067  20.107  0.00  0.00    +0.000 C 
ATOM     15  C   UNL     1       2.052   5.672  19.499  0.00  0.00    +0.000 C 
ATOM     16  C   UNL     1       2.175   4.442  20.389  0.00  0.00    +0.000 C 
ATOM     17  C   UNL     1       2.918   3.416  19.501  0.00  0.00    +0.000 C 
ATOM     18  C   UNL     1       3.389   4.166  18.219  0.00  0.00    +0.000 C 
ENDROOT
BRANCH   9  19
ATOM     19  O   UNL     1       0.570  13.360  20.797  0.00  0.00    +0.000 OA
ATOM     20  H   UNL     1       1.412  13.800  21.002  0.00  0.00    +0.000 HD
ENDBRANCH   9  19
BRANCH  18  21
ATOM     21  N   UNL     1       4.710   3.656  17.796  0.00  0.00    +0.000 NA
ATOM     22  H   UNL     1       4.830   2.645  17.856  0.00  0.00    +0.000 HD
BRANCH  21  23
ATOM     23  S   UNL     1       5.583   4.250  16.461  0.00  0.00    +0.000 S 
ATOM     24  O   UNL     1       6.405   3.236  15.853  0.00  0.00    +0.000 OA
ATOM     25  O   UNL     1       4.620   4.997  15.678  0.00  0.00    +0.000 OA
BRANCH  23  26
ATOM     26  C   UNL     1       6.625   5.468  17.240  0.00  0.00    +0.000 A 
ATOM     27  C   UNL     1       7.459   5.157  18.330  0.00  0.00    +0.000 A 
ATOM     28  C   UNL     1       8.234   6.173  18.895  0.00  0.00    +0.000 A 
ATOM     29  C   UNL     1       8.172   7.466  18.372  0.00  0.00    +0.000 A 
ATOM     30  F   UNL     1       8.908   8.441  18.922  0.00  0.00    +0.000 F 
ATOM     31  C   UNL     1       7.361   7.766  17.284  0.00  0.00    +0.000 A 
ATOM     32  C   UNL     1       6.593   6.761  16.712  0.00  0.00    +0.000 A 
ENDBRANCH  23  26
ENDBRANCH  21  23
ENDBRANCH  18  21
TORSDOF 4
ENDMDL
MODEL 3
REMARK VINA RESULT:      -7.7      1.111      1.604
REMARK  Name = 
REMARK  5 active torsions:
REMARK  status: ('A' for Active; 'I' for Inactive)
REMARK    1  A    between atoms: C_1  and  C_2
REMARK    2  A    between atoms: C_9  and  O_10
REMARK    3  A    between atoms: C_19  and  N_20
REMARK    4  A    between atoms: N_20  and  S_21
REMARK    5  A    between atoms: S_21  and  C_24
REMARK                            x       y       z     vdW  Elec       q    Type
REMARK                         _______ _______ _______ _____ _____    ______ ____
ROOT
ATOM      1  C   UNL     1      -0.157   9.231  17.997  0.00  0.00    +0.000 C 
ATOM      2  C   UNL     1       0.963   9.713  18.962  0.00  0.00    +0.000 C 
ATOM      3  C   UNL     1       2.270  10.070  18.247  0.00  0.00    +0.000 C 
ATOM      4  C   UNL     1       2.868   8.878  17.523  0.00  0.00    +0.000 C 
ATOM      5  C   UNL     1       3.145   7.714  18.484  0.00  0.00    +0.000 C 
ATOM      6  C   UNL     1       3.759   6.510  17.793  0.00  0.00    +0.000 A 
ATOM      7  C   UNL     1       4.605   6.668  16.676  0.00  0.00    +0.000 A 
ATOM      8  C   UNL     1       5.191   5.573  16.048  0.00  0.00    +0.000 A 
ATOM      9  C   UNL     1       4.951   4.305  16.552  0.00  0.00    +0.000 A 
ATOM     10  C   UNL     1       4.145   4.122  17.669  0.00  0.00    +0.000 A 
ATOM     11  C   UNL     1       3.550   5.220  18.311  0.00  0.00    +0.000 A 
ATOM     12  C   UNL     1       2.648   4.970  19.500  0.00  0.00    +0.000 C 
ATOM     13  C   UNL     1       2.252   6.229  20.285  0.00  0.00    +0.000 C 
ATOM     14  C   UNL     1       1.874   7.350  19.317  0.00  0.00    +0.000 C 
ATOM     15  C   UNL     1       1.349   8.626  20.004  0.00  0.00    +0.000 C 
ATOM     16  C   UNL     1       0.136   8.576  20.924  0.00  0.00    +0.000 C 
ATOM     17  C   UNL     1      -0.364  10.040  20.956  0.00  0.00    +0.000 C 
ATOM     18  C   UNL     1       0.442  10.830  19.882  0.00  0.00    +0.000 C 
ENDROOT
BRANCH   9  19
ATOM     19  O   UNL     1       5.500   3.203  15.962  0.00  0.00    +0.000 OA
ATOM     20  H   UNL     1       4.918   2.444  16.130  0.00  0.00    +0.000 HD
ENDBRANCH   9  19
BRANCH  18  21
ATOM     21  N   UNL     1      -0.431  11.831  19.234  0.00  0.00    +0.000 NA
ATOM     22  H   UNL     1      -0.889  11.525  18.376  0.00  0.00    +0.000 HD
BRANCH  21  23
ATOM     23  S   UNL     1      -1.462  12.891  20.077  0.00  0.00    +0.000 S 
ATOM     24  O   UNL     1      -1.363  12.727  21.503  0.00  0.00    +0.000 OA
ATOM     25  O   UNL     1      -1.262  14.187  19.460  0.00  0.00    +0.000 OA
BRANCH  23  26
ATOM     26  C   UNL     1      -3.062  12.333  19.525  0.00  0.00    +0.000 A 
ATOM     27  C   UNL     1      -4.251  12.695  20.185  0.00  0.00    +0.000 A 
ATOM     28  C   UNL     1      -5.465  12.203  19.699  0.00  0.00    +0.000 A 
ATOM     29  C   UNL     1      -5.480  11.374  18.577  0.00  0.00    +0.000 A 
ATOM     30  F   UNL     1      -6.644  10.895  18.119  0.00  0.00    +0.000 F 
ATOM     31  C   UNL     1      -4.304  11.034  17.916  0.00  0.00    +0.000 A 
ATOM     32  C   UNL     1      -3.094  11.523  18.388  0.00  0.00    +0.000 A 
ENDBRANCH  23  26
ENDBRANCH  21  23
ENDBRANCH  18  21
TORSDOF 4
ENDMDL
MODEL 4
REMARK VINA RESULT:      -7.6      1.104      1.605
REMARK  Name = 
REMARK  5 active torsions:
REMARK  status: ('A' for Active; 'I' for Inactive)
REMARK    1  A    between atoms: C_1  and  C_2
REMARK    2  A    between atoms: C_9  and  O_10
REMARK    3  A    between atoms: C_19  and  N_20
REMARK    4  A    between atoms: N_20  and  S_21
REMARK    5  A    between atoms: S_21  and  C_24
REMARK                            x       y       z     vdW  Elec       q    Type
REMARK                         _______ _______ _______ _____ _____    ______ ____
ROOT
ATOM      1  C   UNL     1      -0.213   9.372  18.306  0.00  0.00    +0.000 C 
ATOM      2  C   UNL     1       1.045   9.767  19.130  0.00  0.00    +0.000 C 
ATOM      3  C   UNL     1       2.349   9.683  18.331  0.00  0.00    +0.000 C 
ATOM      4  C   UNL     1       2.630   8.273  17.844  0.00  0.00    +0.000 C 
ATOM      5  C   UNL     1       2.715   7.280  19.012  0.00  0.00    +0.000 C 
ATOM      6  C   UNL     1       3.012   5.862  18.560  0.00  0.00    +0.000 A 
ATOM      7  C   UNL     1       3.797   5.614  17.416  0.00  0.00    +0.000 A 
ATOM      8  C   UNL     1       4.093   4.317  17.006  0.00  0.00    +0.000 A 
ATOM      9  C   UNL     1       3.622   3.253  17.756  0.00  0.00    +0.000 A 
ATOM     10  C   UNL     1       2.870   3.468  18.905  0.00  0.00    +0.000 A 
ATOM     11  C   UNL     1       2.566   4.772  19.329  0.00  0.00    +0.000 A 
ATOM     12  C   UNL     1       1.711   4.958  20.563  0.00  0.00    +0.000 C 
ATOM     13  C   UNL     1       1.644   6.398  21.091  0.00  0.00    +0.000 C 
ATOM     14  C   UNL     1       1.452   7.372  19.928  0.00  0.00    +0.000 C 
ATOM     15  C   UNL     1       1.257   8.839  20.360  0.00  0.00    +0.000 C 
ATOM     16  C   UNL     1       0.123   9.234  21.298  0.00  0.00    +0.000 C 
ATOM     17  C   UNL     1      -0.050  10.751  21.049  0.00  0.00    +0.000 C 
ATOM     18  C   UNL     1       0.836  11.125  19.822  0.00  0.00    +0.000 C 
ENDROOT
BRANCH   9  19
ATOM     19  O   UNL     1       3.884   1.966  17.385  0.00  0.00    +0.000 OA
ATOM     20  H   UNL     1       3.090   1.432  17.552  0.00  0.00    +0.000 HD
ENDBRANCH   9  19
BRANCH  18  21
ATOM     21  N   UNL     1       0.156  12.153  19.007  0.00  0.00    +0.000 NA
ATOM     22  H   UNL     1      -0.545  11.804  18.354  0.00  0.00    +0.000 HD
BRANCH  21  23
ATOM     23  S   UNL     1      -0.330  13.675  19.596  0.00  0.00    +0.000 S 
ATOM     24  O   UNL     1       0.412  14.067  20.766  0.00  0.00    +0.000 OA
ATOM     25  O   UNL     1      -0.390  14.533  18.430  0.00  0.00    +0.000 OA
BRANCH  23  26
ATOM     26  C   UNL     1      -2.023  13.350  20.048  0.00  0.00    +0.000 A 
ATOM     27  C   UNL     1      -2.645  13.991  21.135  0.00  0.00    +0.000 A 
ATOM     28  C   UNL     1      -3.972  13.669  21.435  0.00  0.00    +0.000 A 
ATOM     29  C   UNL     1      -4.652  12.732  20.657  0.00  0.00    +0.000 A 
ATOM     30  F   UNL     1      -5.920  12.418  20.952  0.00  0.00    +0.000 F 
ATOM     31  C   UNL     1      -4.039  12.115  19.571  0.00  0.00    +0.000 A 
ATOM     32  C   UNL     1      -2.724  12.433  19.263  0.00  0.00    +0.000 A 
ENDBRANCH  23  26
ENDBRANCH  21  23
ENDBRANCH  18  21
TORSDOF 4
ENDMDL
MODEL 5
REMARK VINA RESULT:      -7.6      3.141      4.282
REMARK  Name = 
REMARK  5 active torsions:
REMARK  status: ('A' for Active; 'I' for Inactive)
REMARK    1  A    between atoms: C_1  and  C_2
REMARK    2  A    between atoms: C_9  and  O_10
REMARK    3  A    between atoms: C_19  and  N_20
REMARK    4  A    between atoms: N_20  and  S_21
REMARK    5  A    between atoms: S_21  and  C_24
REMARK                            x       y       z     vdW  Elec       q    Type
REMARK                         _______ _______ _______ _____ _____    ______ ____
ROOT
ATOM      1  C   UNL     1      -0.273   9.610  18.150  0.00  0.00    +0.000 C 
ATOM      2  C   UNL     1       0.940  10.030  19.029  0.00  0.00    +0.000 C 
ATOM      3  C   UNL     1       2.277   9.985  18.283  0.00  0.00    +0.000 C 
ATOM      4  C   UNL     1       2.613   8.587  17.798  0.00  0.00    +0.000 C 
ATOM      5  C   UNL     1       2.676   7.587  18.961  0.00  0.00    +0.000 C 
ATOM      6  C   UNL     1       3.027   6.180  18.512  0.00  0.00    +0.000 A 
ATOM      7  C   UNL     1       3.864   5.961  17.399  0.00  0.00    +0.000 A 
ATOM      8  C   UNL     1       4.210   4.676  16.991  0.00  0.00    +0.000 A 
ATOM      9  C   UNL     1       3.735   3.594  17.714  0.00  0.00    +0.000 A 
ATOM     10  C   UNL     1       2.932   3.780  18.833  0.00  0.00    +0.000 A 
ATOM     11  C   UNL     1       2.578   5.073  19.253  0.00  0.00    +0.000 A 
ATOM     12  C   UNL     1       1.669   5.227  20.453  0.00  0.00    +0.000 C 
ATOM     13  C   UNL     1       1.544   6.661  20.988  0.00  0.00    +0.000 C 
ATOM     14  C   UNL     1       1.375   7.639  19.825  0.00  0.00    +0.000 C 
ATOM     15  C   UNL     1       1.126   9.097  20.259  0.00  0.00    +0.000 C 
ATOM     16  C   UNL     1      -0.055   9.456  21.152  0.00  0.00    +0.000 C 
ATOM     17  C   UNL     1      -0.256  10.970  20.907  0.00  0.00    +0.000 C 
ATOM     18  C   UNL     1       0.668  11.376  19.721  0.00  0.00    +0.000 C 
ENDROOT
BRANCH   9  19
ATOM     19  O   UNL     1       4.045   2.317  17.344  0.00  0.00    +0.000 OA
ATOM     20  H   UNL     1       5.006   2.263  17.207  0.00  0.00    +0.000 HD
ENDBRANCH   9  19
BRANCH  18  21
ATOM     21  N   UNL     1      -0.004  12.394  18.886  0.00  0.00    +0.000 NA
ATOM     22  H   UNL     1      -0.936  12.145  18.555  0.00  0.00    +0.000 HD
BRANCH  21  23
ATOM     23  S   UNL     1       0.063  14.069  19.181  0.00  0.00    +0.000 S 
ATOM     24  O   UNL     1      -0.400  14.838  18.055  0.00  0.00    +0.000 OA
ATOM     25  O   UNL     1      -0.520  14.248  20.495  0.00  0.00    +0.000 OA
BRANCH  23  26
ATOM     26  C   UNL     1       1.815  14.318  19.388  0.00  0.00    +0.000 A 
ATOM     27  C   UNL     1       2.396  14.544  20.649  0.00  0.00    +0.000 A 
ATOM     28  C   UNL     1       3.777  14.747  20.726  0.00  0.00    +0.000 A 
ATOM     29  C   UNL     1       4.549  14.717  19.564  0.00  0.00    +0.000 A 
ATOM     30  F   UNL     1       5.870  14.922  19.638  0.00  0.00    +0.000 F 
ATOM     31  C   UNL     1       3.973  14.475  18.321  0.00  0.00    +0.000 A 
ATOM     32  C   UNL     1       2.603  14.267  18.237  0.00  0.00    +0.000 A 
ENDBRANCH  23  26
ENDBRANCH  21  23
ENDBRANCH  18  21
TORSDOF 4
ENDMDL
MODEL 6
REMARK VINA RESULT:      -7.6      2.060      2.613
REMARK  Name = 
REMARK  5 active torsions:
REMARK  status: ('A' for Active; 'I' for Inactive)
REMARK    1  A    between atoms: C_1  and  C_2
REMARK    2  A    between atoms: C_9  and  O_10
REMARK    3  A    between atoms: C_19  and  N_20
REMARK    4  A    between atoms: N_20  and  S_21
REMARK    5  A    between atoms: S_21  and  C_24
REMARK                            x       y       z     vdW  Elec       q    Type
REMARK                         _______ _______ _______ _____ _____    ______ ____
ROOT
ATOM      1  C   UNL     1       0.131   8.779  18.075  0.00  0.00    +0.000 C 
ATOM      2  C   UNL     1       1.295   9.246  18.994  0.00  0.00    +0.000 C 
ATOM      3  C   UNL     1       2.523   9.737  18.221  0.00  0.00    +0.000 C 
ATOM      4  C   UNL     1       3.124   8.646  17.355  0.00  0.00    +0.000 C 
ATOM      5  C   UNL     1       3.536   7.425  18.189  0.00  0.00    +0.000 C 
ATOM      6  C   UNL     1       4.158   6.321  17.354  0.00  0.00    +0.000 A 
ATOM      7  C   UNL     1       4.905   6.619  16.197  0.00  0.00    +0.000 A 
ATOM      8  C   UNL     1       5.498   5.616  15.436  0.00  0.00    +0.000 A 
ATOM      9  C   UNL     1       5.364   4.299  15.843  0.00  0.00    +0.000 A 
ATOM     10  C   UNL     1       4.657   3.977  16.996  0.00  0.00    +0.000 A 
ATOM     11  C   UNL     1       4.056   4.982  17.772  0.00  0.00    +0.000 A 
ATOM     12  C   UNL     1       3.263   4.582  18.996  0.00  0.00    +0.000 C 
ATOM     13  C   UNL     1       2.863   5.746  19.914  0.00  0.00    +0.000 C 
ATOM     14  C   UNL     1       2.353   6.919  19.077  0.00  0.00    +0.000 C 
ATOM     15  C   UNL     1       1.817   8.101  19.909  0.00  0.00    +0.000 C 
ATOM     16  C   UNL     1       0.682   7.904  20.906  0.00  0.00    +0.000 C 
ATOM     17  C   UNL     1       0.109   9.328  21.100  0.00  0.00    +0.000 C 
ATOM     18  C   UNL     1       0.789  10.250  20.044  0.00  0.00    +0.000 C 
ENDROOT
BRANCH   9  19
ATOM     19  O   UNL     1       5.924   3.284  15.122  0.00  0.00    +0.000 OA
ATOM     20  H   UNL     1       5.611   2.440  15.487  0.00  0.00    +0.000 HD
ENDBRANCH   9  19
BRANCH  18  21
ATOM     21  N   UNL     1      -0.183  11.248  19.549  0.00  0.00    +0.000 NA
ATOM     22  H   UNL     1      -1.122  10.894  19.367  0.00  0.00    +0.000 HD
BRANCH  21  23
ATOM     23  S   UNL     1      -0.284  12.849  20.117  0.00  0.00    +0.000 S 
ATOM     24  O   UNL     1       0.841  13.207  20.941  0.00  0.00    +0.000 OA
ATOM     25  O   UNL     1      -0.640  13.642  18.958  0.00  0.00    +0.000 OA
BRANCH  23  26
ATOM     26  C   UNL     1      -1.754  12.772  21.122  0.00  0.00    +0.000 A 
ATOM     27  C   UNL     1      -3.025  13.105  20.619  0.00  0.00    +0.000 A 
ATOM     28  C   UNL     1      -4.126  13.034  21.477  0.00  0.00    +0.000 A 
ATOM     29  C   UNL     1      -3.950  12.633  22.802  0.00  0.00    +0.000 A 
ATOM     30  F   UNL     1      -5.005  12.576  23.625  0.00  0.00    +0.000 F 
ATOM     31  C   UNL     1      -2.695  12.287  23.290  0.00  0.00    +0.000 A 
ATOM     32  C   UNL     1      -1.596  12.349  22.444  0.00  0.00    +0.000 A 
ENDBRANCH  23  26
ENDBRANCH  21  23
ENDBRANCH  18  21
TORSDOF 4
ENDMDL
MODEL 7
REMARK VINA RESULT:      -7.5      1.225      1.538
REMARK  Name = 
REMARK  5 active torsions:
REMARK  status: ('A' for Active; 'I' for Inactive)
REMARK    1  A    between atoms: C_1  and  C_2
REMARK    2  A    between atoms: C_9  and  O_10
REMARK    3  A    between atoms: C_19  and  N_20
REMARK    4  A    between atoms: N_20  and  S_21
REMARK    5  A    between atoms: S_21  and  C_24
REMARK                            x       y       z     vdW  Elec       q    Type
REMARK                         _______ _______ _______ _____ _____    ______ ____
ROOT
ATOM      1  C   UNL     1      -0.145   9.182  18.040  0.00  0.00    +0.000 C 
ATOM      2  C   UNL     1       0.984   9.664  18.994  0.00  0.00    +0.000 C 
ATOM      3  C   UNL     1       2.281  10.030  18.265  0.00  0.00    +0.000 C 
ATOM      4  C   UNL     1       2.875   8.845  17.527  0.00  0.00    +0.000 C 
ATOM      5  C   UNL     1       3.169   7.678  18.480  0.00  0.00    +0.000 C 
ATOM      6  C   UNL     1       3.780   6.480  17.775  0.00  0.00    +0.000 A 
ATOM      7  C   UNL     1       4.611   6.647  16.649  0.00  0.00    +0.000 A 
ATOM      8  C   UNL     1       5.194   5.557  16.008  0.00  0.00    +0.000 A 
ATOM      9  C   UNL     1       4.966   4.286  16.508  0.00  0.00    +0.000 A 
ATOM     10  C   UNL     1       4.175   4.094  17.634  0.00  0.00    +0.000 A 
ATOM     11  C   UNL     1       3.582   5.187  18.289  0.00  0.00    +0.000 A 
ATOM     12  C   UNL     1       2.696   4.927  19.488  0.00  0.00    +0.000 C 
ATOM     13  C   UNL     1       2.304   6.179  20.284  0.00  0.00    +0.000 C 
ATOM     14  C   UNL     1       1.909   7.304  19.326  0.00  0.00    +0.000 C 
ATOM     15  C   UNL     1       1.388   8.574  20.026  0.00  0.00    +0.000 C 
ATOM     16  C   UNL     1       0.186   8.514  20.961  0.00  0.00    +0.000 C 
ATOM     17  C   UNL     1      -0.320   9.975  21.005  0.00  0.00    +0.000 C 
ATOM     18  C   UNL     1       0.470  10.774  19.926  0.00  0.00    +0.000 C 
ENDROOT
BRANCH   9  19
ATOM     19  O   UNL     1       5.513   3.190  15.906  0.00  0.00    +0.000 OA
ATOM     20  H   UNL     1       5.109   2.395  16.292  0.00  0.00    +0.000 HD
ENDBRANCH   9  19
BRANCH  18  21
ATOM     21  N   UNL     1      -0.415  11.774  19.294  0.00  0.00    +0.000 NA
ATOM     22  H   UNL     1      -1.064  11.409  18.597  0.00  0.00    +0.000 HD
BRANCH  21  23
ATOM     23  S   UNL     1      -1.149  13.066  20.125  0.00  0.00    +0.000 S 
ATOM     24  O   UNL     1      -0.782  13.096  21.517  0.00  0.00    +0.000 OA
ATOM     25  O   UNL     1      -0.952  14.225  19.278  0.00  0.00    +0.000 OA
BRANCH  23  26
ATOM     26  C   UNL     1      -2.874  12.643  19.976  0.00  0.00    +0.000 A 
ATOM     27  C   UNL     1      -3.387  11.971  18.852  0.00  0.00    +0.000 A 
ATOM     28  C   UNL     1      -4.755  11.690  18.805  0.00  0.00    +0.000 A 
ATOM     29  C   UNL     1      -5.580  12.071  19.863  0.00  0.00    +0.000 A 
ATOM     30  F   UNL     1      -6.893  11.810  19.811  0.00  0.00    +0.000 F 
ATOM     31  C   UNL     1      -5.066  12.719  20.981  0.00  0.00    +0.000 A 
ATOM     32  C   UNL     1      -3.707  12.997  21.040  0.00  0.00    +0.000 A 
ENDBRANCH  23  26
ENDBRANCH  21  23
ENDBRANCH  18  21
TORSDOF 4
ENDMDL
MODEL 8
REMARK VINA RESULT:      -7.5      3.980      5.378
REMARK  Name = 
REMARK  5 active torsions:
REMARK  status: ('A' for Active; 'I' for Inactive)
REMARK    1  A    between atoms: C_1  and  C_2
REMARK    2  A    between atoms: C_9  and  O_10
REMARK    3  A    between atoms: C_19  and  N_20
REMARK    4  A    between atoms: N_20  and  S_21
REMARK    5  A    between atoms: S_21  and  C_24
REMARK                            x       y       z     vdW  Elec       q    Type
REMARK                         _______ _______ _______ _____ _____    ______ ____
ROOT
ATOM      1  C   UNL     1      -2.279  12.257  19.765  0.00  0.00    +0.000 C 
ATOM      2  C   UNL     1      -0.985  12.918  20.321  0.00  0.00    +0.000 C 
ATOM      3  C   UNL     1       0.123  13.063  19.273  0.00  0.00    +0.000 C 
ATOM      4  C   UNL     1       0.574  11.719  18.732  0.00  0.00    +0.000 C 
ATOM      5  C   UNL     1       1.085  10.802  19.852  0.00  0.00    +0.000 C 
ATOM      6  C   UNL     1       1.561   9.454  19.342  0.00  0.00    +0.000 A 
ATOM      7  C   UNL     1       2.135   9.324  18.061  0.00  0.00    +0.000 A 
ATOM      8  C   UNL     1       2.594   8.097  17.591  0.00  0.00    +0.000 A 
ATOM      9  C   UNL     1       2.502   6.988  18.416  0.00  0.00    +0.000 A 
ATOM     10  C   UNL     1       1.967   7.092  19.694  0.00  0.00    +0.000 A 
ATOM     11  C   UNL     1       1.502   8.326  20.178  0.00  0.00    +0.000 A 
ATOM     12  C   UNL     1       0.891   8.384  21.561  0.00  0.00    +0.000 C 
ATOM     13  C   UNL     1       0.647   9.800  22.100  0.00  0.00    +0.000 C 
ATOM     14  C   UNL     1       0.038  10.677  21.006  0.00  0.00    +0.000 C 
ATOM     15  C   UNL     1      -0.353  12.092  21.476  0.00  0.00    +0.000 C 
ATOM     16  C   UNL     1      -1.332  12.291  22.627  0.00  0.00    +0.000 C 
ATOM     17  C   UNL     1      -1.848  13.735  22.426  0.00  0.00    +0.000 C 
ATOM     18  C   UNL     1      -1.317  14.233  21.048  0.00  0.00    +0.000 C 
ENDROOT
BRANCH   9  19
ATOM     19  O   UNL     1       2.934   5.764  17.991  0.00  0.00    +0.000 OA
ATOM     20  H   UNL     1       2.500   5.083  18.530  0.00  0.00    +0.000 HD
ENDBRANCH   9  19
BRANCH  18  21
ATOM     21  N   UNL     1      -2.336  15.080  20.394  0.00  0.00    +0.000 NA
ATOM     22  H   UNL     1      -3.291  14.726  20.430  0.00  0.00    +0.000 HD
BRANCH  21  23
ATOM     23  S   UNL     1      -2.361  16.780  20.473  0.00  0.00    +0.000 S 
ATOM     24  O   UNL     1      -3.623  17.326  20.049  0.00  0.00    +0.000 OA
ATOM     25  O   UNL     1      -1.805  17.109  21.770  0.00  0.00    +0.000 OA
BRANCH  23  26
ATOM     26  C   UNL     1      -1.102  17.204  19.284  0.00  0.00    +0.000 A 
ATOM     27  C   UNL     1      -1.395  17.903  18.099  0.00  0.00    +0.000 A 
ATOM     28  C   UNL     1      -0.353  18.183  17.210  0.00  0.00    +0.000 A 
ATOM     29  C   UNL     1       0.946  17.773  17.511  0.00  0.00    +0.000 A 
ATOM     30  F   UNL     1       1.941  18.033  16.653  0.00  0.00    +0.000 F 
ATOM     31  C   UNL     1       1.234  17.099  18.693  0.00  0.00    +0.000 A 
ATOM     32  C   UNL     1       0.207  16.822  19.584  0.00  0.00    +0.000 A 
ENDBRANCH  23  26
ENDBRANCH  21  23
ENDBRANCH  18  21
TORSDOF 4
ENDMDL
MODEL 9
REMARK VINA RESULT:      -7.5      3.660      4.763
REMARK  Name = 
REMARK  5 active torsions:
REMARK  status: ('A' for Active; 'I' for Inactive)
REMARK    1  A    between atoms: C_1  and  C_2
REMARK    2  A    between atoms: C_9  and  O_10
REMARK    3  A    between atoms: C_19  and  N_20
REMARK    4  A    between atoms: N_20  and  S_21
REMARK    5  A    between atoms: S_21  and  C_24
REMARK                            x       y       z     vdW  Elec       q    Type
REMARK                         _______ _______ _______ _____ _____    ______ ____
ROOT
ATOM      1  C   UNL     1       1.521  10.352  21.851  0.00  0.00    +0.000 C 
ATOM      2  C   UNL     1       0.312   9.848  21.013  0.00  0.00    +0.000 C 
ATOM      3  C   UNL     1      -0.202   8.473  21.451  0.00  0.00    +0.000 C 
ATOM      4  C   UNL     1       0.854   7.394  21.297  0.00  0.00    +0.000 C 
ATOM      5  C   UNL     1       1.344   7.287  19.846  0.00  0.00    +0.000 C 
ATOM      6  C   UNL     1       2.391   6.204  19.654  0.00  0.00    +0.000 A 
ATOM      7  C   UNL     1       2.378   5.035  20.441  0.00  0.00    +0.000 A 
ATOM      8  C   UNL     1       3.319   4.026  20.259  0.00  0.00    +0.000 A 
ATOM      9  C   UNL     1       4.273   4.172  19.265  0.00  0.00    +0.000 A 
ATOM     10  C   UNL     1       4.292   5.301  18.455  0.00  0.00    +0.000 A 
ATOM     11  C   UNL     1       3.346   6.324  18.630  0.00  0.00    +0.000 A 
ATOM     12  C   UNL     1       3.429   7.553  17.751  0.00  0.00    +0.000 C 
ATOM     13  C   UNL     1       2.218   8.491  17.838  0.00  0.00    +0.000 C 
ATOM     14  C   UNL     1       1.804   8.677  19.298  0.00  0.00    +0.000 C 
ATOM     15  C   UNL     1       0.664   9.693  19.506  0.00  0.00    +0.000 C 
ATOM     16  C   UNL     1       0.805  11.134  19.030  0.00  0.00    +0.000 C 
ATOM     17  C   UNL     1      -0.242  11.904  19.868  0.00  0.00    +0.000 C 
ATOM     18  C   UNL     1      -0.788  10.921  20.948  0.00  0.00    +0.000 C 
ENDROOT
BRANCH   9  19
ATOM     19  O   UNL     1       5.219   3.209  19.058  0.00  0.00    +0.000 OA
ATOM     20  H   UNL     1       5.904   3.574  18.474  0.00  0.00    +0.000 HD
ENDBRANCH   9  19
BRANCH  18  21
ATOM     21  N   UNL     1      -1.038  11.650  22.209  0.00  0.00    +0.000 NA
ATOM     22  H   UNL     1      -0.276  12.246  22.531  0.00  0.00    +0.000 HD
BRANCH  21  23
ATOM     23  S   UNL     1      -2.526  12.365  22.622  0.00  0.00    +0.000 S 
ATOM     24  O   UNL     1      -3.320  12.680  21.463  0.00  0.00    +0.000 OA
ATOM     25  O   UNL     1      -3.060  11.543  23.689  0.00  0.00    +0.000 OA
BRANCH  23  26
ATOM     26  C   UNL     1      -1.985  13.875  23.398  0.00  0.00    +0.000 A 
ATOM     27  C   UNL     1      -0.838  14.569  22.971  0.00  0.00    +0.000 A 
ATOM     28  C   UNL     1      -0.471  15.738  23.643  0.00  0.00    +0.000 A 
ATOM     29  C   UNL     1      -1.243  16.197  24.711  0.00  0.00    +0.000 A 
ATOM     30  F   UNL     1      -0.885  17.312  25.360  0.00  0.00    +0.000 F 
ATOM     31  C   UNL     1      -2.388  15.519  25.117  0.00  0.00    +0.000 A 
ATOM     32  C   UNL     1      -2.763  14.360  24.452  0.00  0.00    +0.000 A 
ENDBRANCH  23  26
ENDBRANCH  21  23
ENDBRANCH  18  21
TORSDOF 4
ENDMDL
