MODEL 1
REMARK VINA RESULT:      -8.1      0.000      0.000
REMARK  Name = 
REMARK  2 active torsions:
REMARK  status: ('A' for Active; 'I' for Inactive)
REMARK    1  A    between atoms: C_7  and  C_8
REMARK    2  A    between atoms: C_13  and  C_14
REMARK                            x       y       z     vdW  Elec       q    Type
REMARK                         _______ _______ _______ _____ _____    ______ ____
ROOT
ATOM      1  N   UNL     1       4.837   2.276  19.659  0.00  0.00    +0.000 N 
ATOM      2  C   UNL     1       3.754   3.008  20.052  0.00  0.00    +0.000 A 
ATOM      3  N   UNL     1       2.837   2.332  20.699  0.00  0.00    +0.000 NA
ATOM      4  C   UNL     1       1.698   2.982  21.130  0.00  0.00    +0.000 A 
ATOM      5  C   UNL     1       1.458   4.285  20.918  0.00  0.00    +0.000 A 
ATOM      6  N   UNL     1       2.401   5.020  20.222  0.00  0.00    +0.000 N 
ATOM      7  C   UNL     1       2.427   6.336  19.812  0.00  0.00    +0.000 A 
ATOM      8  N   UNL     1       3.545   6.599  19.160  0.00  0.00    +0.000 NA
ATOM      9  C   UNL     1       4.251   5.418  19.119  0.00  0.00    +0.000 A 
ATOM     10  C   UNL     1       3.563   4.419  19.782  0.00  0.00    +0.000 A 
ATOM     11  H   UNL     1       4.659   1.281  19.727  0.00  0.00    +0.000 HD
ATOM     12  H   UNL     1       5.236   2.547  18.769  0.00  0.00    +0.000 HD
ENDROOT
BRANCH   9  13
ATOM     13  C   UNL     1       5.516   5.356  18.379  0.00  0.00    +0.000 A 
ATOM     14  C   UNL     1       6.783   5.593  18.863  0.00  0.00    +0.000 A 
ATOM     15  N   UNL     1       7.681   5.299  17.875  0.00  0.00    +0.000 N 
ATOM     16  C   UNL     1       7.017   4.988  16.712  0.00  0.00    +0.000 A 
ATOM     17  C   UNL     1       7.531   4.677  15.448  0.00  0.00    +0.000 A 
ATOM     18  C   UNL     1       6.619   4.437  14.418  0.00  0.00    +0.000 A 
ATOM     19  C   UNL     1       5.247   4.490  14.651  0.00  0.00    +0.000 A 
ATOM     20  C   UNL     1       4.751   4.773  15.930  0.00  0.00    +0.000 A 
ATOM     21  C   UNL     1       5.648   5.039  16.989  0.00  0.00    +0.000 A 
ATOM     22  H   UNL     1       8.687   5.335  17.968  0.00  0.00    +0.000 HD
ENDBRANCH   9  13
BRANCH   7  23
ATOM     23  C   UNL     1       1.311   7.360  20.004  0.00  0.00    +0.000 C 
ATOM     24  C   UNL     1       1.427   8.197  21.316  0.00  0.00    +0.000 C 
ATOM     25  C   UNL     1       0.969   9.425  20.506  0.00  0.00    +0.000 C 
ATOM     26  C   UNL     1       1.550   8.719  19.269  0.00  0.00    +0.000 C 
ENDBRANCH   7  23
TORSDOF 2
ENDMDL
MODEL 2
REMARK VINA RESULT:      -8.1      1.637      5.692
REMARK  Name = 
REMARK  2 active torsions:
REMARK  status: ('A' for Active; 'I' for Inactive)
REMARK    1  A    between atoms: C_7  and  C_8
REMARK    2  A    between atoms: C_13  and  C_14
REMARK                            x       y       z     vdW  Elec       q    Type
REMARK                         _______ _______ _______ _____ _____    ______ ____
ROOT
ATOM      1  N   UNL     1       0.662   3.651  20.219  0.00  0.00    +0.000 N 
ATOM      2  C   UNL     1       1.704   3.256  19.431  0.00  0.00    +0.000 A 
ATOM      3  N   UNL     1       1.762   1.968  19.199  0.00  0.00    +0.000 NA
ATOM      4  C   UNL     1       2.787   1.469  18.420  0.00  0.00    +0.000 A 
ATOM      5  C   UNL     1       3.752   2.229  17.881  0.00  0.00    +0.000 A 
ATOM      6  N   UNL     1       3.726   3.591  18.123  0.00  0.00    +0.000 N 
ATOM      7  C   UNL     1       4.579   4.610  17.760  0.00  0.00    +0.000 A 
ATOM      8  N   UNL     1       4.151   5.768  18.231  0.00  0.00    +0.000 NA
ATOM      9  C   UNL     1       3.006   5.490  18.943  0.00  0.00    +0.000 A 
ATOM     10  C   UNL     1       2.714   4.140  18.885  0.00  0.00    +0.000 A 
ATOM     11  H   UNL     1       0.230   2.864  20.688  0.00  0.00    +0.000 HD
ATOM     12  H   UNL     1       0.866   4.421  20.844  0.00  0.00    +0.000 HD
ENDROOT
BRANCH   9  13
ATOM     13  C   UNL     1       2.329   6.568  19.671  0.00  0.00    +0.000 A 
ATOM     14  C   UNL     1       1.872   6.545  20.970  0.00  0.00    +0.000 A 
ATOM     15  N   UNL     1       1.425   7.796  21.289  0.00  0.00    +0.000 N 
ATOM     16  C   UNL     1       1.469   8.610  20.182  0.00  0.00    +0.000 A 
ATOM     17  C   UNL     1       1.064   9.942  20.037  0.00  0.00    +0.000 A 
ATOM     18  C   UNL     1       1.187  10.523  18.774  0.00  0.00    +0.000 A 
ATOM     19  C   UNL     1       1.712   9.804  17.703  0.00  0.00    +0.000 A 
ATOM     20  C   UNL     1       2.141   8.481  17.875  0.00  0.00    +0.000 A 
ATOM     21  C   UNL     1       2.012   7.858  19.137  0.00  0.00    +0.000 A 
ATOM     22  H   UNL     1       1.079   8.082  22.196  0.00  0.00    +0.000 HD
ENDBRANCH   9  13
BRANCH   7  23
ATOM     23  C   UNL     1       5.884   4.456  16.981  0.00  0.00    +0.000 C 
ATOM     24  C   UNL     1       5.693   4.089  15.477  0.00  0.00    +0.000 C 
ATOM     25  C   UNL     1       6.850   5.053  15.153  0.00  0.00    +0.000 C 
ATOM     26  C   UNL     1       6.476   5.799  16.444  0.00  0.00    +0.000 C 
ENDBRANCH   7  23
TORSDOF 2
ENDMDL
MODEL 3
REMARK VINA RESULT:      -8.0      1.261      1.455
REMARK  Name = 
REMARK  2 active torsions:
REMARK  status: ('A' for Active; 'I' for Inactive)
REMARK    1  A    between atoms: C_7  and  C_8
REMARK    2  A    between atoms: C_13  and  C_14
REMARK                            x       y       z     vdW  Elec       q    Type
REMARK                         _______ _______ _______ _____ _____    ______ ____
ROOT
ATOM      1  N   UNL     1       5.271   3.410  18.975  0.00  0.00    +0.000 N 
ATOM      2  C   UNL     1       4.171   4.137  19.330  0.00  0.00    +0.000 A 
ATOM      3  N   UNL     1       3.380   3.553  20.195  0.00  0.00    +0.000 NA
ATOM      4  C   UNL     1       2.235   4.204  20.608  0.00  0.00    +0.000 A 
ATOM      5  C   UNL     1       1.867   5.417  20.168  0.00  0.00    +0.000 A 
ATOM      6  N   UNL     1       2.675   6.051  19.241  0.00  0.00    +0.000 N 
ATOM      7  C   UNL     1       2.551   7.252  18.577  0.00  0.00    +0.000 A 
ATOM      8  N   UNL     1       3.578   7.445  17.767  0.00  0.00    +0.000 NA
ATOM      9  C   UNL     1       4.374   6.328  17.887  0.00  0.00    +0.000 A 
ATOM     10  C   UNL     1       3.838   5.446  18.806  0.00  0.00    +0.000 A 
ATOM     11  H   UNL     1       5.185   2.442  19.260  0.00  0.00    +0.000 HD
ATOM     12  H   UNL     1       5.561   3.515  18.011  0.00  0.00    +0.000 HD
ENDROOT
BRANCH   9  13
ATOM     13  C   UNL     1       5.565   6.195  17.041  0.00  0.00    +0.000 A 
ATOM     14  C   UNL     1       6.786   6.808  17.209  0.00  0.00    +0.000 A 
ATOM     15  N   UNL     1       7.649   6.307  16.276  0.00  0.00    +0.000 N 
ATOM     16  C   UNL     1       6.981   5.464  15.420  0.00  0.00    +0.000 A 
ATOM     17  C   UNL     1       7.454   4.776  14.296  0.00  0.00    +0.000 A 
ATOM     18  C   UNL     1       6.539   4.007  13.574  0.00  0.00    +0.000 A 
ATOM     19  C   UNL     1       5.208   3.918  13.973  0.00  0.00    +0.000 A 
ATOM     20  C   UNL     1       4.760   4.589  15.119  0.00  0.00    +0.000 A 
ATOM     21  C   UNL     1       5.657   5.390  15.860  0.00  0.00    +0.000 A 
ATOM     22  H   UNL     1       8.630   6.543  16.197  0.00  0.00    +0.000 HD
ENDBRANCH   9  13
BRANCH   7  23
ATOM     23  C   UNL     1       1.376   8.220  18.680  0.00  0.00    +0.000 C 
ATOM     24  C   UNL     1       1.334   9.038  20.008  0.00  0.00    +0.000 C 
ATOM     25  C   UNL     1       0.894  10.258  19.177  0.00  0.00    +0.000 C 
ATOM     26  C   UNL     1       1.616   9.601  17.989  0.00  0.00    +0.000 C 
ENDBRANCH   7  23
TORSDOF 2
ENDMDL
MODEL 4
REMARK VINA RESULT:      -7.3      2.127      6.620
REMARK  Name = 
REMARK  2 active torsions:
REMARK  status: ('A' for Active; 'I' for Inactive)
REMARK    1  A    between atoms: C_7  and  C_8
REMARK    2  A    between atoms: C_13  and  C_14
REMARK                            x       y       z     vdW  Elec       q    Type
REMARK                         _______ _______ _______ _____ _____    ______ ____
ROOT
ATOM      1  N   UNL     1       5.733   4.816  19.956  0.00  0.00    +0.000 N 
ATOM      2  C   UNL     1       6.221   5.179  18.734  0.00  0.00    +0.000 A 
ATOM      3  N   UNL     1       7.168   6.084  18.766  0.00  0.00    +0.000 NA
ATOM      4  C   UNL     1       7.719   6.525  17.579  0.00  0.00    +0.000 A 
ATOM      5  C   UNL     1       7.337   6.085  16.371  0.00  0.00    +0.000 A 
ATOM      6  N   UNL     1       6.327   5.141  16.306  0.00  0.00    +0.000 N 
ATOM      7  C   UNL     1       5.693   4.540  15.241  0.00  0.00    +0.000 A 
ATOM      8  N   UNL     1       4.770   3.694  15.664  0.00  0.00    +0.000 NA
ATOM      9  C   UNL     1       4.785   3.770  17.039  0.00  0.00    +0.000 A 
ATOM     10  C   UNL     1       5.753   4.660  17.465  0.00  0.00    +0.000 A 
ATOM     11  H   UNL     1       6.017   5.466  20.679  0.00  0.00    +0.000 HD
ATOM     12  H   UNL     1       4.742   4.608  19.977  0.00  0.00    +0.000 HD
ENDROOT
BRANCH   9  13
ATOM     13  C   UNL     1       3.803   3.005  17.816  0.00  0.00    +0.000 A 
ATOM     14  C   UNL     1       3.612   1.642  17.816  0.00  0.00    +0.000 A 
ATOM     15  N   UNL     1       2.689   1.338  18.777  0.00  0.00    +0.000 N 
ATOM     16  C   UNL     1       2.182   2.493  19.325  0.00  0.00    +0.000 A 
ATOM     17  C   UNL     1       1.188   2.657  20.296  0.00  0.00    +0.000 A 
ATOM     18  C   UNL     1       0.833   3.960  20.648  0.00  0.00    +0.000 A 
ATOM     19  C   UNL     1       1.463   5.056  20.061  0.00  0.00    +0.000 A 
ATOM     20  C   UNL     1       2.478   4.871  19.113  0.00  0.00    +0.000 A 
ATOM     21  C   UNL     1       2.846   3.564  18.723  0.00  0.00    +0.000 A 
ATOM     22  H   UNL     1       2.392   0.405  19.031  0.00  0.00    +0.000 HD
ENDBRANCH   9  13
BRANCH   7  23
ATOM     23  C   UNL     1       5.943   4.832  13.763  0.00  0.00    +0.000 C 
ATOM     24  C   UNL     1       7.445   4.777  13.344  0.00  0.00    +0.000 C 
ATOM     25  C   UNL     1       6.998   4.089  12.041  0.00  0.00    +0.000 C 
ATOM     26  C   UNL     1       5.770   3.594  12.824  0.00  0.00    +0.000 C 
ENDBRANCH   7  23
TORSDOF 2
ENDMDL
MODEL 5
REMARK VINA RESULT:      -7.3      1.915      6.176
REMARK  Name = 
REMARK  2 active torsions:
REMARK  status: ('A' for Active; 'I' for Inactive)
REMARK    1  A    between atoms: C_7  and  C_8
REMARK    2  A    between atoms: C_13  and  C_14
REMARK                            x       y       z     vdW  Elec       q    Type
REMARK                         _______ _______ _______ _____ _____    ______ ____
ROOT
ATOM      1  N   UNL     1       4.692   7.387  16.269  0.00  0.00    +0.000 N 
ATOM      2  C   UNL     1       4.570   6.136  16.803  0.00  0.00    +0.000 A 
ATOM      3  N   UNL     1       5.339   5.227  16.257  0.00  0.00    +0.000 NA
ATOM      4  C   UNL     1       5.281   3.928  16.721  0.00  0.00    +0.000 A 
ATOM      5  C   UNL     1       4.468   3.525  17.709  0.00  0.00    +0.000 A 
ATOM      6  N   UNL     1       3.632   4.461  18.293  0.00  0.00    +0.000 N 
ATOM      7  C   UNL     1       2.670   4.354  19.273  0.00  0.00    +0.000 A 
ATOM      8  N   UNL     1       2.110   5.528  19.507  0.00  0.00    +0.000 NA
ATOM      9  C   UNL     1       2.703   6.414  18.636  0.00  0.00    +0.000 A 
ATOM     10  C   UNL     1       3.661   5.775  17.872  0.00  0.00    +0.000 A 
ATOM     11  H   UNL     1       5.188   7.368  15.386  0.00  0.00    +0.000 HD
ATOM     12  H   UNL     1       3.833   7.921  16.230  0.00  0.00    +0.000 HD
ENDROOT
BRANCH   9  13
ATOM     13  C   UNL     1       2.234   7.803  18.586  0.00  0.00    +0.000 A 
ATOM     14  C   UNL     1       2.287   8.669  17.517  0.00  0.00    +0.000 A 
ATOM     15  N   UNL     1       1.624   9.813  17.859  0.00  0.00    +0.000 N 
ATOM     16  C   UNL     1       1.241   9.760  19.178  0.00  0.00    +0.000 A 
ATOM     17  C   UNL     1       0.588  10.723  19.957  0.00  0.00    +0.000 A 
ATOM     18  C   UNL     1       0.351  10.420  21.299  0.00  0.00    +0.000 A 
ATOM     19  C   UNL     1       0.737   9.193  21.834  0.00  0.00    +0.000 A 
ATOM     20  C   UNL     1       1.361   8.230  21.031  0.00  0.00    +0.000 A 
ATOM     21  C   UNL     1       1.632   8.514  19.674  0.00  0.00    +0.000 A 
ATOM     22  H   UNL     1       1.463  10.604  17.248  0.00  0.00    +0.000 HD
ENDBRANCH   9  13
BRANCH   7  23
ATOM     23  C   UNL     1       2.232   3.068  19.969  0.00  0.00    +0.000 C 
ATOM     24  C   UNL     1       2.799   2.895  21.413  0.00  0.00    +0.000 C 
ATOM     25  C   UNL     1       1.426   2.330  21.823  0.00  0.00    +0.000 C 
ATOM     26  C   UNL     1       0.837   3.155  20.667  0.00  0.00    +0.000 C 
ENDBRANCH   7  23
TORSDOF 2
ENDMDL
MODEL 6
REMARK VINA RESULT:      -6.8      2.068      5.885
REMARK  Name = 
REMARK  2 active torsions:
REMARK  status: ('A' for Active; 'I' for Inactive)
REMARK    1  A    between atoms: C_7  and  C_8
REMARK    2  A    between atoms: C_13  and  C_14
REMARK                            x       y       z     vdW  Elec       q    Type
REMARK                         _______ _______ _______ _____ _____    ______ ____
ROOT
ATOM      1  N   UNL     1       3.588   3.289  16.645  0.00  0.00    +0.000 N 
ATOM      2  C   UNL     1       4.708   4.002  16.325  0.00  0.00    +0.000 A 
ATOM      3  N   UNL     1       5.395   3.525  15.318  0.00  0.00    +0.000 NA
ATOM      4  C   UNL     1       6.551   4.170  14.924  0.00  0.00    +0.000 A 
ATOM      5  C   UNL     1       7.030   5.271  15.522  0.00  0.00    +0.000 A 
ATOM      6  N   UNL     1       6.333   5.788  16.601  0.00  0.00    +0.000 N 
ATOM      7  C   UNL     1       6.585   6.853  17.437  0.00  0.00    +0.000 A 
ATOM      8  N   UNL     1       5.633   6.967  18.346  0.00  0.00    +0.000 NA
ATOM      9  C   UNL     1       4.756   5.932  18.113  0.00  0.00    +0.000 A 
ATOM     10  C   UNL     1       5.166   5.186  17.024  0.00  0.00    +0.000 A 
ATOM     11  H   UNL     1       3.588   2.378  16.202  0.00  0.00    +0.000 HD
ATOM     12  H   UNL     1       3.373   3.249  17.633  0.00  0.00    +0.000 HD
ENDROOT
BRANCH   9  13
ATOM     13  C   UNL     1       3.620   5.728  19.018  0.00  0.00    +0.000 A 
ATOM     14  C   UNL     1       2.611   6.617  19.311  0.00  0.00    +0.000 A 
ATOM     15  N   UNL     1       1.691   5.979  20.095  0.00  0.00    +0.000 N 
ATOM     16  C   UNL     1       2.141   4.722  20.422  0.00  0.00    +0.000 A 
ATOM     17  C   UNL     1       1.554   3.749  21.239  0.00  0.00    +0.000 A 
ATOM     18  C   UNL     1       2.255   2.557  21.434  0.00  0.00    +0.000 A 
ATOM     19  C   UNL     1       3.487   2.343  20.820  0.00  0.00    +0.000 A 
ATOM     20  C   UNL     1       4.044   3.317  19.981  0.00  0.00    +0.000 A 
ATOM     21  C   UNL     1       3.368   4.541  19.778  0.00  0.00    +0.000 A 
ATOM     22  H   UNL     1       0.820   6.377  20.421  0.00  0.00    +0.000 HD
ENDBRANCH   9  13
BRANCH   7  23
ATOM     23  C   UNL     1       7.814   7.758  17.398  0.00  0.00    +0.000 C 
ATOM     24  C   UNL     1       7.494   9.280  17.535  0.00  0.00    +0.000 C 
ATOM     25  C   UNL     1       8.744   9.404  18.426  0.00  0.00    +0.000 C 
ATOM     26  C   UNL     1       8.540   7.920  18.772  0.00  0.00    +0.000 C 
ENDBRANCH   7  23
TORSDOF 2
ENDMDL
MODEL 7
REMARK VINA RESULT:      -6.7      1.512      6.179
REMARK  Name = 
REMARK  2 active torsions:
REMARK  status: ('A' for Active; 'I' for Inactive)
REMARK    1  A    between atoms: C_7  and  C_8
REMARK    2  A    between atoms: C_13  and  C_14
REMARK                            x       y       z     vdW  Elec       q    Type
REMARK                         _______ _______ _______ _____ _____    ______ ____
ROOT
ATOM      1  N   UNL     1       0.686   5.372  20.477  0.00  0.00    +0.000 N 
ATOM      2  C   UNL     1       1.824   4.742  20.063  0.00  0.00    +0.000 A 
ATOM      3  N   UNL     1       1.977   3.524  20.520  0.00  0.00    +0.000 NA
ATOM      4  C   UNL     1       3.103   2.807  20.166  0.00  0.00    +0.000 A 
ATOM      5  C   UNL     1       4.074   3.288  19.376  0.00  0.00    +0.000 A 
ATOM      6  N   UNL     1       3.948   4.578  18.892  0.00  0.00    +0.000 N 
ATOM      7  C   UNL     1       4.776   5.358  18.115  0.00  0.00    +0.000 A 
ATOM      8  N   UNL     1       4.238   6.547  17.907  0.00  0.00    +0.000 NA
ATOM      9  C   UNL     1       3.043   6.550  18.591  0.00  0.00    +0.000 A 
ATOM     10  C   UNL     1       2.834   5.331  19.207  0.00  0.00    +0.000 A 
ATOM     11  H   UNL     1       0.252   4.885  21.253  0.00  0.00    +0.000 HD
ATOM     12  H   UNL     1       0.781   6.367  20.636  0.00  0.00    +0.000 HD
ENDROOT
BRANCH   9  13
ATOM     13  C   UNL     1       2.235   7.773  18.629  0.00  0.00    +0.000 A 
ATOM     14  C   UNL     1       1.839   8.551  17.564  0.00  0.00    +0.000 A 
ATOM     15  N   UNL     1       0.994   9.518  18.030  0.00  0.00    +0.000 N 
ATOM     16  C   UNL     1       0.924   9.462  19.402  0.00  0.00    +0.000 A 
ATOM     17  C   UNL     1       0.226  10.285  20.294  0.00  0.00    +0.000 A 
ATOM     18  C   UNL     1       0.362  10.024  21.659  0.00  0.00    +0.000 A 
ATOM     19  C   UNL     1       1.152   8.970  22.110  0.00  0.00    +0.000 A 
ATOM     20  C   UNL     1       1.818   8.137  21.201  0.00  0.00    +0.000 A 
ATOM     21  C   UNL     1       1.715   8.386  19.814  0.00  0.00    +0.000 A 
ATOM     22  H   UNL     1       0.512  10.201  17.460  0.00  0.00    +0.000 HD
ENDBRANCH   9  13
BRANCH   7  23
ATOM     23  C   UNL     1       6.161   4.967  17.603  0.00  0.00    +0.000 C 
ATOM     24  C   UNL     1       6.144   4.129  16.287  0.00  0.00    +0.000 C 
ATOM     25  C   UNL     1       7.367   4.942  15.821  0.00  0.00    +0.000 C 
ATOM     26  C   UNL     1       6.863   6.066  16.742  0.00  0.00    +0.000 C 
ENDBRANCH   7  23
TORSDOF 2
ENDMDL
MODEL 8
REMARK VINA RESULT:      -6.7      1.476      5.737
REMARK  Name = 
REMARK  2 active torsions:
REMARK  status: ('A' for Active; 'I' for Inactive)
REMARK    1  A    between atoms: C_7  and  C_8
REMARK    2  A    between atoms: C_13  and  C_14
REMARK                            x       y       z     vdW  Elec       q    Type
REMARK                         _______ _______ _______ _____ _____    ______ ____
ROOT
ATOM      1  N   UNL     1       1.757   4.060  21.417  0.00  0.00    +0.000 N 
ATOM      2  C   UNL     1       2.695   3.737  20.478  0.00  0.00    +0.000 A 
ATOM      3  N   UNL     1       3.135   2.505  20.540  0.00  0.00    +0.000 NA
ATOM      4  C   UNL     1       4.094   2.086  19.639  0.00  0.00    +0.000 A 
ATOM      5  C   UNL     1       4.621   2.874  18.690  0.00  0.00    +0.000 A 
ATOM      6  N   UNL     1       4.187   4.186  18.612  0.00  0.00    +0.000 N 
ATOM      7  C   UNL     1       4.559   5.234  17.800  0.00  0.00    +0.000 A 
ATOM      8  N   UNL     1       3.869   6.322  18.095  0.00  0.00    +0.000 NA
ATOM      9  C   UNL     1       3.048   5.979  19.146  0.00  0.00    +0.000 A 
ATOM     10  C   UNL     1       3.221   4.649  19.483  0.00  0.00    +0.000 A 
ATOM     11  H   UNL     1       1.717   3.367  22.155  0.00  0.00    +0.000 HD
ATOM     12  H   UNL     1       1.810   5.008  21.766  0.00  0.00    +0.000 HD
ENDROOT
BRANCH   9  13
ATOM     13  C   UNL     1       2.205   7.004  19.770  0.00  0.00    +0.000 A 
ATOM     14  C   UNL     1       1.551   6.932  20.979  0.00  0.00    +0.000 A 
ATOM     15  N   UNL     1       0.991   8.151  21.238  0.00  0.00    +0.000 N 
ATOM     16  C   UNL     1       1.165   8.988  20.161  0.00  0.00    +0.000 A 
ATOM     17  C   UNL     1       0.715  10.299  19.969  0.00  0.00    +0.000 A 
ATOM     18  C   UNL     1       1.003  10.912  18.748  0.00  0.00    +0.000 A 
ATOM     19  C   UNL     1       1.730  10.242  17.766  0.00  0.00    +0.000 A 
ATOM     20  C   UNL     1       2.199   8.941  17.989  0.00  0.00    +0.000 A 
ATOM     21  C   UNL     1       1.907   8.287  19.207  0.00  0.00    +0.000 A 
ATOM     22  H   UNL     1       0.490   8.400  22.081  0.00  0.00    +0.000 HD
ENDBRANCH   9  13
BRANCH   7  23
ATOM     23  C   UNL     1       5.659   5.206  16.741  0.00  0.00    +0.000 C 
ATOM     24  C   UNL     1       5.551   4.017  15.737  0.00  0.00    +0.000 C 
ATOM     25  C   UNL     1       5.971   4.994  14.623  0.00  0.00    +0.000 C 
ATOM     26  C   UNL     1       5.380   6.112  15.498  0.00  0.00    +0.000 C 
ENDBRANCH   7  23
TORSDOF 2
ENDMDL
MODEL 9
REMARK VINA RESULT:      -6.7      1.865      6.287
REMARK  Name = 
REMARK  2 active torsions:
REMARK  status: ('A' for Active; 'I' for Inactive)
REMARK    1  A    between atoms: C_7  and  C_8
REMARK    2  A    between atoms: C_13  and  C_14
REMARK                            x       y       z     vdW  Elec       q    Type
REMARK                         _______ _______ _______ _____ _____    ______ ____
ROOT
ATOM      1  N   UNL     1       5.448   7.951  17.220  0.00  0.00    +0.000 N 
ATOM      2  C   UNL     1       5.282   6.638  17.554  0.00  0.00    +0.000 A 
ATOM      3  N   UNL     1       6.277   5.854  17.218  0.00  0.00    +0.000 NA
ATOM      4  C   UNL     1       6.198   4.505  17.505  0.00  0.00    +0.000 A 
ATOM      5  C   UNL     1       5.147   3.932  18.110  0.00  0.00    +0.000 A 
ATOM      6  N   UNL     1       4.075   4.733  18.461  0.00  0.00    +0.000 N 
ATOM      7  C   UNL     1       2.857   4.444  19.038  0.00  0.00    +0.000 A 
ATOM      8  N   UNL     1       2.137   5.543  19.180  0.00  0.00    +0.000 NA
ATOM      9  C   UNL     1       2.893   6.567  18.655  0.00  0.00    +0.000 A 
ATOM     10  C   UNL     1       4.111   6.089  18.207  0.00  0.00    +0.000 A 
ATOM     11  H   UNL     1       6.209   8.074  16.562  0.00  0.00    +0.000 HD
ATOM     12  H   UNL     1       4.602   8.432  16.941  0.00  0.00    +0.000 HD
ENDROOT
BRANCH   9  13
ATOM     13  C   UNL     1       2.330   7.919  18.584  0.00  0.00    +0.000 A 
ATOM     14  C   UNL     1       2.354   8.783  17.512  0.00  0.00    +0.000 A 
ATOM     15  N   UNL     1       1.603   9.879  17.828  0.00  0.00    +0.000 N 
ATOM     16  C   UNL     1       1.186   9.804  19.136  0.00  0.00    +0.000 A 
ATOM     17  C   UNL     1       0.445  10.721  19.890  0.00  0.00    +0.000 A 
ATOM     18  C   UNL     1       0.189  10.407  21.226  0.00  0.00    +0.000 A 
ATOM     19  C   UNL     1       0.644   9.212  21.779  0.00  0.00    +0.000 A 
ATOM     20  C   UNL     1       1.357   8.292  21.000  0.00  0.00    +0.000 A 
ATOM     21  C   UNL     1       1.648   8.590  19.650  0.00  0.00    +0.000 A 
ATOM     22  H   UNL     1       1.406  10.654  17.208  0.00  0.00    +0.000 HD
ENDBRANCH   9  13
BRANCH   7  23
ATOM     23  C   UNL     1       2.345   3.056  19.412  0.00  0.00    +0.000 C 
ATOM     24  C   UNL     1       0.861   3.029  19.895  0.00  0.00    +0.000 C 
ATOM     25  C   UNL     1       0.688   1.718  19.105  0.00  0.00    +0.000 C 
ATOM     26  C   UNL     1       1.830   2.211  18.202  0.00  0.00    +0.000 C 
ENDBRANCH   7  23
TORSDOF 2
ENDMDL
