MODEL 1
REMARK VINA RESULT:      -7.9      0.000      0.000
REMARK  Name = 
REMARK  5 active torsions:
REMARK  status: ('A' for Active; 'I' for Inactive)
REMARK    1  A    between atoms: C_2  and  C_3
REMARK    2  A    between atoms: C_3  and  N_4
REMARK    3  A    between atoms: N_9  and  C_10
REMARK    4  A    between atoms: C_10  and  C_11
REMARK    5  A    between atoms: N_24  and  C_25
REMARK                            x       y       z     vdW  Elec       q    Type
REMARK                         _______ _______ _______ _____ _____    ______ ____
ROOT
ATOM      1  N   UNL     1       0.470  10.417  21.912  0.00  0.00    +0.000 N 
ATOM      2  C   UNL     1      -0.420  10.429  22.974  0.00  0.00    +0.000 A 
ATOM      3  O   UNL     1      -0.274   9.725  23.972  0.00  0.00    +0.000 OA
ATOM      4  C   UNL     1      -1.611  11.380  22.890  0.00  0.00    +0.000 A 
ATOM      5  O   UNL     1      -2.584  11.158  23.603  0.00  0.00    +0.000 OA
ATOM      6  N   UNL     1      -1.505  12.451  22.009  0.00  0.00    +0.000 N 
ATOM      7  C   UNL     1      -0.472  12.500  21.024  0.00  0.00    +0.000 A 
ATOM      8  C   UNL     1      -0.405  13.552  20.090  0.00  0.00    +0.000 A 
ATOM      9  C   UNL     1       0.570  13.578  19.092  0.00  0.00    +0.000 A 
ATOM     10  C   UNL     1       1.499  12.556  19.019  0.00  0.00    +0.000 A 
ATOM     11 CL   UNL     1       2.703  12.582  17.789  0.00  0.00    +0.000 Cl
ATOM     12  C   UNL     1       1.466  11.509  19.939  0.00  0.00    +0.000 A 
ATOM     13  C   UNL     1       0.486  11.464  20.950  0.00  0.00    +0.000 A 
ENDROOT
BRANCH   1  14
ATOM     14  C   UNL     1       1.496   9.376  21.939  0.00  0.00    +0.000 C 
BRANCH  14  16
ATOM     15  O   UNL     1      -0.136   7.871  21.065  0.00  0.00    +0.000 OA
ATOM     16  C   UNL     1       1.060   8.131  21.172  0.00  0.00    +0.000 C 
ATOM     17  N   UNL     1       2.113   7.359  20.699  0.00  0.00    +0.000 N 
ATOM     18  H   UNL     1       3.048   7.615  21.017  0.00  0.00    +0.000 HD
BRANCH  17  19
ATOM     19  C   UNL     1       1.990   6.150  19.977  0.00  0.00    +0.000 A 
ATOM     20  C   UNL     1       2.299   6.039  18.615  0.00  0.00    +0.000 A 
ATOM     21  C   UNL     1       2.085   4.842  17.925  0.00  0.00    +0.000 A 
ATOM     22  C   UNL     1       1.569   3.739  18.594  0.00  0.00    +0.000 A 
ATOM     23  C   UNL     1       1.305   3.834  19.956  0.00  0.00    +0.000 A 
ATOM     24  F   UNL     1       0.815   2.770  20.602  0.00  0.00    +0.000 F 
ATOM     25  C   UNL     1       1.524   5.021  20.654  0.00  0.00    +0.000 A 
ENDBRANCH  17  19
ENDBRANCH  14  16
ENDBRANCH   1  14
BRANCH   6  26
ATOM     26  C   UNL     1      -2.578  13.448  22.055  0.00  0.00    +0.000 C 
BRANCH  26  27
ATOM     27  C   UNL     1      -3.858  13.007  21.382  0.00  0.00    +0.000 A 
ATOM     28  C   UNL     1      -3.880  12.623  20.032  0.00  0.00    +0.000 A 
ATOM     29  C   UNL     1      -5.084  12.299  19.407  0.00  0.00    +0.000 A 
ATOM     30  C   UNL     1      -6.272  12.321  20.131  0.00  0.00    +0.000 A 
ATOM     31  C   UNL     1      -6.257  12.635  21.489  0.00  0.00    +0.000 A 
ATOM     32  C   UNL     1      -5.054  12.966  22.114  0.00  0.00    +0.000 A 
ENDBRANCH  26  27
ENDBRANCH   6  26
TORSDOF 5
ENDMDL
MODEL 2
REMARK VINA RESULT:      -7.7      1.441      2.456
REMARK  Name = 
REMARK  5 active torsions:
REMARK  status: ('A' for Active; 'I' for Inactive)
REMARK    1  A    between atoms: C_2  and  C_3
REMARK    2  A    between atoms: C_3  and  N_4
REMARK    3  A    between atoms: N_9  and  C_10
REMARK    4  A    between atoms: C_10  and  C_11
REMARK    5  A    between atoms: N_24  and  C_25
REMARK                            x       y       z     vdW  Elec       q    Type
REMARK                         _______ _______ _______ _____ _____    ______ ____
ROOT
ATOM      1  N   UNL     1       0.487  10.410  21.905  0.00  0.00    +0.000 N 
ATOM      2  C   UNL     1      -0.406  10.421  22.964  0.00  0.00    +0.000 A 
ATOM      3  O   UNL     1      -0.269   9.708  23.957  0.00  0.00    +0.000 OA
ATOM      4  C   UNL     1      -1.589  11.382  22.882  0.00  0.00    +0.000 A 
ATOM      5  O   UNL     1      -2.566  11.162  23.590  0.00  0.00    +0.000 OA
ATOM      6  N   UNL     1      -1.472  12.458  22.010  0.00  0.00    +0.000 N 
ATOM      7  C   UNL     1      -0.434  12.507  21.029  0.00  0.00    +0.000 A 
ATOM      8  C   UNL     1      -0.357  13.565  20.103  0.00  0.00    +0.000 A 
ATOM      9  C   UNL     1       0.623  13.591  19.108  0.00  0.00    +0.000 A 
ATOM     10  C   UNL     1       1.544  12.561  19.031  0.00  0.00    +0.000 A 
ATOM     11 CL   UNL     1       2.753  12.587  17.806  0.00  0.00    +0.000 Cl
ATOM     12  C   UNL     1       1.499  11.508  19.944  0.00  0.00    +0.000 A 
ATOM     13  C   UNL     1       0.515  11.464  20.951  0.00  0.00    +0.000 A 
ENDROOT
BRANCH   1  14
ATOM     14  C   UNL     1       1.506   9.361  21.928  0.00  0.00    +0.000 C 
BRANCH  14  16
ATOM     15  O   UNL     1      -0.137   7.884  21.024  0.00  0.00    +0.000 OA
ATOM     16  C   UNL     1       1.061   8.124  21.152  0.00  0.00    +0.000 C 
ATOM     17  N   UNL     1       2.109   7.335  20.696  0.00  0.00    +0.000 N 
ATOM     18  H   UNL     1       3.044   7.575  21.030  0.00  0.00    +0.000 HD
BRANCH  17  19
ATOM     19  C   UNL     1       1.979   6.128  19.969  0.00  0.00    +0.000 A 
ATOM     20  C   UNL     1       2.274   6.023  18.604  0.00  0.00    +0.000 A 
ATOM     21  C   UNL     1       2.053   4.829  17.911  0.00  0.00    +0.000 A 
ATOM     22  C   UNL     1       1.542   3.724  18.580  0.00  0.00    +0.000 A 
ATOM     23  C   UNL     1       1.291   3.814  19.945  0.00  0.00    +0.000 A 
ATOM     24  F   UNL     1       0.806   2.748  20.592  0.00  0.00    +0.000 F 
ATOM     25  C   UNL     1       1.517   4.997  20.646  0.00  0.00    +0.000 A 
ENDBRANCH  17  19
ENDBRANCH  14  16
ENDBRANCH   1  14
BRANCH   6  26
ATOM     26  C   UNL     1      -2.537  13.463  22.060  0.00  0.00    +0.000 C 
BRANCH  26  27
ATOM     27  C   UNL     1      -2.426  14.420  23.226  0.00  0.00    +0.000 A 
ATOM     28  C   UNL     1      -1.179  14.848  23.705  0.00  0.00    +0.000 A 
ATOM     29  C   UNL     1      -1.095  15.665  24.833  0.00  0.00    +0.000 A 
ATOM     30  C   UNL     1      -2.255  16.090  25.472  0.00  0.00    +0.000 A 
ATOM     31  C   UNL     1      -3.503  15.727  24.969  0.00  0.00    +0.000 A 
ATOM     32  C   UNL     1      -3.588  14.904  23.844  0.00  0.00    +0.000 A 
ENDBRANCH  26  27
ENDBRANCH   6  26
TORSDOF 5
ENDMDL
MODEL 3
REMARK VINA RESULT:      -7.7      3.153      4.840
REMARK  Name = 
REMARK  5 active torsions:
REMARK  status: ('A' for Active; 'I' for Inactive)
REMARK    1  A    between atoms: C_2  and  C_3
REMARK    2  A    between atoms: C_3  and  N_4
REMARK    3  A    between atoms: N_9  and  C_10
REMARK    4  A    between atoms: C_10  and  C_11
REMARK    5  A    between atoms: N_24  and  C_25
REMARK                            x       y       z     vdW  Elec       q    Type
REMARK                         _______ _______ _______ _____ _____    ______ ____
ROOT
ATOM      1  N   UNL     1      -2.251  12.471  19.915  0.00  0.00    +0.000 N 
ATOM      2  C   UNL     1      -1.421  12.894  20.940  0.00  0.00    +0.000 A 
ATOM      3  O   UNL     1      -0.261  13.257  20.750  0.00  0.00    +0.000 OA
ATOM      4  C   UNL     1      -1.998  12.923  22.353  0.00  0.00    +0.000 A 
ATOM      5  O   UNL     1      -1.217  12.928  23.299  0.00  0.00    +0.000 OA
ATOM      6  N   UNL     1      -3.383  12.954  22.471  0.00  0.00    +0.000 N 
ATOM      7  C   UNL     1      -4.228  12.678  21.352  0.00  0.00    +0.000 A 
ATOM      8  C   UNL     1      -5.628  12.645  21.489  0.00  0.00    +0.000 A 
ATOM      9  C   UNL     1      -6.457  12.323  20.412  0.00  0.00    +0.000 A 
ATOM     10  C   UNL     1      -5.895  12.038  19.181  0.00  0.00    +0.000 A 
ATOM     11 CL   UNL     1      -6.912  11.639  17.850  0.00  0.00    +0.000 Cl
ATOM     12  C   UNL     1      -4.511  12.077  19.013  0.00  0.00    +0.000 A 
ATOM     13  C   UNL     1      -3.661  12.396  20.090  0.00  0.00    +0.000 A 
ENDROOT
BRANCH   1  14
ATOM     14  C   UNL     1      -1.623  12.285  18.608  0.00  0.00    +0.000 C 
BRANCH  14  16
ATOM     15  O   UNL     1      -1.686   9.969  18.038  0.00  0.00    +0.000 OA
ATOM     16  C   UNL     1      -1.006  10.896  18.469  0.00  0.00    +0.000 C 
ATOM     17  N   UNL     1       0.306  10.812  18.917  0.00  0.00    +0.000 N 
ATOM     18  H   UNL     1       0.676  11.628  19.407  0.00  0.00    +0.000 HD
BRANCH  17  19
ATOM     19  C   UNL     1       1.104   9.645  18.921  0.00  0.00    +0.000 A 
ATOM     20  C   UNL     1       1.871   9.240  17.821  0.00  0.00    +0.000 A 
ATOM     21  C   UNL     1       2.581   8.036  17.844  0.00  0.00    +0.000 A 
ATOM     22  C   UNL     1       2.538   7.228  18.974  0.00  0.00    +0.000 A 
ATOM     23  C   UNL     1       1.814   7.651  20.083  0.00  0.00    +0.000 A 
ATOM     24  F   UNL     1       1.778   6.877  21.174  0.00  0.00    +0.000 F 
ATOM     25  C   UNL     1       1.110   8.855  20.072  0.00  0.00    +0.000 A 
ENDBRANCH  17  19
ENDBRANCH  14  16
ENDBRANCH   1  14
BRANCH   6  26
ATOM     26  C   UNL     1      -3.923  13.150  23.819  0.00  0.00    +0.000 C 
BRANCH  26  27
ATOM     27  C   UNL     1      -4.163  14.598  24.182  0.00  0.00    +0.000 A 
ATOM     28  C   UNL     1      -3.198  15.350  24.869  0.00  0.00    +0.000 A 
ATOM     29  C   UNL     1      -3.470  16.659  25.267  0.00  0.00    +0.000 A 
ATOM     30  C   UNL     1      -4.694  17.241  24.954  0.00  0.00    +0.000 A 
ATOM     31  C   UNL     1      -5.637  16.530  24.215  0.00  0.00    +0.000 A 
ATOM     32  C   UNL     1      -5.368  15.218  23.821  0.00  0.00    +0.000 A 
ENDBRANCH  26  27
ENDBRANCH   6  26
TORSDOF 5
ENDMDL
MODEL 4
REMARK VINA RESULT:      -7.6      0.870      1.494
REMARK  Name = 
REMARK  5 active torsions:
REMARK  status: ('A' for Active; 'I' for Inactive)
REMARK    1  A    between atoms: C_2  and  C_3
REMARK    2  A    between atoms: C_3  and  N_4
REMARK    3  A    between atoms: N_9  and  C_10
REMARK    4  A    between atoms: C_10  and  C_11
REMARK    5  A    between atoms: N_24  and  C_25
REMARK                            x       y       z     vdW  Elec       q    Type
REMARK                         _______ _______ _______ _____ _____    ______ ____
ROOT
ATOM      1  N   UNL     1       0.402  10.523  21.878  0.00  0.00    +0.000 N 
ATOM      2  C   UNL     1      -0.498  10.545  22.931  0.00  0.00    +0.000 A 
ATOM      3  O   UNL     1      -0.350   9.866  23.946  0.00  0.00    +0.000 OA
ATOM      4  C   UNL     1      -1.703  11.474  22.814  0.00  0.00    +0.000 A 
ATOM      5  O   UNL     1      -2.678  11.252  23.524  0.00  0.00    +0.000 OA
ATOM      6  N   UNL     1      -1.606  12.526  21.910  0.00  0.00    +0.000 N 
ATOM      7  C   UNL     1      -0.565  12.570  20.933  0.00  0.00    +0.000 A 
ATOM      8  C   UNL     1      -0.507  13.601  19.977  0.00  0.00    +0.000 A 
ATOM      9  C   UNL     1       0.477  13.621  18.986  0.00  0.00    +0.000 A 
ATOM     10  C   UNL     1       1.423  12.611  18.945  0.00  0.00    +0.000 A 
ATOM     11 CL   UNL     1       2.637  12.629  17.726  0.00  0.00    +0.000 Cl
ATOM     12  C   UNL     1       1.398  11.585  19.889  0.00  0.00    +0.000 A 
ATOM     13  C   UNL     1       0.409  11.548  20.892  0.00  0.00    +0.000 A 
ENDROOT
BRANCH   1  14
ATOM     14  C   UNL     1       1.445   9.500  21.937  0.00  0.00    +0.000 C 
BRANCH  14  16
ATOM     15  O   UNL     1      -0.173   7.940  21.133  0.00  0.00    +0.000 OA
ATOM     16  C   UNL     1       1.020   8.217  21.225  0.00  0.00    +0.000 C 
ATOM     17  N   UNL     1       2.081   7.438  20.783  0.00  0.00    +0.000 N 
ATOM     18  H   UNL     1       3.015   7.718  21.087  0.00  0.00    +0.000 HD
BRANCH  17  19
ATOM     19  C   UNL     1       1.971   6.197  20.114  0.00  0.00    +0.000 A 
ATOM     20  C   UNL     1       1.301   5.093  20.656  0.00  0.00    +0.000 A 
ATOM     21  C   UNL     1       1.288   3.863  19.992  0.00  0.00    +0.000 A 
ATOM     22  C   UNL     1       1.937   3.728  18.771  0.00  0.00    +0.000 A 
ATOM     23  C   UNL     1       2.564   4.835  18.210  0.00  0.00    +0.000 A 
ATOM     24  F   UNL     1       3.184   4.708  17.031  0.00  0.00    +0.000 F 
ATOM     25  C   UNL     1       2.574   6.068  18.861  0.00  0.00    +0.000 A 
ENDBRANCH  17  19
ENDBRANCH  14  16
ENDBRANCH   1  14
BRANCH   6  26
ATOM     26  C   UNL     1      -2.695  13.506  21.925  0.00  0.00    +0.000 C 
BRANCH  26  27
ATOM     27  C   UNL     1      -3.973  13.017  21.281  0.00  0.00    +0.000 A 
ATOM     28  C   UNL     1      -5.183  12.983  21.990  0.00  0.00    +0.000 A 
ATOM     29  C   UNL     1      -6.333  12.451  21.406  0.00  0.00    +0.000 A 
ATOM     30  C   UNL     1      -6.294  11.980  20.097  0.00  0.00    +0.000 A 
ATOM     31  C   UNL     1      -5.116  12.068  19.358  0.00  0.00    +0.000 A 
ATOM     32  C   UNL     1      -3.964  12.594  19.943  0.00  0.00    +0.000 A 
ENDBRANCH  26  27
ENDBRANCH   6  26
TORSDOF 5
ENDMDL
MODEL 5
REMARK VINA RESULT:      -7.6      2.784      4.001
REMARK  Name = 
REMARK  5 active torsions:
REMARK  status: ('A' for Active; 'I' for Inactive)
REMARK    1  A    between atoms: C_2  and  C_3
REMARK    2  A    between atoms: C_3  and  N_4
REMARK    3  A    between atoms: N_9  and  C_10
REMARK    4  A    between atoms: C_10  and  C_11
REMARK    5  A    between atoms: N_24  and  C_25
REMARK                            x       y       z     vdW  Elec       q    Type
REMARK                         _______ _______ _______ _____ _____    ______ ____
ROOT
ATOM      1  N   UNL     1      -1.230  11.670  19.282  0.00  0.00    +0.000 N 
ATOM      2  C   UNL     1      -1.851  11.070  18.199  0.00  0.00    +0.000 A 
ATOM      3  O   UNL     1      -1.289  10.241  17.485  0.00  0.00    +0.000 OA
ATOM      4  C   UNL     1      -3.301  11.453  17.912  0.00  0.00    +0.000 A 
ATOM      5  O   UNL     1      -3.746  11.241  16.789  0.00  0.00    +0.000 OA
ATOM      6  N   UNL     1      -4.028  12.011  18.958  0.00  0.00    +0.000 N 
ATOM      7  C   UNL     1      -3.381  12.474  20.145  0.00  0.00    +0.000 A 
ATOM      8  C   UNL     1      -4.110  13.098  21.174  0.00  0.00    +0.000 A 
ATOM      9  C   UNL     1      -3.477  13.601  22.313  0.00  0.00    +0.000 A 
ATOM     10  C   UNL     1      -2.105  13.477  22.441  0.00  0.00    +0.000 A 
ATOM     11 CL   UNL     1      -1.319  14.095  23.841  0.00  0.00    +0.000 Cl
ATOM     12  C   UNL     1      -1.360  12.850  21.443  0.00  0.00    +0.000 A 
ATOM     13  C   UNL     1      -1.982  12.342  20.285  0.00  0.00    +0.000 A 
ENDROOT
BRANCH   1  14
ATOM     14  C   UNL     1       0.203  11.421  19.427  0.00  0.00    +0.000 C 
BRANCH  14  16
ATOM     15  O   UNL     1      -0.096   9.377  20.621  0.00  0.00    +0.000 OA
ATOM     16  C   UNL     1       0.496   9.949  19.709  0.00  0.00    +0.000 C 
ATOM     17  N   UNL     1       1.484   9.403  18.902  0.00  0.00    +0.000 N 
ATOM     18  H   UNL     1       2.002  10.053  18.308  0.00  0.00    +0.000 HD
BRANCH  17  19
ATOM     19  C   UNL     1       1.961   8.073  18.965  0.00  0.00    +0.000 A 
ATOM     20  C   UNL     1       2.552   7.421  17.875  0.00  0.00    +0.000 A 
ATOM     21  C   UNL     1       2.934   6.079  17.963  0.00  0.00    +0.000 A 
ATOM     22  C   UNL     1       2.739   5.378  19.146  0.00  0.00    +0.000 A 
ATOM     23  C   UNL     1       2.194   6.038  20.243  0.00  0.00    +0.000 A 
ATOM     24  F   UNL     1       2.011   5.366  21.385  0.00  0.00    +0.000 F 
ATOM     25  C   UNL     1       1.818   7.378  20.168  0.00  0.00    +0.000 A 
ENDBRANCH  17  19
ENDBRANCH  14  16
ENDBRANCH   1  14
BRANCH   6  26
ATOM     26  C   UNL     1      -5.459  12.220  18.724  0.00  0.00    +0.000 C 
BRANCH  26  27
ATOM     27  C   UNL     1      -6.350  11.213  19.417  0.00  0.00    +0.000 A 
ATOM     28  C   UNL     1      -7.164  11.579  20.499  0.00  0.00    +0.000 A 
ATOM     29  C   UNL     1      -7.916  10.619  21.177  0.00  0.00    +0.000 A 
ATOM     30  C   UNL     1      -7.889   9.292  20.761  0.00  0.00    +0.000 A 
ATOM     31  C   UNL     1      -7.136   8.925  19.646  0.00  0.00    +0.000 A 
ATOM     32  C   UNL     1      -6.378   9.883  18.971  0.00  0.00    +0.000 A 
ENDBRANCH  26  27
ENDBRANCH   6  26
TORSDOF 5
ENDMDL
MODEL 6
REMARK VINA RESULT:      -7.3      1.693      2.817
REMARK  Name = 
REMARK  5 active torsions:
REMARK  status: ('A' for Active; 'I' for Inactive)
REMARK    1  A    between atoms: C_2  and  C_3
REMARK    2  A    between atoms: C_3  and  N_4
REMARK    3  A    between atoms: N_9  and  C_10
REMARK    4  A    between atoms: C_10  and  C_11
REMARK    5  A    between atoms: N_24  and  C_25
REMARK                            x       y       z     vdW  Elec       q    Type
REMARK                         _______ _______ _______ _____ _____    ______ ____
ROOT
ATOM      1  N   UNL     1       0.433  10.559  21.887  0.00  0.00    +0.000 N 
ATOM      2  C   UNL     1      -0.462  10.521  22.944  0.00  0.00    +0.000 A 
ATOM      3  O   UNL     1      -0.308   9.788  23.919  0.00  0.00    +0.000 OA
ATOM      4  C   UNL     1      -1.669  11.453  22.884  0.00  0.00    +0.000 A 
ATOM      5  O   UNL     1      -2.641  11.190  23.584  0.00  0.00    +0.000 OA
ATOM      6  N   UNL     1      -1.579  12.554  22.038  0.00  0.00    +0.000 N 
ATOM      7  C   UNL     1      -0.542  12.653  21.061  0.00  0.00    +0.000 A 
ATOM      8  C   UNL     1      -0.490  13.735  20.163  0.00  0.00    +0.000 A 
ATOM      9  C   UNL     1       0.490  13.812  19.170  0.00  0.00    +0.000 A 
ATOM     10  C   UNL     1       1.437  12.808  19.069  0.00  0.00    +0.000 A 
ATOM     11 CL   UNL     1       2.646  12.896  17.847  0.00  0.00    +0.000 Cl
ATOM     12  C   UNL     1       1.419  11.732  19.955  0.00  0.00    +0.000 A 
ATOM     13  C   UNL     1       0.434  11.637  20.959  0.00  0.00    +0.000 A 
ENDROOT
BRANCH   1  14
ATOM     14  C   UNL     1       1.478   9.537  21.886  0.00  0.00    +0.000 C 
BRANCH  14  16
ATOM     15  O   UNL     1      -0.155   8.092  20.916  0.00  0.00    +0.000 OA
ATOM     16  C   UNL     1       1.038   8.279  21.140  0.00  0.00    +0.000 C 
ATOM     17  N   UNL     1       2.078   7.413  20.827  0.00  0.00    +0.000 N 
ATOM     18  H   UNL     1       2.990   7.627  21.233  0.00  0.00    +0.000 HD
BRANCH  17  19
ATOM     19  C   UNL     1       1.947   6.174  20.159  0.00  0.00    +0.000 A 
ATOM     20  C   UNL     1       1.296   5.069  20.720  0.00  0.00    +0.000 A 
ATOM     21  C   UNL     1       1.262   3.840  20.054  0.00  0.00    +0.000 A 
ATOM     22  C   UNL     1       1.873   3.707  18.813  0.00  0.00    +0.000 A 
ATOM     23  C   UNL     1       2.482   4.816  18.235  0.00  0.00    +0.000 A 
ATOM     24  F   UNL     1       3.064   4.692  17.037  0.00  0.00    +0.000 F 
ATOM     25  C   UNL     1       2.512   6.048  18.888  0.00  0.00    +0.000 A 
ENDBRANCH  17  19
ENDBRANCH  14  16
ENDBRANCH   1  14
BRANCH   6  26
ATOM     26  C   UNL     1      -2.669  13.529  22.112  0.00  0.00    +0.000 C 
BRANCH  26  27
ATOM     27  C   UNL     1      -2.562  14.486  23.278  0.00  0.00    +0.000 A 
ATOM     28  C   UNL     1      -3.699  14.913  23.981  0.00  0.00    +0.000 A 
ATOM     29  C   UNL     1      -3.588  15.860  25.000  0.00  0.00    +0.000 A 
ATOM     30  C   UNL     1      -2.340  16.363  25.350  0.00  0.00    +0.000 A 
ATOM     31  C   UNL     1      -1.194  15.899  24.705  0.00  0.00    +0.000 A 
ATOM     32  C   UNL     1      -1.304  14.957  23.682  0.00  0.00    +0.000 A 
ENDBRANCH  26  27
ENDBRANCH   6  26
TORSDOF 5
ENDMDL
MODEL 7
REMARK VINA RESULT:      -7.3      3.281      4.665
REMARK  Name = 
REMARK  5 active torsions:
REMARK  status: ('A' for Active; 'I' for Inactive)
REMARK    1  A    between atoms: C_2  and  C_3
REMARK    2  A    between atoms: C_3  and  N_4
REMARK    3  A    between atoms: N_9  and  C_10
REMARK    4  A    between atoms: C_10  and  C_11
REMARK    5  A    between atoms: N_24  and  C_25
REMARK                            x       y       z     vdW  Elec       q    Type
REMARK                         _______ _______ _______ _____ _____    ______ ____
ROOT
ATOM      1  N   UNL     1      -1.774  12.318  18.860  0.00  0.00    +0.000 N 
ATOM      2  C   UNL     1      -2.427  11.665  17.828  0.00  0.00    +0.000 A 
ATOM      3  O   UNL     1      -1.836  10.982  16.993  0.00  0.00    +0.000 OA
ATOM      4  C   UNL     1      -3.946  11.794  17.757  0.00  0.00    +0.000 A 
ATOM      5  O   UNL     1      -4.500  11.556  16.688  0.00  0.00    +0.000 OA
ATOM      6  N   UNL     1      -4.606  12.166  18.923  0.00  0.00    +0.000 N 
ATOM      7  C   UNL     1      -3.890  12.684  20.045  0.00  0.00    +0.000 A 
ATOM      8  C   UNL     1      -4.566  13.122  21.200  0.00  0.00    +0.000 A 
ATOM      9  C   UNL     1      -3.876  13.679  22.279  0.00  0.00    +0.000 A 
ATOM     10  C   UNL     1      -2.499  13.797  22.221  0.00  0.00    +0.000 A 
ATOM     11 CL   UNL     1      -1.644  14.484  23.547  0.00  0.00    +0.000 Cl
ATOM     12  C   UNL     1      -1.803  13.359  21.095  0.00  0.00    +0.000 A 
ATOM     13  C   UNL     1      -2.483  12.799  19.995  0.00  0.00    +0.000 A 
ENDROOT
BRANCH   1  14
ATOM     14  C   UNL     1      -0.313  12.323  18.802  0.00  0.00    +0.000 C 
BRANCH  14  16
ATOM     15  O   UNL     1       0.120  10.665  20.463  0.00  0.00    +0.000 OA
ATOM     16  C   UNL     1       0.277  11.003  19.293  0.00  0.00    +0.000 C 
ATOM     17  N   UNL     1       1.009  10.318  18.332  0.00  0.00    +0.000 N 
ATOM     18  H   UNL     1       1.192  10.812  17.457  0.00  0.00    +0.000 HD
BRANCH  17  19
ATOM     19  C   UNL     1       1.675   9.086  18.524  0.00  0.00    +0.000 A 
ATOM     20  C   UNL     1       1.490   8.287  19.660  0.00  0.00    +0.000 A 
ATOM     21  C   UNL     1       2.232   7.116  19.843  0.00  0.00    +0.000 A 
ATOM     22  C   UNL     1       3.160   6.727  18.886  0.00  0.00    +0.000 A 
ATOM     23  C   UNL     1       3.313   7.496  17.737  0.00  0.00    +0.000 A 
ATOM     24  F   UNL     1       4.202   7.118  16.811  0.00  0.00    +0.000 F 
ATOM     25  C   UNL     1       2.571   8.660  17.541  0.00  0.00    +0.000 A 
ENDBRANCH  17  19
ENDBRANCH  14  16
ENDBRANCH   1  14
BRANCH   6  26
ATOM     26  C   UNL     1      -6.070  12.126  18.890  0.00  0.00    +0.000 C 
BRANCH  26  27
ATOM     27  C   UNL     1      -6.670  10.943  19.617  0.00  0.00    +0.000 A 
ATOM     28  C   UNL     1      -6.614   9.649  19.079  0.00  0.00    +0.000 A 
ATOM     29  C   UNL     1      -7.245   8.584  19.724  0.00  0.00    +0.000 A 
ATOM     30  C   UNL     1      -7.908   8.795  20.928  0.00  0.00    +0.000 A 
ATOM     31  C   UNL     1      -7.915  10.062  21.509  0.00  0.00    +0.000 A 
ATOM     32  C   UNL     1      -7.290  11.129  20.861  0.00  0.00    +0.000 A 
ENDBRANCH  26  27
ENDBRANCH   6  26
TORSDOF 5
ENDMDL
MODEL 8
REMARK VINA RESULT:      -7.3      2.772      3.364
REMARK  Name = 
REMARK  5 active torsions:
REMARK  status: ('A' for Active; 'I' for Inactive)
REMARK    1  A    between atoms: C_2  and  C_3
REMARK    2  A    between atoms: C_3  and  N_4
REMARK    3  A    between atoms: N_9  and  C_10
REMARK    4  A    between atoms: C_10  and  C_11
REMARK    5  A    between atoms: N_24  and  C_25
REMARK                            x       y       z     vdW  Elec       q    Type
REMARK                         _______ _______ _______ _____ _____    ______ ____
ROOT
ATOM      1  N   UNL     1       0.309  10.792  19.313  0.00  0.00    +0.000 N 
ATOM      2  C   UNL     1       0.596  11.457  20.494  0.00  0.00    +0.000 A 
ATOM      3  O   UNL     1       1.746  11.678  20.870  0.00  0.00    +0.000 OA
ATOM      4  C   UNL     1      -0.580  11.948  21.335  0.00  0.00    +0.000 A 
ATOM      5  O   UNL     1      -0.383  12.195  22.520  0.00  0.00    +0.000 OA
ATOM      6  N   UNL     1      -1.803  12.093  20.690  0.00  0.00    +0.000 N 
ATOM      7  C   UNL     1      -2.026  11.539  19.392  0.00  0.00    +0.000 A 
ATOM      8  C   UNL     1      -3.285  11.630  18.769  0.00  0.00    +0.000 A 
ATOM      9  C   UNL     1      -3.525  11.044  17.524  0.00  0.00    +0.000 A 
ATOM     10  C   UNL     1      -2.504  10.367  16.881  0.00  0.00    +0.000 A 
ATOM     11 CL   UNL     1      -2.794   9.642  15.347  0.00  0.00    +0.000 Cl
ATOM     12  C   UNL     1      -1.243  10.273  17.469  0.00  0.00    +0.000 A 
ATOM     13  C   UNL     1      -0.986  10.855  18.727  0.00  0.00    +0.000 A 
ENDROOT
BRANCH   1  14
ATOM     14  C   UNL     1       1.443  10.182  18.621  0.00  0.00    +0.000 C 
BRANCH  14  16
ATOM     15  O   UNL     1       1.316   8.385  20.186  0.00  0.00    +0.000 OA
ATOM     16  C   UNL     1       1.663   8.737  19.061  0.00  0.00    +0.000 C 
ATOM     17  N   UNL     1       2.312   7.950  18.119  0.00  0.00    +0.000 N 
ATOM     18  H   UNL     1       2.690   8.431  17.302  0.00  0.00    +0.000 HD
BRANCH  17  19
ATOM     19  C   UNL     1       2.656   6.587  18.276  0.00  0.00    +0.000 A 
ATOM     20  C   UNL     1       1.775   5.538  17.984  0.00  0.00    +0.000 A 
ATOM     21  C   UNL     1       2.132   4.210  18.233  0.00  0.00    +0.000 A 
ATOM     22  C   UNL     1       3.381   3.916  18.767  0.00  0.00    +0.000 A 
ATOM     23  C   UNL     1       4.273   4.954  19.016  0.00  0.00    +0.000 A 
ATOM     24  F   UNL     1       5.478   4.672  19.524  0.00  0.00    +0.000 F 
ATOM     25  C   UNL     1       3.929   6.281  18.762  0.00  0.00    +0.000 A 
ENDBRANCH  17  19
ENDBRANCH  14  16
ENDBRANCH   1  14
BRANCH   6  26
ATOM     26  C   UNL     1      -2.881  12.719  21.460  0.00  0.00    +0.000 C 
BRANCH  26  27
ATOM     27  C   UNL     1      -3.161  14.154  21.071  0.00  0.00    +0.000 A 
ATOM     28  C   UNL     1      -2.121  15.073  20.865  0.00  0.00    +0.000 A 
ATOM     29  C   UNL     1      -2.401  16.411  20.589  0.00  0.00    +0.000 A 
ATOM     30  C   UNL     1      -3.721  16.838  20.481  0.00  0.00    +0.000 A 
ATOM     31  C   UNL     1      -4.764  15.923  20.617  0.00  0.00    +0.000 A 
ATOM     32  C   UNL     1      -4.485  14.585  20.901  0.00  0.00    +0.000 A 
ENDBRANCH  26  27
ENDBRANCH   6  26
TORSDOF 5
ENDMDL
MODEL 9
REMARK VINA RESULT:      -7.3      5.043      6.860
REMARK  Name = 
REMARK  5 active torsions:
REMARK  status: ('A' for Active; 'I' for Inactive)
REMARK    1  A    between atoms: C_2  and  C_3
REMARK    2  A    between atoms: C_3  and  N_4
REMARK    3  A    between atoms: N_9  and  C_10
REMARK    4  A    between atoms: C_10  and  C_11
REMARK    5  A    between atoms: N_24  and  C_25
REMARK                            x       y       z     vdW  Elec       q    Type
REMARK                         _______ _______ _______ _____ _____    ______ ____
ROOT
ATOM      1  N   UNL     1      -1.316  12.392  21.018  0.00  0.00    +0.000 N 
ATOM      2  C   UNL     1      -1.653  11.732  19.848  0.00  0.00    +0.000 A 
ATOM      3  O   UNL     1      -0.912  10.910  19.310  0.00  0.00    +0.000 OA
ATOM      4  C   UNL     1      -3.016  12.035  19.231  0.00  0.00    +0.000 A 
ATOM      5  O   UNL     1      -3.189  11.770  18.046  0.00  0.00    +0.000 OA
ATOM      6  N   UNL     1      -3.981  12.588  20.066  0.00  0.00    +0.000 N 
ATOM      7  C   UNL     1      -3.636  13.116  21.348  0.00  0.00    +0.000 A 
ATOM      8  C   UNL     1      -4.602  13.733  22.164  0.00  0.00    +0.000 A 
ATOM      9  C   UNL     1      -4.262  14.299  23.395  0.00  0.00    +0.000 A 
ATOM     10  C   UNL     1      -2.949  14.245  23.829  0.00  0.00    +0.000 A 
ATOM     11 CL   UNL     1      -2.523  14.941  25.345  0.00  0.00    +0.000 Cl
ATOM     12  C   UNL     1      -1.974  13.626  23.048  0.00  0.00    +0.000 A 
ATOM     13  C   UNL     1      -2.300  13.055  21.802  0.00  0.00    +0.000 A 
ENDROOT
BRANCH   1  14
ATOM     14  C   UNL     1       0.058  12.217  21.488  0.00  0.00    +0.000 C 
BRANCH  14  16
ATOM     15  O   UNL     1       1.506  14.060  21.933  0.00  0.00    +0.000 OA
ATOM     16  C   UNL     1       0.951  13.383  21.072  0.00  0.00    +0.000 C 
ATOM     17  N   UNL     1       1.001  13.596  19.701  0.00  0.00    +0.000 N 
ATOM     18  H   UNL     1       0.349  13.058  19.129  0.00  0.00    +0.000 HD
BRANCH  17  19
ATOM     19  C   UNL     1       1.734  14.616  19.050  0.00  0.00    +0.000 A 
ATOM     20  C   UNL     1       1.246  15.919  18.883  0.00  0.00    +0.000 A 
ATOM     21  C   UNL     1       1.974  16.871  18.163  0.00  0.00    +0.000 A 
ATOM     22  C   UNL     1       3.203  16.532  17.610  0.00  0.00    +0.000 A 
ATOM     23  C   UNL     1       3.708  15.252  17.814  0.00  0.00    +0.000 A 
ATOM     24  F   UNL     1       4.894  14.926  17.287  0.00  0.00    +0.000 F 
ATOM     25  C   UNL     1       2.994  14.299  18.538  0.00  0.00    +0.000 A 
ENDBRANCH  17  19
ENDBRANCH  14  16
ENDBRANCH   1  14
BRANCH   6  26
ATOM     26  C   UNL     1      -5.330  12.721  19.511  0.00  0.00    +0.000 C 
BRANCH  26  27
ATOM     27  C   UNL     1      -6.249  11.566  19.844  0.00  0.00    +0.000 A 
ATOM     28  C   UNL     1      -7.136  11.627  20.929  0.00  0.00    +0.000 A 
ATOM     29  C   UNL     1      -7.917  10.522  21.270  0.00  0.00    +0.000 A 
ATOM     30  C   UNL     1      -7.844   9.358  20.510  0.00  0.00    +0.000 A 
ATOM     31  C   UNL     1      -7.017   9.306  19.390  0.00  0.00    +0.000 A 
ATOM     32  C   UNL     1      -6.231  10.409  19.052  0.00  0.00    +0.000 A 
ENDBRANCH  26  27
ENDBRANCH   6  26
TORSDOF 5
ENDMDL
