MODEL 1
REMARK VINA RESULT:      -8.2      0.000      0.000
REMARK  Name = 
REMARK  9 active torsions:
REMARK  status: ('A' for Active; 'I' for Inactive)
REMARK    1  A    between atoms: C_1  and  O_2
REMARK    2  A    between atoms: O_2  and  C_3
REMARK    3  A    between atoms: C_6  and  C_7
REMARK    4  A    between atoms: C_7  and  C_8
REMARK    5  A    between atoms: C_8  and  N_9
REMARK    6  A    between atoms: C_16  and  O_17
REMARK    7  A    between atoms: O_17  and  C_18
REMARK    8  A    between atoms: C_19  and  O_20
REMARK    9  A    between atoms: O_20  and  C_21
REMARK                            x       y       z     vdW  Elec       q    Type
REMARK                         _______ _______ _______ _____ _____    ______ ____
ROOT
ATOM      1  N   UNL     1       7.944   7.780  17.117  0.00  0.00    +0.000 N 
ATOM      2  C   UNL     1       6.861   6.931  17.032  0.00  0.00    +0.000 A 
ATOM      3  N   UNL     1       7.058   5.972  16.125  0.00  0.00    +0.000 NA
ATOM      4  C   UNL     1       6.148   5.002  16.035  0.00  0.00    +0.000 A 
ATOM      5  N   UNL     1       6.380   4.051  15.030  0.00  0.00    +0.000 N 
ATOM      6  C   UNL     1       5.027   4.928  16.851  0.00  0.00    +0.000 A 
ATOM      7  C   UNL     1       4.155   3.819  16.824  0.00  0.00    +0.000 A 
ATOM      8  C   UNL     1       2.969   3.792  17.547  0.00  0.00    +0.000 A 
ATOM      9  C   UNL     1       2.641   4.910  18.319  0.00  0.00    +0.000 A 
ATOM     10  C   UNL     1       3.563   5.993  18.386  0.00  0.00    +0.000 A 
ATOM     11  C   UNL     1       4.798   6.021  17.684  0.00  0.00    +0.000 A 
ATOM     12  N   UNL     1       5.730   7.025  17.777  0.00  0.00    +0.000 NA
ATOM     13  H   UNL     1       8.562   7.594  16.336  0.00  0.00    +0.000 HD
ATOM     14  H   UNL     1       7.206   4.352  14.519  0.00  0.00    +0.000 HD
ATOM     15  H   UNL     1       5.571   3.984  14.420  0.00  0.00    +0.000 HD
ENDROOT
BRANCH   8  16
ATOM     16  O   UNL     1       2.284   2.623  17.350  0.00  0.00    +0.000 OA
ATOM     17  C   UNL     1       2.231   1.637  18.369  0.00  0.00    +0.000 C 
ENDBRANCH   8  16
BRANCH   9  18
ATOM     18  O   UNL     1       1.460   4.835  19.001  0.00  0.00    +0.000 OA
ATOM     19  C   UNL     1       1.438   4.675  20.408  0.00  0.00    +0.000 C 
ENDBRANCH   9  18
BRANCH   1  20
ATOM     20  C   UNL     1       7.905   9.130  17.638  0.00  0.00    +0.000 C 
BRANCH  20  21
ATOM     21  C   UNL     1       8.800   9.307  18.905  0.00  0.00    +0.000 C 
BRANCH  21  25
ATOM     22  C   UNL     1      11.096  12.982  19.503  0.00  0.00    +0.000 A 
ATOM     23  C   UNL     1      10.557  12.300  20.589  0.00  0.00    +0.000 A 
ATOM     24  C   UNL     1       9.826  11.109  20.431  0.00  0.00    +0.000 A 
ATOM     25  C   UNL     1       9.597  10.581  19.160  0.00  0.00    +0.000 A 
ATOM     26  C   UNL     1      10.125  11.292  18.058  0.00  0.00    +0.000 A 
ATOM     27  C   UNL     1      10.869  12.479  18.223  0.00  0.00    +0.000 A 
BRANCH  22  29
ATOM     28  C   UNL     1      11.019  15.163  20.448  0.00  0.00    +0.000 C 
ATOM     29  O   UNL     1      11.763  14.137  19.803  0.00  0.00    +0.000 OA
ENDBRANCH  22  29
ENDBRANCH  21  25
ENDBRANCH  20  21
ENDBRANCH   1  20
TORSDOF 6
ENDMDL
MODEL 2
REMARK VINA RESULT:      -8.2      0.788      1.170
REMARK  Name = 
REMARK  9 active torsions:
REMARK  status: ('A' for Active; 'I' for Inactive)
REMARK    1  A    between atoms: C_1  and  O_2
REMARK    2  A    between atoms: O_2  and  C_3
REMARK    3  A    between atoms: C_6  and  C_7
REMARK    4  A    between atoms: C_7  and  C_8
REMARK    5  A    between atoms: C_8  and  N_9
REMARK    6  A    between atoms: C_16  and  O_17
REMARK    7  A    between atoms: O_17  and  C_18
REMARK    8  A    between atoms: C_19  and  O_20
REMARK    9  A    between atoms: O_20  and  C_21
REMARK                            x       y       z     vdW  Elec       q    Type
REMARK                         _______ _______ _______ _____ _____    ______ ____
ROOT
ATOM      1  N   UNL     1       8.017   7.970  17.251  0.00  0.00    +0.000 N 
ATOM      2  C   UNL     1       6.978   7.069  17.153  0.00  0.00    +0.000 A 
ATOM      3  N   UNL     1       7.265   6.078  16.305  0.00  0.00    +0.000 NA
ATOM      4  C   UNL     1       6.405   5.065  16.217  0.00  0.00    +0.000 A 
ATOM      5  N   UNL     1       6.731   4.079  15.273  0.00  0.00    +0.000 N 
ATOM      6  C   UNL     1       5.246   4.977  16.977  0.00  0.00    +0.000 A 
ATOM      7  C   UNL     1       4.426   3.829  16.961  0.00  0.00    +0.000 A 
ATOM      8  C   UNL     1       3.205   3.781  17.623  0.00  0.00    +0.000 A 
ATOM      9  C   UNL     1       2.788   4.917  18.322  0.00  0.00    +0.000 A 
ATOM     10  C   UNL     1       3.658   6.044  18.382  0.00  0.00    +0.000 A 
ATOM     11  C   UNL     1       4.926   6.096  17.743  0.00  0.00    +0.000 A 
ATOM     12  N   UNL     1       5.807   7.145  17.834  0.00  0.00    +0.000 NA
ATOM     13  H   UNL     1       8.683   7.776  16.512  0.00  0.00    +0.000 HD
ATOM     14  H   UNL     1       7.569   4.393  14.791  0.00  0.00    +0.000 HD
ATOM     15  H   UNL     1       5.959   3.947  14.627  0.00  0.00    +0.000 HD
ENDROOT
BRANCH   8  16
ATOM     16  O   UNL     1       2.584   2.574  17.450  0.00  0.00    +0.000 OA
ATOM     17  C   UNL     1       2.778   1.521  18.381  0.00  0.00    +0.000 C 
ENDBRANCH   8  16
BRANCH   9  18
ATOM     18  O   UNL     1       1.577   4.820  18.946  0.00  0.00    +0.000 OA
ATOM     19  C   UNL     1       1.489   4.529  20.329  0.00  0.00    +0.000 C 
ENDBRANCH   9  18
BRANCH   1  20
ATOM     20  C   UNL     1       7.891   9.340  17.702  0.00  0.00    +0.000 C 
BRANCH  20  21
ATOM     21  C   UNL     1       8.927   9.699  18.813  0.00  0.00    +0.000 C 
BRANCH  21  25
ATOM     22  C   UNL     1      11.204  13.434  18.900  0.00  0.00    +0.000 A 
ATOM     23  C   UNL     1      10.292  13.185  17.878  0.00  0.00    +0.000 A 
ATOM     24  C   UNL     1       9.535  12.000  17.831  0.00  0.00    +0.000 A 
ATOM     25  C   UNL     1       9.695  11.016  18.807  0.00  0.00    +0.000 A 
ATOM     26  C   UNL     1      10.642  11.264  19.827  0.00  0.00    +0.000 A 
ATOM     27  C   UNL     1      11.389  12.459  19.879  0.00  0.00    +0.000 A 
BRANCH  22  29
ATOM     28  C   UNL     1      12.042  15.170  17.507  0.00  0.00    +0.000 C 
ATOM     29  O   UNL     1      11.885  14.616  18.806  0.00  0.00    +0.000 OA
ENDBRANCH  22  29
ENDBRANCH  21  25
ENDBRANCH  20  21
ENDBRANCH   1  20
TORSDOF 6
ENDMDL
MODEL 3
REMARK VINA RESULT:      -7.8      0.972      1.349
REMARK  Name = 
REMARK  9 active torsions:
REMARK  status: ('A' for Active; 'I' for Inactive)
REMARK    1  A    between atoms: C_1  and  O_2
REMARK    2  A    between atoms: O_2  and  C_3
REMARK    3  A    between atoms: C_6  and  C_7
REMARK    4  A    between atoms: C_7  and  C_8
REMARK    5  A    between atoms: C_8  and  N_9
REMARK    6  A    between atoms: C_16  and  O_17
REMARK    7  A    between atoms: O_17  and  C_18
REMARK    8  A    between atoms: C_19  and  O_20
REMARK    9  A    between atoms: O_20  and  C_21
REMARK                            x       y       z     vdW  Elec       q    Type
REMARK                         _______ _______ _______ _____ _____    ______ ____
ROOT
ATOM      1  N   UNL     1       7.762   7.326  17.069  0.00  0.00    +0.000 N 
ATOM      2  C   UNL     1       6.724   6.442  17.276  0.00  0.00    +0.000 A 
ATOM      3  N   UNL     1       6.761   5.426  16.411  0.00  0.00    +0.000 NA
ATOM      4  C   UNL     1       5.898   4.427  16.585  0.00  0.00    +0.000 A 
ATOM      5  N   UNL     1       5.947   3.414  15.616  0.00  0.00    +0.000 N 
ATOM      6  C   UNL     1       4.984   4.379  17.629  0.00  0.00    +0.000 A 
ATOM      7  C   UNL     1       4.176   3.246  17.865  0.00  0.00    +0.000 A 
ATOM      8  C   UNL     1       3.177   3.237  18.830  0.00  0.00    +0.000 A 
ATOM      9  C   UNL     1       2.976   4.397  19.583  0.00  0.00    +0.000 A 
ATOM     10  C   UNL     1       3.842   5.509  19.377  0.00  0.00    +0.000 A 
ATOM     11  C   UNL     1       4.894   5.522  18.421  0.00  0.00    +0.000 A 
ATOM     12  N   UNL     1       5.779   6.556  18.244  0.00  0.00    +0.000 NA
ATOM     13  H   UNL     1       8.203   7.102  16.184  0.00  0.00    +0.000 HD
ATOM     14  H   UNL     1       6.629   3.701  14.918  0.00  0.00    +0.000 HD
ATOM     15  H   UNL     1       5.029   3.281  15.203  0.00  0.00    +0.000 HD
ENDROOT
BRANCH   8  16
ATOM     16  O   UNL     1       2.518   2.038  18.863  0.00  0.00    +0.000 OA
ATOM     17  C   UNL     1       1.126   1.972  18.592  0.00  0.00    +0.000 C 
ENDBRANCH   8  16
BRANCH   9  18
ATOM     18  O   UNL     1       1.975   4.338  20.511  0.00  0.00    +0.000 OA
ATOM     19  C   UNL     1       2.159   3.662  21.741  0.00  0.00    +0.000 C 
ENDBRANCH   9  18
BRANCH   1  20
ATOM     20  C   UNL     1       7.777   8.708  17.498  0.00  0.00    +0.000 C 
BRANCH  20  21
ATOM     21  C   UNL     1       8.721   8.942  18.720  0.00  0.00    +0.000 C 
BRANCH  21  25
ATOM     22  C   UNL     1      10.529  12.810  19.673  0.00  0.00    +0.000 A 
ATOM     23  C   UNL     1      10.357  12.417  18.349  0.00  0.00    +0.000 A 
ATOM     24  C   UNL     1       9.766  11.185  18.010  0.00  0.00    +0.000 A 
ATOM     25  C   UNL     1       9.351  10.300  19.006  0.00  0.00    +0.000 A 
ATOM     26  C   UNL     1       9.553  10.694  20.348  0.00  0.00    +0.000 A 
ATOM     27  C   UNL     1      10.133  11.935  20.683  0.00  0.00    +0.000 A 
BRANCH  22  29
ATOM     28  C   UNL     1      10.304  15.117  20.206  0.00  0.00    +0.000 C 
ATOM     29  O   UNL     1      11.138  14.021  19.853  0.00  0.00    +0.000 OA
ENDBRANCH  22  29
ENDBRANCH  21  25
ENDBRANCH  20  21
ENDBRANCH   1  20
TORSDOF 6
ENDMDL
MODEL 4
REMARK VINA RESULT:      -7.7      1.432      1.619
REMARK  Name = 
REMARK  9 active torsions:
REMARK  status: ('A' for Active; 'I' for Inactive)
REMARK    1  A    between atoms: C_1  and  O_2
REMARK    2  A    between atoms: O_2  and  C_3
REMARK    3  A    between atoms: C_6  and  C_7
REMARK    4  A    between atoms: C_7  and  C_8
REMARK    5  A    between atoms: C_8  and  N_9
REMARK    6  A    between atoms: C_16  and  O_17
REMARK    7  A    between atoms: O_17  and  C_18
REMARK    8  A    between atoms: C_19  and  O_20
REMARK    9  A    between atoms: O_20  and  C_21
REMARK                            x       y       z     vdW  Elec       q    Type
REMARK                         _______ _______ _______ _____ _____    ______ ____
ROOT
ATOM      1  N   UNL     1       8.061   8.156  17.258  0.00  0.00    +0.000 N 
ATOM      2  C   UNL     1       7.134   7.135  17.237  0.00  0.00    +0.000 A 
ATOM      3  N   UNL     1       7.334   6.310  16.207  0.00  0.00    +0.000 NA
ATOM      4  C   UNL     1       6.595   5.203  16.144  0.00  0.00    +0.000 A 
ATOM      5  N   UNL     1       6.811   4.400  15.013  0.00  0.00    +0.000 N 
ATOM      6  C   UNL     1       5.653   4.856  17.103  0.00  0.00    +0.000 A 
ATOM      7  C   UNL     1       4.984   3.614  17.079  0.00  0.00    +0.000 A 
ATOM      8  C   UNL     1       3.956   3.309  17.963  0.00  0.00    +0.000 A 
ATOM      9  C   UNL     1       3.580   4.278  18.898  0.00  0.00    +0.000 A 
ATOM     10  C   UNL     1       4.309   5.501  18.950  0.00  0.00    +0.000 A 
ATOM     11  C   UNL     1       5.388   5.813  18.081  0.00  0.00    +0.000 A 
ATOM     12  N   UNL     1       6.144   6.958  18.148  0.00  0.00    +0.000 NA
ATOM     13  H   UNL     1       8.563   8.153  16.377  0.00  0.00    +0.000 HD
ATOM     14  H   UNL     1       7.479   4.889  14.423  0.00  0.00    +0.000 HD
ATOM     15  H   UNL     1       5.934   4.241  14.526  0.00  0.00    +0.000 HD
ENDROOT
BRANCH   8  16
ATOM     16  O   UNL     1       3.451   2.058  17.738  0.00  0.00    +0.000 OA
ATOM     17  C   UNL     1       3.757   0.987  18.617  0.00  0.00    +0.000 C 
ENDBRANCH   8  16
BRANCH   9  18
ATOM     18  O   UNL     1       2.558   3.932  19.735  0.00  0.00    +0.000 OA
ATOM     19  C   UNL     1       1.211   3.985  19.303  0.00  0.00    +0.000 C 
ENDBRANCH   9  18
BRANCH   1  20
ATOM     20  C   UNL     1       7.886   9.427  17.929  0.00  0.00    +0.000 C 
BRANCH  20  21
ATOM     21  C   UNL     1       9.224   9.981  18.514  0.00  0.00    +0.000 C 
BRANCH  21  25
ATOM     22  C   UNL     1      10.653  13.978  17.457  0.00  0.00    +0.000 A 
ATOM     23  C   UNL     1      11.523  12.892  17.452  0.00  0.00    +0.000 A 
ATOM     24  C   UNL     1      11.090  11.592  17.773  0.00  0.00    +0.000 A 
ATOM     25  C   UNL     1       9.763  11.355  18.134  0.00  0.00    +0.000 A 
ATOM     26  C   UNL     1       8.891  12.467  18.162  0.00  0.00    +0.000 A 
ATOM     27  C   UNL     1       9.326  13.766  17.826  0.00  0.00    +0.000 A 
BRANCH  22  29
ATOM     28  C   UNL     1      12.331  15.597  17.926  0.00  0.00    +0.000 C 
ATOM     29  O   UNL     1      11.216  15.185  17.147  0.00  0.00    +0.000 OA
ENDBRANCH  22  29
ENDBRANCH  21  25
ENDBRANCH  20  21
ENDBRANCH   1  20
TORSDOF 6
ENDMDL
MODEL 5
REMARK VINA RESULT:      -7.5      2.301     10.623
REMARK  Name = 
REMARK  9 active torsions:
REMARK  status: ('A' for Active; 'I' for Inactive)
REMARK    1  A    between atoms: C_1  and  O_2
REMARK    2  A    between atoms: O_2  and  C_3
REMARK    3  A    between atoms: C_6  and  C_7
REMARK    4  A    between atoms: C_7  and  C_8
REMARK    5  A    between atoms: C_8  and  N_9
REMARK    6  A    between atoms: C_16  and  O_17
REMARK    7  A    between atoms: O_17  and  C_18
REMARK    8  A    between atoms: C_19  and  O_20
REMARK    9  A    between atoms: O_20  and  C_21
REMARK                            x       y       z     vdW  Elec       q    Type
REMARK                         _______ _______ _______ _____ _____    ______ ____
ROOT
ATOM      1  N   UNL     1       8.648   8.852  18.871  0.00  0.00    +0.000 N 
ATOM      2  C   UNL     1       9.126  10.134  19.045  0.00  0.00    +0.000 A 
ATOM      3  N   UNL     1       9.199  10.460  20.337  0.00  0.00    +0.000 NA
ATOM      4  C   UNL     1       9.773  11.620  20.655  0.00  0.00    +0.000 A 
ATOM      5  N   UNL     1       9.774  11.935  22.023  0.00  0.00    +0.000 N 
ATOM      6  C   UNL     1      10.318  12.487  19.718  0.00  0.00    +0.000 A 
ATOM      7  C   UNL     1      11.037  13.640  20.095  0.00  0.00    +0.000 A 
ATOM      8  C   UNL     1      11.480  14.574  19.166  0.00  0.00    +0.000 A 
ATOM      9  C   UNL     1      11.191  14.350  17.816  0.00  0.00    +0.000 A 
ATOM     10  C   UNL     1      10.521  13.149  17.447  0.00  0.00    +0.000 A 
ATOM     11  C   UNL     1      10.096  12.165  18.380  0.00  0.00    +0.000 A 
ATOM     12  N   UNL     1       9.501  10.973  18.046  0.00  0.00    +0.000 NA
ATOM     13  H   UNL     1       8.281   8.522  19.756  0.00  0.00    +0.000 HD
ATOM     14  H   UNL     1       9.258  11.199  22.499  0.00  0.00    +0.000 HD
ATOM     15  H   UNL     1       9.345  12.844  22.172  0.00  0.00    +0.000 HD
ENDROOT
BRANCH   8  16
ATOM     16  O   UNL     1      12.137  15.613  19.767  0.00  0.00    +0.000 OA
ATOM     17  C   UNL     1      11.573  16.268  20.892  0.00  0.00    +0.000 C 
ENDBRANCH   8  16
BRANCH   9  18
ATOM     18  O   UNL     1      11.640  15.303  16.946  0.00  0.00    +0.000 OA
ATOM     19  C   UNL     1      10.963  16.538  16.803  0.00  0.00    +0.000 C 
ENDBRANCH   9  18
BRANCH   1  20
ATOM     20  C   UNL     1       8.037   8.349  17.658  0.00  0.00    +0.000 C 
BRANCH  20  21
ATOM     21  C   UNL     1       7.745   6.817  17.730  0.00  0.00    +0.000 C 
BRANCH  21  25
ATOM     22  C   UNL     1       3.785   5.198  18.647  0.00  0.00    +0.000 A 
ATOM     23  C   UNL     1       3.961   6.077  17.582  0.00  0.00    +0.000 A 
ATOM     24  C   UNL     1       5.224   6.603  17.254  0.00  0.00    +0.000 A 
ATOM     25  C   UNL     1       6.349   6.274  18.011  0.00  0.00    +0.000 A 
ATOM     26  C   UNL     1       6.158   5.401  19.107  0.00  0.00    +0.000 A 
ATOM     27  C   UNL     1       4.893   4.866  19.424  0.00  0.00    +0.000 A 
BRANCH  22  29
ATOM     28  C   UNL     1       1.729   4.446  17.720  0.00  0.00    +0.000 C 
ATOM     29  O   UNL     1       2.500   4.785  18.864  0.00  0.00    +0.000 OA
ENDBRANCH  22  29
ENDBRANCH  21  25
ENDBRANCH  20  21
ENDBRANCH   1  20
TORSDOF 6
ENDMDL
MODEL 6
REMARK VINA RESULT:      -7.5      5.881      8.553
REMARK  Name = 
REMARK  9 active torsions:
REMARK  status: ('A' for Active; 'I' for Inactive)
REMARK    1  A    between atoms: C_1  and  O_2
REMARK    2  A    between atoms: O_2  and  C_3
REMARK    3  A    between atoms: C_6  and  C_7
REMARK    4  A    between atoms: C_7  and  C_8
REMARK    5  A    between atoms: C_8  and  N_9
REMARK    6  A    between atoms: C_16  and  O_17
REMARK    7  A    between atoms: O_17  and  C_18
REMARK    8  A    between atoms: C_19  and  O_20
REMARK    9  A    between atoms: O_20  and  C_21
REMARK                            x       y       z     vdW  Elec       q    Type
REMARK                         _______ _______ _______ _____ _____    ______ ____
ROOT
ATOM      1  N   UNL     1       2.392   6.067  19.355  0.00  0.00    +0.000 N 
ATOM      2  C   UNL     1       1.955   7.338  19.660  0.00  0.00    +0.000 A 
ATOM      3  N   UNL     1       2.123   8.176  18.634  0.00  0.00    +0.000 NA
ATOM      4  C   UNL     1       1.619   9.404  18.743  0.00  0.00    +0.000 A 
ATOM      5  N   UNL     1       1.871  10.256  17.657  0.00  0.00    +0.000 N 
ATOM      6  C   UNL     1       0.910   9.844  19.853  0.00  0.00    +0.000 A 
ATOM      7  C   UNL     1       0.274  11.103  19.883  0.00  0.00    +0.000 A 
ATOM      8  C   UNL     1      -0.332  11.600  21.031  0.00  0.00    +0.000 A 
ATOM      9  C   UNL     1      -0.299  10.815  22.187  0.00  0.00    +0.000 A 
ATOM     10  C   UNL     1       0.291   9.520  22.122  0.00  0.00    +0.000 A 
ATOM     11  C   UNL     1       0.881   8.981  20.947  0.00  0.00    +0.000 A 
ATOM     12  N   UNL     1       1.402   7.715  20.841  0.00  0.00    +0.000 NA
ATOM     13  H   UNL     1       2.916   6.105  18.489  0.00  0.00    +0.000 HD
ATOM     14  H   UNL     1       2.465   9.746  17.009  0.00  0.00    +0.000 HD
ATOM     15  H   UNL     1       2.321  11.108  17.980  0.00  0.00    +0.000 HD
ENDROOT
BRANCH   8  16
ATOM     16  O   UNL     1      -0.866  12.842  20.823  0.00  0.00    +0.000 OA
ATOM     17  C   UNL     1      -1.033  13.345  19.507  0.00  0.00    +0.000 C 
ENDBRANCH   8  16
BRANCH   9  18
ATOM     18  O   UNL     1      -0.900  11.354  23.289  0.00  0.00    +0.000 OA
ATOM     19  C   UNL     1      -2.272  11.703  23.275  0.00  0.00    +0.000 C 
ENDBRANCH   9  18
BRANCH   1  20
ATOM     20  C   UNL     1       2.767   5.060  20.326  0.00  0.00    +0.000 C 
BRANCH  20  21
ATOM     21  C   UNL     1       3.591   3.896  19.689  0.00  0.00    +0.000 C 
BRANCH  21  25
ATOM     22  C   UNL     1       6.592   4.638  16.594  0.00  0.00    +0.000 A 
ATOM     23  C   UNL     1       5.402   3.987  16.283  0.00  0.00    +0.000 A 
ATOM     24  C   UNL     1       4.411   3.747  17.253  0.00  0.00    +0.000 A 
ATOM     25  C   UNL     1       4.606   4.138  18.579  0.00  0.00    +0.000 A 
ATOM     26  C   UNL     1       5.829   4.775  18.893  0.00  0.00    +0.000 A 
ATOM     27  C   UNL     1       6.813   5.026  17.915  0.00  0.00    +0.000 A 
BRANCH  22  29
ATOM     28  C   UNL     1       6.925   4.830  14.247  0.00  0.00    +0.000 C 
ATOM     29  O   UNL     1       7.472   4.783  15.558  0.00  0.00    +0.000 OA
ENDBRANCH  22  29
ENDBRANCH  21  25
ENDBRANCH  20  21
ENDBRANCH   1  20
TORSDOF 6
ENDMDL
MODEL 7
REMARK VINA RESULT:      -7.5      3.450      5.974
REMARK  Name = 
REMARK  9 active torsions:
REMARK  status: ('A' for Active; 'I' for Inactive)
REMARK    1  A    between atoms: C_1  and  O_2
REMARK    2  A    between atoms: O_2  and  C_3
REMARK    3  A    between atoms: C_6  and  C_7
REMARK    4  A    between atoms: C_7  and  C_8
REMARK    5  A    between atoms: C_8  and  N_9
REMARK    6  A    between atoms: C_16  and  O_17
REMARK    7  A    between atoms: O_17  and  C_18
REMARK    8  A    between atoms: C_19  and  O_20
REMARK    9  A    between atoms: O_20  and  C_21
REMARK                            x       y       z     vdW  Elec       q    Type
REMARK                         _______ _______ _______ _____ _____    ______ ____
ROOT
ATOM      1  N   UNL     1       4.566   3.903  17.852  0.00  0.00    +0.000 N 
ATOM      2  C   UNL     1       3.729   4.889  18.328  0.00  0.00    +0.000 A 
ATOM      3  N   UNL     1       3.205   4.562  19.512  0.00  0.00    +0.000 NA
ATOM      4  C   UNL     1       2.486   5.482  20.151  0.00  0.00    +0.000 A 
ATOM      5  N   UNL     1       1.917   5.065  21.364  0.00  0.00    +0.000 N 
ATOM      6  C   UNL     1       2.276   6.765  19.662  0.00  0.00    +0.000 A 
ATOM      7  C   UNL     1       1.624   7.758  20.424  0.00  0.00    +0.000 A 
ATOM      8  C   UNL     1       1.304   9.004  19.897  0.00  0.00    +0.000 A 
ATOM      9  C   UNL     1       1.643   9.265  18.566  0.00  0.00    +0.000 A 
ATOM     10  C   UNL     1       2.358   8.275  17.833  0.00  0.00    +0.000 A 
ATOM     11  C   UNL     1       2.727   7.011  18.367  0.00  0.00    +0.000 A 
ATOM     12  N   UNL     1       3.467   6.065  17.702  0.00  0.00    +0.000 NA
ATOM     13  H   UNL     1       4.442   3.073  18.420  0.00  0.00    +0.000 HD
ATOM     14  H   UNL     1       2.139   4.079  21.475  0.00  0.00    +0.000 HD
ATOM     15  H   UNL     1       0.913   5.219  21.349  0.00  0.00    +0.000 HD
ENDROOT
BRANCH   8  16
ATOM     16  O   UNL     1       0.662   9.790  20.815  0.00  0.00    +0.000 OA
ATOM     17  C   UNL     1       0.085   9.218  21.978  0.00  0.00    +0.000 C 
ENDBRANCH   8  16
BRANCH   9  18
ATOM     18  O   UNL     1       1.297  10.500  18.096  0.00  0.00    +0.000 OA
ATOM     19  C   UNL     1       2.114  11.629  18.340  0.00  0.00    +0.000 C 
ENDBRANCH   9  18
BRANCH   1  20
ATOM     20  C   UNL     1       4.933   3.721  16.463  0.00  0.00    +0.000 C 
BRANCH  20  21
ATOM     21  C   UNL     1       6.365   4.258  16.150  0.00  0.00    +0.000 C 
BRANCH  21  25
ATOM     22  C   UNL     1       8.178   7.502  18.458  0.00  0.00    +0.000 A 
ATOM     23  C   UNL     1       7.576   7.758  17.230  0.00  0.00    +0.000 A 
ATOM     24  C   UNL     1       6.972   6.739  16.471  0.00  0.00    +0.000 A 
ATOM     25  C   UNL     1       6.980   5.419  16.922  0.00  0.00    +0.000 A 
ATOM     26  C   UNL     1       7.616   5.161  18.159  0.00  0.00    +0.000 A 
ATOM     27  C   UNL     1       8.208   6.188  18.922  0.00  0.00    +0.000 A 
BRANCH  22  29
ATOM     28  C   UNL     1       8.693   9.822  18.379  0.00  0.00    +0.000 C 
ATOM     29  O   UNL     1       8.744   8.583  19.074  0.00  0.00    +0.000 OA
ENDBRANCH  22  29
ENDBRANCH  21  25
ENDBRANCH  20  21
ENDBRANCH   1  20
TORSDOF 6
ENDMDL
MODEL 8
REMARK VINA RESULT:      -7.4      1.299      1.339
REMARK  Name = 
REMARK  9 active torsions:
REMARK  status: ('A' for Active; 'I' for Inactive)
REMARK    1  A    between atoms: C_1  and  O_2
REMARK    2  A    between atoms: O_2  and  C_3
REMARK    3  A    between atoms: C_6  and  C_7
REMARK    4  A    between atoms: C_7  and  C_8
REMARK    5  A    between atoms: C_8  and  N_9
REMARK    6  A    between atoms: C_16  and  O_17
REMARK    7  A    between atoms: O_17  and  C_18
REMARK    8  A    between atoms: C_19  and  O_20
REMARK    9  A    between atoms: O_20  and  C_21
REMARK                            x       y       z     vdW  Elec       q    Type
REMARK                         _______ _______ _______ _____ _____    ______ ____
ROOT
ATOM      1  N   UNL     1       7.830   7.591  17.193  0.00  0.00    +0.000 N 
ATOM      2  C   UNL     1       6.821   6.662  17.333  0.00  0.00    +0.000 A 
ATOM      3  N   UNL     1       6.382   6.230  16.149  0.00  0.00    +0.000 NA
ATOM      4  C   UNL     1       5.502   5.229  16.138  0.00  0.00    +0.000 A 
ATOM      5  N   UNL     1       5.036   4.852  14.870  0.00  0.00    +0.000 N 
ATOM      6  C   UNL     1       5.042   4.602  17.289  0.00  0.00    +0.000 A 
ATOM      7  C   UNL     1       4.217   3.459  17.238  0.00  0.00    +0.000 A 
ATOM      8  C   UNL     1       3.655   2.900  18.380  0.00  0.00    +0.000 A 
ATOM      9  C   UNL     1       3.925   3.504  19.612  0.00  0.00    +0.000 A 
ATOM     10  C   UNL     1       4.812   4.618  19.651  0.00  0.00    +0.000 A 
ATOM     11  C   UNL     1       5.426   5.178  18.499  0.00  0.00    +0.000 A 
ATOM     12  N   UNL     1       6.329   6.212  18.516  0.00  0.00    +0.000 NA
ATOM     13  H   UNL     1       7.874   7.874  16.221  0.00  0.00    +0.000 HD
ATOM     14  H   UNL     1       5.448   5.494  14.197  0.00  0.00    +0.000 HD
ATOM     15  H   UNL     1       4.022   4.890  14.845  0.00  0.00    +0.000 HD
ENDROOT
BRANCH   8  16
ATOM     16  O   UNL     1       2.881   1.812  18.081  0.00  0.00    +0.000 OA
ATOM     17  C   UNL     1       1.468   1.877  18.199  0.00  0.00    +0.000 C 
ENDBRANCH   8  16
BRANCH   9  18
ATOM     18  O   UNL     1       3.340   2.921  20.700  0.00  0.00    +0.000 OA
ATOM     19  C   UNL     1       2.198   3.493  21.310  0.00  0.00    +0.000 C 
ENDBRANCH   9  18
BRANCH   1  20
ATOM     20  C   UNL     1       8.213   8.563  18.196  0.00  0.00    +0.000 C 
BRANCH  20  21
ATOM     21  C   UNL     1       8.347  10.003  17.609  0.00  0.00    +0.000 C 
BRANCH  21  25
ATOM     22  C   UNL     1      10.823  13.136  19.397  0.00  0.00    +0.000 A 
ATOM     23  C   UNL     1      10.851  11.838  19.900  0.00  0.00    +0.000 A 
ATOM     24  C   UNL     1      10.077  10.806  19.338  0.00  0.00    +0.000 A 
ATOM     25  C   UNL     1       9.229  11.062  18.259  0.00  0.00    +0.000 A 
ATOM     26  C   UNL     1       9.186  12.388  17.770  0.00  0.00    +0.000 A 
ATOM     27  C   UNL     1       9.974  13.416  18.328  0.00  0.00    +0.000 A 
BRANCH  22  29
ATOM     28  C   UNL     1      11.585  15.380  19.584  0.00  0.00    +0.000 C 
ATOM     29  O   UNL     1      11.608  14.040  20.056  0.00  0.00    +0.000 OA
ENDBRANCH  22  29
ENDBRANCH  21  25
ENDBRANCH  20  21
ENDBRANCH   1  20
TORSDOF 6
ENDMDL
MODEL 9
REMARK VINA RESULT:      -7.4      0.847      1.285
REMARK  Name = 
REMARK  9 active torsions:
REMARK  status: ('A' for Active; 'I' for Inactive)
REMARK    1  A    between atoms: C_1  and  O_2
REMARK    2  A    between atoms: O_2  and  C_3
REMARK    3  A    between atoms: C_6  and  C_7
REMARK    4  A    between atoms: C_7  and  C_8
REMARK    5  A    between atoms: C_8  and  N_9
REMARK    6  A    between atoms: C_16  and  O_17
REMARK    7  A    between atoms: O_17  and  C_18
REMARK    8  A    between atoms: C_19  and  O_20
REMARK    9  A    between atoms: O_20  and  C_21
REMARK                            x       y       z     vdW  Elec       q    Type
REMARK                         _______ _______ _______ _____ _____    ______ ____
ROOT
ATOM      1  N   UNL     1       8.087   8.163  17.405  0.00  0.00    +0.000 N 
ATOM      2  C   UNL     1       7.064   7.252  17.246  0.00  0.00    +0.000 A 
ATOM      3  N   UNL     1       7.377   6.310  16.353  0.00  0.00    +0.000 NA
ATOM      4  C   UNL     1       6.534   5.290  16.202  0.00  0.00    +0.000 A 
ATOM      5  N   UNL     1       6.888   4.359  15.213  0.00  0.00    +0.000 N 
ATOM      6  C   UNL     1       5.367   5.146  16.940  0.00  0.00    +0.000 A 
ATOM      7  C   UNL     1       4.565   3.989  16.854  0.00  0.00    +0.000 A 
ATOM      8  C   UNL     1       3.337   3.889  17.496  0.00  0.00    +0.000 A 
ATOM      9  C   UNL     1       2.893   4.982  18.245  0.00  0.00    +0.000 A 
ATOM     10  C   UNL     1       3.744   6.117  18.375  0.00  0.00    +0.000 A 
ATOM     11  C   UNL     1       5.019   6.220  17.758  0.00  0.00    +0.000 A 
ATOM     12  N   UNL     1       5.883   7.276  17.914  0.00  0.00    +0.000 NA
ATOM     13  H   UNL     1       8.766   8.016  16.666  0.00  0.00    +0.000 HD
ATOM     14  H   UNL     1       7.727   4.710  14.760  0.00  0.00    +0.000 HD
ATOM     15  H   UNL     1       6.126   4.249  14.550  0.00  0.00    +0.000 HD
ENDROOT
BRANCH   8  16
ATOM     16  O   UNL     1       2.736   2.684  17.252  0.00  0.00    +0.000 OA
ATOM     17  C   UNL     1       2.878   1.608  18.168  0.00  0.00    +0.000 C 
ENDBRANCH   8  16
BRANCH   9  18
ATOM     18  O   UNL     1       1.675   4.835  18.847  0.00  0.00    +0.000 OA
ATOM     19  C   UNL     1       1.569   4.664  20.248  0.00  0.00    +0.000 C 
ENDBRANCH   9  18
BRANCH   1  20
ATOM     20  C   UNL     1       7.934   9.506  17.923  0.00  0.00    +0.000 C 
BRANCH  20  21
ATOM     21  C   UNL     1       9.289  10.279  17.983  0.00  0.00    +0.000 C 
BRANCH  21  25
ATOM     22  C   UNL     1       9.997  13.379  20.988  0.00  0.00    +0.000 A 
ATOM     23  C   UNL     1      10.126  13.666  19.632  0.00  0.00    +0.000 A 
ATOM     24  C   UNL     1       9.891  12.694  18.642  0.00  0.00    +0.000 A 
ATOM     25  C   UNL     1       9.541  11.391  18.995  0.00  0.00    +0.000 A 
ATOM     26  C   UNL     1       9.437  11.100  20.375  0.00  0.00    +0.000 A 
ATOM     27  C   UNL     1       9.660  12.080  21.364  0.00  0.00    +0.000 A 
BRANCH  22  29
ATOM     28  C   UNL     1      10.731  15.626  21.251  0.00  0.00    +0.000 C 
ATOM     29  O   UNL     1      10.278  14.413  21.837  0.00  0.00    +0.000 OA
ENDBRANCH  22  29
ENDBRANCH  21  25
ENDBRANCH  20  21
ENDBRANCH   1  20
TORSDOF 6
ENDMDL
