MODEL 1
REMARK VINA RESULT:      -9.4      0.000      0.000
REMARK  Name = 
REMARK  4 active torsions:
REMARK  status: ('A' for Active; 'I' for Inactive)
REMARK    1  A    between atoms: C_2  and  C_4
REMARK    2  A    between atoms: C_7  and  C_8
REMARK    3  A    between atoms: C_11  and  C_12
REMARK    4  A    between atoms: C_18  and  C_19
REMARK                            x       y       z     vdW  Elec       q    Type
REMARK                         _______ _______ _______ _____ _____    ______ ____
ROOT
ATOM      1  C   UNL     1       0.423   9.978  19.993  0.00  0.00    +0.000 A 
ATOM      2  C   UNL     1       0.681  10.372  18.697  0.00  0.00    +0.000 A 
ATOM      3  C   UNL     1       1.476   9.445  17.979  0.00  0.00    +0.000 A 
ATOM      4  C   UNL     1       1.904   8.352  18.720  0.00  0.00    +0.000 A 
ATOM      5  S   UNL     1       1.246   8.480  20.314  0.00  0.00    +0.000 S 
ENDROOT
BRANCH   4   6
ATOM      6  C   UNL     1       2.775   7.240  18.217  0.00  0.00    +0.000 A 
ATOM      7  C   UNL     1       2.365   5.936  18.500  0.00  0.00    +0.000 A 
ATOM      8  N   UNL     1       3.041   4.800  18.220  0.00  0.00    +0.000 NA
ATOM      9  C   UNL     1       4.113   4.898  17.451  0.00  0.00    +0.000 A 
ATOM     10  C   UNL     1       4.719   3.706  17.120  0.00  0.00    +0.000 A 
ATOM     11  C   UNL     1       5.657   3.639  16.102  0.00  0.00    +0.000 A 
ATOM     12  C   UNL     1       6.009   4.794  15.404  0.00  0.00    +0.000 A 
ATOM     13  C   UNL     1       5.555   6.044  15.889  0.00  0.00    +0.000 A 
ATOM     14  C   UNL     1       4.576   6.123  16.928  0.00  0.00    +0.000 A 
ATOM     15  C   UNL     1       3.944   7.316  17.438  0.00  0.00    +0.000 A 
BRANCH  12  16
ATOM     16  C   UNL     1       6.697   4.600  14.082  0.00  0.00    +0.000 C 
ATOM     17  N   UNL     1       6.449   3.622  13.270  0.00  0.00    +0.000 NA
ATOM     18  N   UNL     1       7.725   5.415  13.694  0.00  0.00    +0.000 N 
ATOM     19  H   UNL     1       5.734   2.990  13.627  0.00  0.00    +0.000 HD
ATOM     20  H   UNL     1       7.590   6.414  13.785  0.00  0.00    +0.000 HD
ATOM     21  H   UNL     1       8.067   5.162  12.771  0.00  0.00    +0.000 HD
ENDBRANCH  12  16
ENDBRANCH   4   6
BRANCH   1  25
ATOM     22  C   UNL     1      -2.206  12.082  22.732  0.00  0.00    +0.000 A 
ATOM     23  C   UNL     1      -2.112  12.464  21.396  0.00  0.00    +0.000 A 
ATOM     24  C   UNL     1      -1.243  11.779  20.532  0.00  0.00    +0.000 A 
ATOM     25  C   UNL     1      -0.452  10.690  20.966  0.00  0.00    +0.000 A 
ATOM     26  C   UNL     1      -0.536  10.348  22.322  0.00  0.00    +0.000 A 
ATOM     27  C   UNL     1      -1.402  11.038  23.196  0.00  0.00    +0.000 A 
BRANCH  22  29
ATOM     28  N   UNL     1      -3.183  14.041  23.737  0.00  0.00    +0.000 NA
ATOM     29  C   UNL     1      -3.206  12.756  23.620  0.00  0.00    +0.000 C 
ATOM     30  N   UNL     1      -4.137  12.026  24.297  0.00  0.00    +0.000 N 
ATOM     31  H   UNL     1      -3.956  14.352  24.331  0.00  0.00    +0.000 HD
ATOM     32  H   UNL     1      -4.584  12.498  25.077  0.00  0.00    +0.000 HD
ATOM     33  H   UNL     1      -3.865  11.082  24.546  0.00  0.00    +0.000 HD
ENDBRANCH  22  29
ENDBRANCH   1  25
TORSDOF 4
ENDMDL
MODEL 2
REMARK VINA RESULT:      -9.1      0.194      1.285
REMARK  Name = 
REMARK  4 active torsions:
REMARK  status: ('A' for Active; 'I' for Inactive)
REMARK    1  A    between atoms: C_2  and  C_4
REMARK    2  A    between atoms: C_7  and  C_8
REMARK    3  A    between atoms: C_11  and  C_12
REMARK    4  A    between atoms: C_18  and  C_19
REMARK                            x       y       z     vdW  Elec       q    Type
REMARK                         _______ _______ _______ _____ _____    ______ ____
ROOT
ATOM      1  C   UNL     1       0.444  10.105  19.845  0.00  0.00    +0.000 A 
ATOM      2  C   UNL     1       0.907  10.588  18.639  0.00  0.00    +0.000 A 
ATOM      3  C   UNL     1       1.720   9.661  17.941  0.00  0.00    +0.000 A 
ATOM      4  C   UNL     1       1.957   8.472  18.617  0.00  0.00    +0.000 A 
ATOM      5  S   UNL     1       1.099   8.516  20.117  0.00  0.00    +0.000 S 
ENDROOT
BRANCH   4   6
ATOM      6  C   UNL     1       2.801   7.336  18.122  0.00  0.00    +0.000 A 
ATOM      7  C   UNL     1       2.316   6.045  18.337  0.00  0.00    +0.000 A 
ATOM      8  N   UNL     1       2.951   4.887  18.054  0.00  0.00    +0.000 NA
ATOM      9  C   UNL     1       4.067   4.958  17.346  0.00  0.00    +0.000 A 
ATOM     10  C   UNL     1       4.633   3.749  17.005  0.00  0.00    +0.000 A 
ATOM     11  C   UNL     1       5.620   3.669  16.036  0.00  0.00    +0.000 A 
ATOM     12  C   UNL     1       6.064   4.828  15.399  0.00  0.00    +0.000 A 
ATOM     13  C   UNL     1       5.643   6.082  15.902  0.00  0.00    +0.000 A 
ATOM     14  C   UNL     1       4.615   6.175  16.891  0.00  0.00    +0.000 A 
ATOM     15  C   UNL     1       4.013   7.381  17.409  0.00  0.00    +0.000 A 
BRANCH  12  16
ATOM     16  C   UNL     1       6.813   4.644  14.109  0.00  0.00    +0.000 C 
ATOM     17  N   UNL     1       7.780   5.409  13.715  0.00  0.00    +0.000 NA
ATOM     18  N   UNL     1       6.439   3.687  13.204  0.00  0.00    +0.000 N 
ATOM     19  H   UNL     1       7.980   6.158  14.376  0.00  0.00    +0.000 HD
ATOM     20  H   UNL     1       6.269   2.754  13.555  0.00  0.00    +0.000 HD
ATOM     21  H   UNL     1       7.057   3.682  12.397  0.00  0.00    +0.000 HD
ENDBRANCH  12  16
ENDBRANCH   4   6
BRANCH   1  25
ATOM     22  C   UNL     1      -2.222  12.113  22.619  0.00  0.00    +0.000 A 
ATOM     23  C   UNL     1      -1.393  11.079  23.046  0.00  0.00    +0.000 A 
ATOM     24  C   UNL     1      -0.550  10.433  22.127  0.00  0.00    +0.000 A 
ATOM     25  C   UNL     1      -0.499  10.802  20.764  0.00  0.00    +0.000 A 
ATOM     26  C   UNL     1      -1.368  11.819  20.350  0.00  0.00    +0.000 A 
ATOM     27  C   UNL     1      -2.222  12.466  21.268  0.00  0.00    +0.000 A 
BRANCH  22  29
ATOM     28  N   UNL     1      -3.936  12.222  24.308  0.00  0.00    +0.000 NA
ATOM     29  C   UNL     1      -3.044  12.858  23.624  0.00  0.00    +0.000 C 
ATOM     30  N   UNL     1      -2.856  14.193  23.824  0.00  0.00    +0.000 N 
ATOM     31  H   UNL     1      -4.372  12.853  24.985  0.00  0.00    +0.000 HD
ATOM     32  H   UNL     1      -3.613  14.679  24.294  0.00  0.00    +0.000 HD
ATOM     33  H   UNL     1      -2.522  14.718  23.025  0.00  0.00    +0.000 HD
ENDBRANCH  22  29
ENDBRANCH   1  25
TORSDOF 4
ENDMDL
MODEL 3
REMARK VINA RESULT:      -9.0      1.523     11.211
REMARK  Name = 
REMARK  4 active torsions:
REMARK  status: ('A' for Active; 'I' for Inactive)
REMARK    1  A    between atoms: C_2  and  C_4
REMARK    2  A    between atoms: C_7  and  C_8
REMARK    3  A    between atoms: C_11  and  C_12
REMARK    4  A    between atoms: C_18  and  C_19
REMARK                            x       y       z     vdW  Elec       q    Type
REMARK                         _______ _______ _______ _____ _____    ______ ____
ROOT
ATOM      1  C   UNL     1       2.617   7.352  18.820  0.00  0.00    +0.000 A 
ATOM      2  C   UNL     1       2.262   6.963  20.095  0.00  0.00    +0.000 A 
ATOM      3  C   UNL     1       1.328   7.835  20.705  0.00  0.00    +0.000 A 
ATOM      4  C   UNL     1       0.992   8.948  19.947  0.00  0.00    +0.000 A 
ATOM      5  S   UNL     1       1.825   8.852  18.435  0.00  0.00    +0.000 S 
ENDROOT
BRANCH   4   6
ATOM      6  C   UNL     1       0.052  10.040  20.362  0.00  0.00    +0.000 A 
ATOM      7  C   UNL     1      -0.702  10.646  19.355  0.00  0.00    +0.000 A 
ATOM      8  N   UNL     1      -1.536  11.699  19.495  0.00  0.00    +0.000 NA
ATOM      9  C   UNL     1      -1.813  12.102  20.725  0.00  0.00    +0.000 A 
ATOM     10  C   UNL     1      -2.736  13.120  20.823  0.00  0.00    +0.000 A 
ATOM     11  C   UNL     1      -3.328  13.435  22.035  0.00  0.00    +0.000 A 
ATOM     12  C   UNL     1      -2.982  12.722  23.183  0.00  0.00    +0.000 A 
ATOM     13  C   UNL     1      -1.882  11.832  23.124  0.00  0.00    +0.000 A 
ATOM     14  C   UNL     1      -1.274  11.491  21.875  0.00  0.00    +0.000 A 
ATOM     15  C   UNL     1      -0.228  10.521  21.655  0.00  0.00    +0.000 A 
BRANCH  12  16
ATOM     16  C   UNL     1      -3.925  12.822  24.349  0.00  0.00    +0.000 C 
ATOM     17  N   UNL     1      -3.899  13.776  25.225  0.00  0.00    +0.000 NA
ATOM     18  N   UNL     1      -4.828  11.829  24.616  0.00  0.00    +0.000 N 
ATOM     19  H   UNL     1      -3.163  14.456  25.040  0.00  0.00    +0.000 HD
ATOM     20  H   UNL     1      -5.386  11.485  23.845  0.00  0.00    +0.000 HD
ATOM     21  H   UNL     1      -5.400  12.059  25.424  0.00  0.00    +0.000 HD
ENDBRANCH  12  16
ENDBRANCH   4   6
BRANCH   1  25
ATOM     22  C   UNL     1       5.294   5.255  16.122  0.00  0.00    +0.000 A 
ATOM     23  C   UNL     1       5.298   6.646  16.195  0.00  0.00    +0.000 A 
ATOM     24  C   UNL     1       4.411   7.304  17.063  0.00  0.00    +0.000 A 
ATOM     25  C   UNL     1       3.506   6.600  17.891  0.00  0.00    +0.000 A 
ATOM     26  C   UNL     1       3.495   5.204  17.774  0.00  0.00    +0.000 A 
ATOM     27  C   UNL     1       4.378   4.539  16.896  0.00  0.00    +0.000 A 
BRANCH  22  29
ATOM     28  N   UNL     1       6.109   3.335  14.918  0.00  0.00    +0.000 NA
ATOM     29  C   UNL     1       6.307   4.562  15.265  0.00  0.00    +0.000 C 
ATOM     30  N   UNL     1       7.429   5.216  14.849  0.00  0.00    +0.000 N 
ATOM     31  H   UNL     1       6.858   3.023  14.294  0.00  0.00    +0.000 HD
ATOM     32  H   UNL     1       8.187   4.625  14.523  0.00  0.00    +0.000 HD
ATOM     33  H   UNL     1       7.769   5.947  15.461  0.00  0.00    +0.000 HD
ENDBRANCH  22  29
ENDBRANCH   1  25
TORSDOF 4
ENDMDL
MODEL 4
REMARK VINA RESULT:      -8.7      1.569     11.215
REMARK  Name = 
REMARK  4 active torsions:
REMARK  status: ('A' for Active; 'I' for Inactive)
REMARK    1  A    between atoms: C_2  and  C_4
REMARK    2  A    between atoms: C_7  and  C_8
REMARK    3  A    between atoms: C_11  and  C_12
REMARK    4  A    between atoms: C_18  and  C_19
REMARK                            x       y       z     vdW  Elec       q    Type
REMARK                         _______ _______ _______ _____ _____    ______ ____
ROOT
ATOM      1  C   UNL     1       2.047   8.339  18.678  0.00  0.00    +0.000 A 
ATOM      2  C   UNL     1       1.885   9.494  17.943  0.00  0.00    +0.000 A 
ATOM      3  C   UNL     1       1.296  10.548  18.683  0.00  0.00    +0.000 A 
ATOM      4  C   UNL     1       0.930  10.214  19.980  0.00  0.00    +0.000 A 
ATOM      5  S   UNL     1       1.388   8.573  20.271  0.00  0.00    +0.000 S 
ENDROOT
BRANCH   4   6
ATOM      6  C   UNL     1       0.266  11.127  20.966  0.00  0.00    +0.000 A 
ATOM      7  C   UNL     1       0.671  12.463  20.968  0.00  0.00    +0.000 A 
ATOM      8  N   UNL     1       0.270  13.427  21.825  0.00  0.00    +0.000 NA
ATOM      9  C   UNL     1      -0.733  13.143  22.641  0.00  0.00    +0.000 A 
ATOM     10  C   UNL     1      -1.167  14.182  23.434  0.00  0.00    +0.000 A 
ATOM     11  C   UNL     1      -2.375  14.111  24.108  0.00  0.00    +0.000 A 
ATOM     12  C   UNL     1      -3.166  12.968  23.997  0.00  0.00    +0.000 A 
ATOM     13  C   UNL     1      -2.622  11.824  23.366  0.00  0.00    +0.000 A 
ATOM     14  C   UNL     1      -1.383  11.892  22.656  0.00  0.00    +0.000 A 
ATOM     15  C   UNL     1      -0.769  10.843  21.876  0.00  0.00    +0.000 A 
BRANCH  12  16
ATOM     16  C   UNL     1      -4.608  13.104  24.400  0.00  0.00    +0.000 C 
ATOM     17  N   UNL     1      -5.331  12.129  24.852  0.00  0.00    +0.000 NA
ATOM     18  N   UNL     1      -5.287  14.277  24.215  0.00  0.00    +0.000 N 
ATOM     19  H   UNL     1      -4.816  11.251  24.903  0.00  0.00    +0.000 HD
ATOM     20  H   UNL     1      -4.838  15.130  24.522  0.00  0.00    +0.000 HD
ATOM     21  H   UNL     1      -6.242  14.208  24.555  0.00  0.00    +0.000 HD
ENDBRANCH  12  16
ENDBRANCH   4   6
BRANCH   1  25
ATOM     22  C   UNL     1       4.102   4.766  17.317  0.00  0.00    +0.000 A 
ATOM     23  C   UNL     1       4.576   6.033  16.987  0.00  0.00    +0.000 A 
ATOM     24  C   UNL     1       3.886   7.175  17.425  0.00  0.00    +0.000 A 
ATOM     25  C   UNL     1       2.714   7.091  18.212  0.00  0.00    +0.000 A 
ATOM     26  C   UNL     1       2.235   5.807  18.500  0.00  0.00    +0.000 A 
ATOM     27  C   UNL     1       2.921   4.656  18.056  0.00  0.00    +0.000 A 
BRANCH  22  29
ATOM     28  N   UNL     1       4.496   2.390  17.297  0.00  0.00    +0.000 NA
ATOM     29  C   UNL     1       4.898   3.559  16.928  0.00  0.00    +0.000 C 
ATOM     30  N   UNL     1       6.035   3.687  16.186  0.00  0.00    +0.000 N 
ATOM     31  H   UNL     1       5.112   1.670  16.910  0.00  0.00    +0.000 HD
ATOM     32  H   UNL     1       6.660   2.888  16.200  0.00  0.00    +0.000 HD
ATOM     33  H   UNL     1       6.544   4.555  16.301  0.00  0.00    +0.000 HD
ENDBRANCH  22  29
ENDBRANCH   1  25
TORSDOF 4
ENDMDL
MODEL 5
REMARK VINA RESULT:      -8.7      1.848     10.834
REMARK  Name = 
REMARK  4 active torsions:
REMARK  status: ('A' for Active; 'I' for Inactive)
REMARK    1  A    between atoms: C_2  and  C_4
REMARK    2  A    between atoms: C_7  and  C_8
REMARK    3  A    between atoms: C_11  and  C_12
REMARK    4  A    between atoms: C_18  and  C_19
REMARK                            x       y       z     vdW  Elec       q    Type
REMARK                         _______ _______ _______ _____ _____    ______ ____
ROOT
ATOM      1  C   UNL     1       3.009   6.693  18.645  0.00  0.00    +0.000 A 
ATOM      2  C   UNL     1       2.618   6.077  19.815  0.00  0.00    +0.000 A 
ATOM      3  C   UNL     1       1.741   6.867  20.596  0.00  0.00    +0.000 A 
ATOM      4  C   UNL     1       1.487   8.132  20.084  0.00  0.00    +0.000 A 
ATOM      5  S   UNL     1       2.324   8.291  18.579  0.00  0.00    +0.000 S 
ENDROOT
BRANCH   4   6
ATOM      6  C   UNL     1       0.621   9.178  20.720  0.00  0.00    +0.000 A 
ATOM      7  C   UNL     1       0.833   9.439  22.075  0.00  0.00    +0.000 A 
ATOM      8  N   UNL     1       0.113  10.271  22.858  0.00  0.00    +0.000 NA
ATOM      9  C   UNL     1      -0.775  11.055  22.267  0.00  0.00    +0.000 A 
ATOM     10  C   UNL     1      -1.422  11.948  23.091  0.00  0.00    +0.000 A 
ATOM     11  C   UNL     1      -2.147  13.007  22.569  0.00  0.00    +0.000 A 
ATOM     12  C   UNL     1      -2.238  13.172  21.187  0.00  0.00    +0.000 A 
ATOM     13  C   UNL     1      -1.762  12.138  20.347  0.00  0.00    +0.000 A 
ATOM     14  C   UNL     1      -1.001  11.049  20.875  0.00  0.00    +0.000 A 
ATOM     15  C   UNL     1      -0.361   9.992  20.127  0.00  0.00    +0.000 A 
BRANCH  12  16
ATOM     16  C   UNL     1      -2.673  14.525  20.697  0.00  0.00    +0.000 C 
ATOM     17  N   UNL     1      -3.904  14.928  20.673  0.00  0.00    +0.000 NA
ATOM     18  N   UNL     1      -1.778  15.398  20.140  0.00  0.00    +0.000 N 
ATOM     19  H   UNL     1      -4.552  14.224  21.022  0.00  0.00    +0.000 HD
ATOM     20  H   UNL     1      -0.910  15.555  20.635  0.00  0.00    +0.000 HD
ATOM     21  H   UNL     1      -2.229  16.270  19.878  0.00  0.00    +0.000 HD
ENDBRANCH  12  16
ENDBRANCH   4   6
BRANCH   1  25
ATOM     22  C   UNL     1       5.538   5.036  15.530  0.00  0.00    +0.000 A 
ATOM     23  C   UNL     1       5.370   6.413  15.657  0.00  0.00    +0.000 A 
ATOM     24  C   UNL     1       4.534   6.926  16.663  0.00  0.00    +0.000 A 
ATOM     25  C   UNL     1       3.852   6.088  17.575  0.00  0.00    +0.000 A 
ATOM     26  C   UNL     1       4.008   4.707  17.405  0.00  0.00    +0.000 A 
ATOM     27  C   UNL     1       4.840   4.187  16.392  0.00  0.00    +0.000 A 
BRANCH  22  29
ATOM     28  N   UNL     1       6.239   3.400  13.908  0.00  0.00    +0.000 NA
ATOM     29  C   UNL     1       6.506   4.505  14.519  0.00  0.00    +0.000 C 
ATOM     30  N   UNL     1       7.657   5.179  14.237  0.00  0.00    +0.000 N 
ATOM     31  H   UNL     1       6.965   3.200  13.215  0.00  0.00    +0.000 HD
ATOM     32  H   UNL     1       8.379   4.640  13.771  0.00  0.00    +0.000 HD
ATOM     33  H   UNL     1       8.041   5.735  14.992  0.00  0.00    +0.000 HD
ENDBRANCH  22  29
ENDBRANCH   1  25
TORSDOF 4
ENDMDL
MODEL 6
REMARK VINA RESULT:      -8.7      1.506     11.207
REMARK  Name = 
REMARK  4 active torsions:
REMARK  status: ('A' for Active; 'I' for Inactive)
REMARK    1  A    between atoms: C_2  and  C_4
REMARK    2  A    between atoms: C_7  and  C_8
REMARK    3  A    between atoms: C_11  and  C_12
REMARK    4  A    between atoms: C_18  and  C_19
REMARK                            x       y       z     vdW  Elec       q    Type
REMARK                         _______ _______ _______ _____ _____    ______ ____
ROOT
ATOM      1  C   UNL     1       2.752   7.368  18.725  0.00  0.00    +0.000 A 
ATOM      2  C   UNL     1       2.318   6.895  19.945  0.00  0.00    +0.000 A 
ATOM      3  C   UNL     1       1.339   7.723  20.548  0.00  0.00    +0.000 A 
ATOM      4  C   UNL     1       1.044   8.881  19.843  0.00  0.00    +0.000 A 
ATOM      5  S   UNL     1       1.975   8.886  18.385  0.00  0.00    +0.000 S 
ENDROOT
BRANCH   4   6
ATOM      6  C   UNL     1       0.071   9.941  20.265  0.00  0.00    +0.000 A 
ATOM      7  C   UNL     1      -0.763  10.467  19.276  0.00  0.00    +0.000 A 
ATOM      8  N   UNL     1      -1.642  11.482  19.420  0.00  0.00    +0.000 NA
ATOM      9  C   UNL     1      -1.879  11.919  20.646  0.00  0.00    +0.000 A 
ATOM     10  C   UNL     1      -2.847  12.893  20.754  0.00  0.00    +0.000 A 
ATOM     11  C   UNL     1      -3.394  13.226  21.983  0.00  0.00    +0.000 A 
ATOM     12  C   UNL     1      -2.955  12.577  23.136  0.00  0.00    +0.000 A 
ATOM     13  C   UNL     1      -1.815  11.742  23.054  0.00  0.00    +0.000 A 
ATOM     14  C   UNL     1      -1.253  11.383  21.789  0.00  0.00    +0.000 A 
ATOM     15  C   UNL     1      -0.170  10.457  21.551  0.00  0.00    +0.000 A 
BRANCH  12  16
ATOM     16  C   UNL     1      -3.843  12.676  24.345  0.00  0.00    +0.000 C 
ATOM     17  N   UNL     1      -4.692  11.764  24.700  0.00  0.00    +0.000 NA
ATOM     18  N   UNL     1      -3.876  13.811  25.108  0.00  0.00    +0.000 N 
ATOM     19  H   UNL     1      -4.698  10.967  24.065  0.00  0.00    +0.000 HD
ATOM     20  H   UNL     1      -2.990  14.211  25.389  0.00  0.00    +0.000 HD
ATOM     21  H   UNL     1      -4.512  13.709  25.895  0.00  0.00    +0.000 HD
ENDBRANCH  12  16
ENDBRANCH   4   6
BRANCH   1  25
ATOM     22  C   UNL     1       5.443   5.271  16.040  0.00  0.00    +0.000 A 
ATOM     23  C   UNL     1       4.512   4.575  16.806  0.00  0.00    +0.000 A 
ATOM     24  C   UNL     1       3.662   5.273  17.680  0.00  0.00    +0.000 A 
ATOM     25  C   UNL     1       3.706   6.680  17.809  0.00  0.00    +0.000 A 
ATOM     26  C   UNL     1       4.674   7.355  17.056  0.00  0.00    +0.000 A 
ATOM     27  C   UNL     1       5.536   6.657  16.183  0.00  0.00    +0.000 A 
BRANCH  22  29
ATOM     28  N   UNL     1       5.922   3.339  14.684  0.00  0.00    +0.000 NA
ATOM     29  C   UNL     1       6.276   4.528  15.043  0.00  0.00    +0.000 C 
ATOM     30  N   UNL     1       7.395   5.096  14.512  0.00  0.00    +0.000 N 
ATOM     31  H   UNL     1       6.558   2.989  13.962  0.00  0.00    +0.000 HD
ATOM     32  H   UNL     1       8.050   4.454  14.076  0.00  0.00    +0.000 HD
ATOM     33  H   UNL     1       7.874   5.767  15.100  0.00  0.00    +0.000 HD
ENDBRANCH  22  29
ENDBRANCH   1  25
TORSDOF 4
ENDMDL
MODEL 7
REMARK VINA RESULT:      -8.7      1.608     11.222
REMARK  Name = 
REMARK  4 active torsions:
REMARK  status: ('A' for Active; 'I' for Inactive)
REMARK    1  A    between atoms: C_2  and  C_4
REMARK    2  A    between atoms: C_7  and  C_8
REMARK    3  A    between atoms: C_11  and  C_12
REMARK    4  A    between atoms: C_18  and  C_19
REMARK                            x       y       z     vdW  Elec       q    Type
REMARK                         _______ _______ _______ _____ _____    ______ ____
ROOT
ATOM      1  C   UNL     1       2.074   8.259  18.694  0.00  0.00    +0.000 A 
ATOM      2  C   UNL     1       1.711   9.316  17.885  0.00  0.00    +0.000 A 
ATOM      3  C   UNL     1       1.096  10.376  18.594  0.00  0.00    +0.000 A 
ATOM      4  C   UNL     1       0.908  10.138  19.949  0.00  0.00    +0.000 A 
ATOM      5  S   UNL     1       1.568   8.585  20.327  0.00  0.00    +0.000 S 
ENDROOT
BRANCH   4   6
ATOM      6  C   UNL     1       0.259  11.075  20.922  0.00  0.00    +0.000 A 
ATOM      7  C   UNL     1       0.687  12.404  20.907  0.00  0.00    +0.000 A 
ATOM      8  N   UNL     1       0.302  13.385  21.751  0.00  0.00    +0.000 NA
ATOM      9  C   UNL     1      -0.706  13.129  22.569  0.00  0.00    +0.000 A 
ATOM     10  C   UNL     1      -1.122  14.186  23.348  0.00  0.00    +0.000 A 
ATOM     11  C   UNL     1      -2.332  14.145  24.022  0.00  0.00    +0.000 A 
ATOM     12  C   UNL     1      -3.143  13.014  23.926  0.00  0.00    +0.000 A 
ATOM     13  C   UNL     1      -2.617  11.853  23.310  0.00  0.00    +0.000 A 
ATOM     14  C   UNL     1      -1.377  11.890  22.600  0.00  0.00    +0.000 A 
ATOM     15  C   UNL     1      -0.781  10.820  21.835  0.00  0.00    +0.000 A 
BRANCH  12  16
ATOM     16  C   UNL     1      -4.582  13.180  24.325  0.00  0.00    +0.000 C 
ATOM     17  N   UNL     1      -5.204  14.316  24.349  0.00  0.00    +0.000 NA
ATOM     18  N   UNL     1      -5.313  12.123  24.795  0.00  0.00    +0.000 N 
ATOM     19  H   UNL     1      -4.607  15.093  24.069  0.00  0.00    +0.000 HD
ATOM     20  H   UNL     1      -5.275  11.259  24.269  0.00  0.00    +0.000 HD
ATOM     21  H   UNL     1      -6.269  12.398  25.003  0.00  0.00    +0.000 HD
ENDBRANCH  12  16
ENDBRANCH   4   6
BRANCH   1  25
ATOM     22  C   UNL     1       4.127   4.647  17.441  0.00  0.00    +0.000 A 
ATOM     23  C   UNL     1       2.970   4.580  18.212  0.00  0.00    +0.000 A 
ATOM     24  C   UNL     1       2.331   5.762  18.620  0.00  0.00    +0.000 A 
ATOM     25  C   UNL     1       2.817   7.042  18.264  0.00  0.00    +0.000 A 
ATOM     26  C   UNL     1       4.002   7.085  17.519  0.00  0.00    +0.000 A 
ATOM     27  C   UNL     1       4.651   5.900  17.114  0.00  0.00    +0.000 A 
BRANCH  22  29
ATOM     28  N   UNL     1       5.672   3.446  16.037  0.00  0.00    +0.000 NA
ATOM     29  C   UNL     1       4.744   3.381  16.931  0.00  0.00    +0.000 C 
ATOM     30  N   UNL     1       4.338   2.170  17.406  0.00  0.00    +0.000 N 
ATOM     31  H   UNL     1       6.027   2.507  15.833  0.00  0.00    +0.000 HD
ATOM     32  H   UNL     1       4.582   1.368  16.834  0.00  0.00    +0.000 HD
ATOM     33  H   UNL     1       3.376   2.117  17.722  0.00  0.00    +0.000 HD
ENDBRANCH  22  29
ENDBRANCH   1  25
TORSDOF 4
ENDMDL
MODEL 8
REMARK VINA RESULT:      -8.6      2.599     11.248
REMARK  Name = 
REMARK  4 active torsions:
REMARK  status: ('A' for Active; 'I' for Inactive)
REMARK    1  A    between atoms: C_2  and  C_4
REMARK    2  A    between atoms: C_7  and  C_8
REMARK    3  A    between atoms: C_11  and  C_12
REMARK    4  A    between atoms: C_18  and  C_19
REMARK                            x       y       z     vdW  Elec       q    Type
REMARK                         _______ _______ _______ _____ _____    ______ ____
ROOT
ATOM      1  C   UNL     1       1.929   7.625  19.753  0.00  0.00    +0.000 A 
ATOM      2  C   UNL     1       1.821   8.619  18.803  0.00  0.00    +0.000 A 
ATOM      3  C   UNL     1       1.237   9.808  19.302  0.00  0.00    +0.000 A 
ATOM      4  C   UNL     1       0.821   9.740  20.625  0.00  0.00    +0.000 A 
ATOM      5  S   UNL     1       1.226   8.178  21.245  0.00  0.00    +0.000 S 
ENDROOT
BRANCH   4   6
ATOM      6  C   UNL     1       0.150  10.840  21.391  0.00  0.00    +0.000 A 
ATOM      7  C   UNL     1       0.600  12.141  21.159  0.00  0.00    +0.000 A 
ATOM      8  N   UNL     1       0.198  13.260  21.800  0.00  0.00    +0.000 NA
ATOM      9  C   UNL     1      -0.845  13.162  22.608  0.00  0.00    +0.000 A 
ATOM     10  C   UNL     1      -1.274  14.344  23.171  0.00  0.00    +0.000 A 
ATOM     11  C   UNL     1      -2.510  14.433  23.792  0.00  0.00    +0.000 A 
ATOM     12  C   UNL     1      -3.334  13.311  23.862  0.00  0.00    +0.000 A 
ATOM     13  C   UNL     1      -2.805  12.054  23.483  0.00  0.00    +0.000 A 
ATOM     14  C   UNL     1      -1.537  11.954  22.829  0.00  0.00    +0.000 A 
ATOM     15  C   UNL     1      -0.930  10.760  22.290  0.00  0.00    +0.000 A 
BRANCH  12  16
ATOM     16  C   UNL     1      -4.786  13.558  24.167  0.00  0.00    +0.000 C 
ATOM     17  N   UNL     1      -5.331  14.732  24.202  0.00  0.00    +0.000 NA
ATOM     18  N   UNL     1      -5.616  12.534  24.532  0.00  0.00    +0.000 N 
ATOM     19  H   UNL     1      -4.666  15.478  24.002  0.00  0.00    +0.000 HD
ATOM     20  H   UNL     1      -5.596  11.693  23.969  0.00  0.00    +0.000 HD
ATOM     21  H   UNL     1      -6.565  12.865  24.685  0.00  0.00    +0.000 HD
ENDBRANCH  12  16
ENDBRANCH   4   6
BRANCH   1  25
ATOM     22  C   UNL     1       3.718   3.702  19.256  0.00  0.00    +0.000 A 
ATOM     23  C   UNL     1       2.880   3.974  20.334  0.00  0.00    +0.000 A 
ATOM     24  C   UNL     1       2.325   5.256  20.484  0.00  0.00    +0.000 A 
ATOM     25  C   UNL     1       2.577   6.297  19.562  0.00  0.00    +0.000 A 
ATOM     26  C   UNL     1       3.451   6.011  18.506  0.00  0.00    +0.000 A 
ATOM     27  C   UNL     1       4.017   4.727  18.356  0.00  0.00    +0.000 A 
BRANCH  22  29
ATOM     28  N   UNL     1       4.968   1.768  19.961  0.00  0.00    +0.000 NA
ATOM     29  C   UNL     1       4.225   2.308  19.054  0.00  0.00    +0.000 C 
ATOM     30  N   UNL     1       3.906   1.609  17.928  0.00  0.00    +0.000 N 
ATOM     31  H   UNL     1       5.187   0.802  19.703  0.00  0.00    +0.000 HD
ATOM     32  H   UNL     1       4.495   0.808  17.726  0.00  0.00    +0.000 HD
ATOM     33  H   UNL     1       3.739   2.161  17.095  0.00  0.00    +0.000 HD
ENDBRANCH  22  29
ENDBRANCH   1  25
TORSDOF 4
ENDMDL
MODEL 9
REMARK VINA RESULT:      -8.6      0.870      1.130
REMARK  Name = 
REMARK  4 active torsions:
REMARK  status: ('A' for Active; 'I' for Inactive)
REMARK    1  A    between atoms: C_2  and  C_4
REMARK    2  A    between atoms: C_7  and  C_8
REMARK    3  A    between atoms: C_11  and  C_12
REMARK    4  A    between atoms: C_18  and  C_19
REMARK                            x       y       z     vdW  Elec       q    Type
REMARK                         _______ _______ _______ _____ _____    ______ ____
ROOT
ATOM      1  C   UNL     1       0.693  10.272  20.026  0.00  0.00    +0.000 A 
ATOM      2  C   UNL     1       0.522  10.379  18.662  0.00  0.00    +0.000 A 
ATOM      3  C   UNL     1       1.168   9.350  17.935  0.00  0.00    +0.000 A 
ATOM      4  C   UNL     1       1.904   8.465  18.711  0.00  0.00    +0.000 A 
ATOM      5  S   UNL     1       1.726   8.915  20.371  0.00  0.00    +0.000 S 
ENDROOT
BRANCH   4   6
ATOM      6  C   UNL     1       2.704   7.305  18.198  0.00  0.00    +0.000 A 
ATOM      7  C   UNL     1       2.145   6.034  18.343  0.00  0.00    +0.000 A 
ATOM      8  N   UNL     1       2.728   4.856  18.034  0.00  0.00    +0.000 NA
ATOM      9  C   UNL     1       3.870   4.894  17.366  0.00  0.00    +0.000 A 
ATOM     10  C   UNL     1       4.383   3.671  16.995  0.00  0.00    +0.000 A 
ATOM     11  C   UNL     1       5.398   3.576  16.056  0.00  0.00    +0.000 A 
ATOM     12  C   UNL     1       5.923   4.734  15.482  0.00  0.00    +0.000 A 
ATOM     13  C   UNL     1       5.552   5.988  16.022  0.00  0.00    +0.000 A 
ATOM     14  C   UNL     1       4.496   6.097  16.980  0.00  0.00    +0.000 A 
ATOM     15  C   UNL     1       3.941   7.312  17.527  0.00  0.00    +0.000 A 
BRANCH  12  16
ATOM     16  C   UNL     1       6.706   4.560  14.210  0.00  0.00    +0.000 C 
ATOM     17  N   UNL     1       7.671   5.341  13.839  0.00  0.00    +0.000 NA
ATOM     18  N   UNL     1       6.370   3.598  13.298  0.00  0.00    +0.000 N 
ATOM     19  H   UNL     1       7.843   6.093  14.504  0.00  0.00    +0.000 HD
ATOM     20  H   UNL     1       6.206   2.662  13.646  0.00  0.00    +0.000 HD
ATOM     21  H   UNL     1       7.007   3.602  12.506  0.00  0.00    +0.000 HD
ENDBRANCH  12  16
ENDBRANCH   4   6
BRANCH   1  25
ATOM     22  C   UNL     1      -1.129  12.914  22.948  0.00  0.00    +0.000 A 
ATOM     23  C   UNL     1      -0.302  13.417  21.947  0.00  0.00    +0.000 A 
ATOM     24  C   UNL     1       0.290  12.541  21.022  0.00  0.00    +0.000 A 
ATOM     25  C   UNL     1       0.068  11.145  21.058  0.00  0.00    +0.000 A 
ATOM     26  C   UNL     1      -0.737  10.658  22.095  0.00  0.00    +0.000 A 
ATOM     27  C   UNL     1      -1.327  11.533  23.032  0.00  0.00    +0.000 A 
BRANCH  22  29
ATOM     28  N   UNL     1      -1.142  14.753  24.503  0.00  0.00    +0.000 NA
ATOM     29  C   UNL     1      -1.830  13.864  23.868  0.00  0.00    +0.000 C 
ATOM     30  N   UNL     1      -3.181  13.800  24.035  0.00  0.00    +0.000 N 
ATOM     31  H   UNL     1      -1.767  15.356  25.045  0.00  0.00    +0.000 HD
ATOM     32  H   UNL     1      -3.545  14.265  24.860  0.00  0.00    +0.000 HD
ATOM     33  H   UNL     1      -3.600  12.886  23.914  0.00  0.00    +0.000 HD
ENDBRANCH  22  29
ENDBRANCH   1  25
TORSDOF 4
ENDMDL
