MODEL 1
REMARK VINA RESULT:      -8.0      0.000      0.000
REMARK  Name = 
REMARK  7 active torsions:
REMARK  status: ('A' for Active; 'I' for Inactive)
REMARK    1  A    between atoms: C_1  and  C_2
REMARK    2  A    between atoms: C_2  and  C_3
REMARK    3  A    between atoms: C_6  and  N_7
REMARK    4  A    between atoms: N_7  and  C_8
REMARK    5  A    between atoms: C_13  and  N_14
REMARK    6  A    between atoms: N_14  and  S_15
REMARK    7  A    between atoms: S_15  and  C_18
REMARK                            x       y       z     vdW  Elec       q    Type
REMARK                         _______ _______ _______ _____ _____    ______ ____
ROOT
ATOM      1  C   UNL     1       3.831   5.500  18.594  0.00  0.00    +0.000 A 
ATOM      2  C   UNL     1       5.156   5.812  18.297  0.00  0.00    +0.000 A 
ATOM      3  N   UNL     1       5.909   5.173  17.368  0.00  0.00    +0.000 NA
ATOM      4  C   UNL     1       5.311   4.184  16.676  0.00  0.00    +0.000 A 
ATOM      5  C   UNL     1       3.990   3.811  16.851  0.00  0.00    +0.000 A 
ATOM      6  C   UNL     1       3.247   4.482  17.819  0.00  0.00    +0.000 A 
ENDROOT
BRANCH   1   7
ATOM      7  N   UNL     1       3.081   6.204  19.562  0.00  0.00    +0.000 N 
ATOM      8  H   UNL     1       2.548   5.557  20.142  0.00  0.00    +0.000 HD
BRANCH   7  12
ATOM      9  C   UNL     1       0.743   9.672  18.890  0.00  0.00    +0.000 A 
ATOM     10  C   UNL     1       1.556   9.155  17.876  0.00  0.00    +0.000 A 
ATOM     11  C   UNL     1       2.381   8.049  18.120  0.00  0.00    +0.000 A 
ATOM     12  C   UNL     1       2.423   7.449  19.386  0.00  0.00    +0.000 A 
ATOM     13  C   UNL     1       1.687   8.043  20.421  0.00  0.00    +0.000 A 
ATOM     14  C   UNL     1       0.855   9.140  20.178  0.00  0.00    +0.000 A 
BRANCH   9  16
ATOM     15  C   UNL     1      -1.396  10.042  17.671  0.00  0.00    +0.000 C 
ATOM     16  C   UNL     1      -0.335  10.677  18.567  0.00  0.00    +0.000 C 
ENDBRANCH   9  16
ENDBRANCH   7  12
ENDBRANCH   1   7
BRANCH   6  17
ATOM     17  N   UNL     1       1.871   4.109  18.020  0.00  0.00    +0.000 N 
ATOM     18  H   UNL     1       1.353   3.994  17.141  0.00  0.00    +0.000 HD
BRANCH  17  19
ATOM     19  S   UNL     1       1.565   2.766  19.024  0.00  0.00    +0.000 S 
ATOM     20  O   UNL     1       0.284   2.270  18.538  0.00  0.00    +0.000 OA
ATOM     21  O   UNL     1       2.728   1.889  18.947  0.00  0.00    +0.000 OA
BRANCH  19  22
ATOM     22  C   UNL     1       1.352   3.474  20.755  0.00  0.00    +0.000 C 
ATOM     23  F   UNL     1       2.550   3.758  21.348  0.00  0.00    +0.000 F 
ATOM     24  F   UNL     1       0.633   4.632  20.756  0.00  0.00    +0.000 F 
ATOM     25  F   UNL     1       0.704   2.610  21.588  0.00  0.00    +0.000 F 
ENDBRANCH  19  22
ENDBRANCH  17  19
ENDBRANCH   6  17
TORSDOF 6
ENDMDL
MODEL 2
REMARK VINA RESULT:      -8.0      3.270      4.105
REMARK  Name = 
REMARK  7 active torsions:
REMARK  status: ('A' for Active; 'I' for Inactive)
REMARK    1  A    between atoms: C_1  and  C_2
REMARK    2  A    between atoms: C_2  and  C_3
REMARK    3  A    between atoms: C_6  and  N_7
REMARK    4  A    between atoms: N_7  and  C_8
REMARK    5  A    between atoms: C_13  and  N_14
REMARK    6  A    between atoms: N_14  and  S_15
REMARK    7  A    between atoms: S_15  and  C_18
REMARK                            x       y       z     vdW  Elec       q    Type
REMARK                         _______ _______ _______ _____ _____    ______ ____
ROOT
ATOM      1  C   UNL     1       2.259   4.880  19.528  0.00  0.00    +0.000 A 
ATOM      2  C   UNL     1       1.195   4.217  20.136  0.00  0.00    +0.000 A 
ATOM      3  N   UNL     1       0.697   3.023  19.729  0.00  0.00    +0.000 NA
ATOM      4  C   UNL     1       1.301   2.440  18.675  0.00  0.00    +0.000 A 
ATOM      5  C   UNL     1       2.390   2.980  18.016  0.00  0.00    +0.000 A 
ATOM      6  C   UNL     1       2.872   4.211  18.454  0.00  0.00    +0.000 A 
ENDROOT
BRANCH   1   7
ATOM      7  N   UNL     1       2.753   6.118  19.997  0.00  0.00    +0.000 N 
ATOM      8  H   UNL     1       3.081   6.031  20.958  0.00  0.00    +0.000 HD
BRANCH   7  12
ATOM      9  C   UNL     1       0.789   9.737  19.002  0.00  0.00    +0.000 A 
ATOM     10  C   UNL     1       1.603   9.089  18.067  0.00  0.00    +0.000 A 
ATOM     11  C   UNL     1       2.306   7.929  18.418  0.00  0.00    +0.000 A 
ATOM     12  C   UNL     1       2.224   7.405  19.715  0.00  0.00    +0.000 A 
ATOM     13  C   UNL     1       1.494   8.123  20.671  0.00  0.00    +0.000 A 
ATOM     14  C   UNL     1       0.781   9.275  20.321  0.00  0.00    +0.000 A 
BRANCH   9  16
ATOM     15  C   UNL     1      -1.403  10.189  17.911  0.00  0.00    +0.000 C 
ATOM     16  C   UNL     1      -0.172  10.814  18.562  0.00  0.00    +0.000 C 
ENDBRANCH   9  16
ENDBRANCH   7  12
ENDBRANCH   1   7
BRANCH   6  17
ATOM     17  N   UNL     1       4.004   4.793  17.780  0.00  0.00    +0.000 N 
ATOM     18  H   UNL     1       3.857   5.777  17.524  0.00  0.00    +0.000 HD
BRANCH  17  19
ATOM     19  S   UNL     1       5.526   4.636  18.530  0.00  0.00    +0.000 S 
ATOM     20  O   UNL     1       5.667   5.886  19.266  0.00  0.00    +0.000 OA
ATOM     21  O   UNL     1       5.516   3.384  19.278  0.00  0.00    +0.000 OA
BRANCH  19  22
ATOM     22  C   UNL     1       6.775   4.587  17.124  0.00  0.00    +0.000 C 
ATOM     23  F   UNL     1       8.008   4.170  17.543  0.00  0.00    +0.000 F 
ATOM     24  F   UNL     1       6.398   3.740  16.125  0.00  0.00    +0.000 F 
ATOM     25  F   UNL     1       6.956   5.812  16.553  0.00  0.00    +0.000 F 
ENDBRANCH  19  22
ENDBRANCH  17  19
ENDBRANCH   6  17
TORSDOF 6
ENDMDL
MODEL 3
REMARK VINA RESULT:      -7.9      0.389      1.088
REMARK  Name = 
REMARK  7 active torsions:
REMARK  status: ('A' for Active; 'I' for Inactive)
REMARK    1  A    between atoms: C_1  and  C_2
REMARK    2  A    between atoms: C_2  and  C_3
REMARK    3  A    between atoms: C_6  and  N_7
REMARK    4  A    between atoms: N_7  and  C_8
REMARK    5  A    between atoms: C_13  and  N_14
REMARK    6  A    between atoms: N_14  and  S_15
REMARK    7  A    between atoms: S_15  and  C_18
REMARK                            x       y       z     vdW  Elec       q    Type
REMARK                         _______ _______ _______ _____ _____    ______ ____
ROOT
ATOM      1  C   UNL     1       3.943   5.445  18.602  0.00  0.00    +0.000 A 
ATOM      2  C   UNL     1       5.275   5.725  18.306  0.00  0.00    +0.000 A 
ATOM      3  N   UNL     1       6.011   5.073  17.370  0.00  0.00    +0.000 NA
ATOM      4  C   UNL     1       5.386   4.105  16.673  0.00  0.00    +0.000 A 
ATOM      5  C   UNL     1       4.057   3.764  16.847  0.00  0.00    +0.000 A 
ATOM      6  C   UNL     1       3.332   4.448  17.821  0.00  0.00    +0.000 A 
ENDROOT
BRANCH   1   7
ATOM      7  N   UNL     1       3.213   6.161  19.576  0.00  0.00    +0.000 N 
ATOM      8  H   UNL     1       2.846   5.527  20.286  0.00  0.00    +0.000 HD
BRANCH   7  12
ATOM      9  C   UNL     1       1.052   9.765  19.038  0.00  0.00    +0.000 A 
ATOM     10  C   UNL     1       1.028   9.098  20.267  0.00  0.00    +0.000 A 
ATOM     11  C   UNL     1       1.687   7.871  20.424  0.00  0.00    +0.000 A 
ATOM     12  C   UNL     1       2.367   7.279  19.352  0.00  0.00    +0.000 A 
ATOM     13  C   UNL     1       2.292   7.902  18.099  0.00  0.00    +0.000 A 
ATOM     14  C   UNL     1       1.644   9.132  17.941  0.00  0.00    +0.000 A 
BRANCH   9  16
ATOM     15  C   UNL     1      -0.893  11.240  18.553  0.00  0.00    +0.000 C 
ATOM     16  C   UNL     1       0.584  11.196  18.935  0.00  0.00    +0.000 C 
ENDBRANCH   9  16
ENDBRANCH   7  12
ENDBRANCH   1   7
BRANCH   6  17
ATOM     17  N   UNL     1       1.947   4.108  18.022  0.00  0.00    +0.000 N 
ATOM     18  H   UNL     1       1.427   4.005  17.143  0.00  0.00    +0.000 HD
BRANCH  17  19
ATOM     19  S   UNL     1       1.608   2.774  19.027  0.00  0.00    +0.000 S 
ATOM     20  O   UNL     1       0.334   2.285  18.515  0.00  0.00    +0.000 OA
ATOM     21  O   UNL     1       2.765   1.887  18.980  0.00  0.00    +0.000 OA
BRANCH  19  22
ATOM     22  C   UNL     1       1.362   3.494  20.748  0.00  0.00    +0.000 C 
ATOM     23  F   UNL     1       2.549   3.792  21.357  0.00  0.00    +0.000 F 
ATOM     24  F   UNL     1       0.636   4.647  20.728  0.00  0.00    +0.000 F 
ATOM     25  F   UNL     1       0.708   2.631  21.578  0.00  0.00    +0.000 F 
ENDBRANCH  19  22
ENDBRANCH  17  19
ENDBRANCH   6  17
TORSDOF 6
ENDMDL
MODEL 4
REMARK VINA RESULT:      -7.8      1.601      1.908
REMARK  Name = 
REMARK  7 active torsions:
REMARK  status: ('A' for Active; 'I' for Inactive)
REMARK    1  A    between atoms: C_1  and  C_2
REMARK    2  A    between atoms: C_2  and  C_3
REMARK    3  A    between atoms: C_6  and  N_7
REMARK    4  A    between atoms: N_7  and  C_8
REMARK    5  A    between atoms: C_13  and  N_14
REMARK    6  A    between atoms: N_14  and  S_15
REMARK    7  A    between atoms: S_15  and  C_18
REMARK                            x       y       z     vdW  Elec       q    Type
REMARK                         _______ _______ _______ _____ _____    ______ ____
ROOT
ATOM      1  C   UNL     1       4.396   5.952  17.593  0.00  0.00    +0.000 A 
ATOM      2  C   UNL     1       5.010   6.363  16.413  0.00  0.00    +0.000 A 
ATOM      3  N   UNL     1       6.311   6.138  16.102  0.00  0.00    +0.000 NA
ATOM      4  C   UNL     1       7.040   5.447  16.999  0.00  0.00    +0.000 A 
ATOM      5  C   UNL     1       6.531   4.950  18.186  0.00  0.00    +0.000 A 
ATOM      6  C   UNL     1       5.193   5.206  18.479  0.00  0.00    +0.000 A 
ENDROOT
BRANCH   1   7
ATOM      7  N   UNL     1       3.032   6.198  17.867  0.00  0.00    +0.000 N 
ATOM      8  H   UNL     1       2.447   5.866  17.100  0.00  0.00    +0.000 HD
BRANCH   7  12
ATOM      9  C   UNL     1       0.984   9.435  19.676  0.00  0.00    +0.000 A 
ATOM     10  C   UNL     1       1.401   9.513  18.343  0.00  0.00    +0.000 A 
ATOM     11  C   UNL     1       2.138   8.470  17.766  0.00  0.00    +0.000 A 
ATOM     12  C   UNL     1       2.487   7.338  18.514  0.00  0.00    +0.000 A 
ATOM     13  C   UNL     1       2.159   7.321  19.876  0.00  0.00    +0.000 A 
ATOM     14  C   UNL     1       1.414   8.355  20.453  0.00  0.00    +0.000 A 
BRANCH   9  16
ATOM     15  C   UNL     1      -1.055  10.761  19.145  0.00  0.00    +0.000 C 
ATOM     16  C   UNL     1      -0.028  10.414  20.219  0.00  0.00    +0.000 C 
ENDBRANCH   9  16
ENDBRANCH   7  12
ENDBRANCH   1   7
BRANCH   6  17
ATOM     17  N   UNL     1       4.644   4.701  19.711  0.00  0.00    +0.000 N 
ATOM     18  H   UNL     1       3.987   5.354  20.154  0.00  0.00    +0.000 HD
BRANCH  17  19
ATOM     19  S   UNL     1       3.945   3.148  19.676  0.00  0.00    +0.000 S 
ATOM     20  O   UNL     1       3.433   3.042  18.315  0.00  0.00    +0.000 OA
ATOM     21  O   UNL     1       4.965   2.201  20.112  0.00  0.00    +0.000 OA
BRANCH  19  22
ATOM     22  C   UNL     1       2.507   3.217  20.888  0.00  0.00    +0.000 C 
ATOM     23  F   UNL     1       2.361   4.457  21.444  0.00  0.00    +0.000 F 
ATOM     24  F   UNL     1       1.317   2.913  20.297  0.00  0.00    +0.000 F 
ATOM     25  F   UNL     1       2.665   2.346  21.924  0.00  0.00    +0.000 F 
ENDBRANCH  19  22
ENDBRANCH  17  19
ENDBRANCH   6  17
TORSDOF 6
ENDMDL
MODEL 5
REMARK VINA RESULT:      -7.7      3.214      4.067
REMARK  Name = 
REMARK  7 active torsions:
REMARK  status: ('A' for Active; 'I' for Inactive)
REMARK    1  A    between atoms: C_1  and  C_2
REMARK    2  A    between atoms: C_2  and  C_3
REMARK    3  A    between atoms: C_6  and  N_7
REMARK    4  A    between atoms: N_7  and  C_8
REMARK    5  A    between atoms: C_13  and  N_14
REMARK    6  A    between atoms: N_14  and  S_15
REMARK    7  A    between atoms: S_15  and  C_18
REMARK                            x       y       z     vdW  Elec       q    Type
REMARK                         _______ _______ _______ _____ _____    ______ ____
ROOT
ATOM      1  C   UNL     1       2.176   5.073  19.652  0.00  0.00    +0.000 A 
ATOM      2  C   UNL     1       1.412   4.360  20.574  0.00  0.00    +0.000 A 
ATOM      3  N   UNL     1       0.872   3.137  20.345  0.00  0.00    +0.000 NA
ATOM      4  C   UNL     1       1.120   2.577  19.146  0.00  0.00    +0.000 A 
ATOM      5  C   UNL     1       1.898   3.168  18.166  0.00  0.00    +0.000 A 
ATOM      6  C   UNL     1       2.432   4.428  18.430  0.00  0.00    +0.000 A 
ENDROOT
BRANCH   1   7
ATOM      7  N   UNL     1       2.730   6.340  19.941  0.00  0.00    +0.000 N 
ATOM      8  H   UNL     1       3.235   6.316  20.827  0.00  0.00    +0.000 HD
BRANCH   7  12
ATOM      9  C   UNL     1       0.587   9.877  19.022  0.00  0.00    +0.000 A 
ATOM     10  C   UNL     1       1.414   9.278  18.067  0.00  0.00    +0.000 A 
ATOM     11  C   UNL     1       2.176   8.148  18.393  0.00  0.00    +0.000 A 
ATOM     12  C   UNL     1       2.138   7.605  19.683  0.00  0.00    +0.000 A 
ATOM     13  C   UNL     1       1.391   8.277  20.660  0.00  0.00    +0.000 A 
ATOM     14  C   UNL     1       0.621   9.399  20.335  0.00  0.00    +0.000 A 
BRANCH   9  16
ATOM     15  C   UNL     1      -1.518  10.274  17.753  0.00  0.00    +0.000 C 
ATOM     16  C   UNL     1      -0.430  10.914  18.611  0.00  0.00    +0.000 C 
ENDBRANCH   9  16
ENDBRANCH   7  12
ENDBRANCH   1   7
BRANCH   6  17
ATOM     17  N   UNL     1       3.242   5.063  17.423  0.00  0.00    +0.000 N 
ATOM     18  H   UNL     1       3.124   6.083  17.397  0.00  0.00    +0.000 HD
BRANCH  17  19
ATOM     19  S   UNL     1       4.905   4.695  17.412  0.00  0.00    +0.000 S 
ATOM     20  O   UNL     1       5.247   4.647  18.828  0.00  0.00    +0.000 OA
ATOM     21  O   UNL     1       5.080   3.488  16.612  0.00  0.00    +0.000 OA
BRANCH  19  22
ATOM     22  C   UNL     1       5.742   6.178  16.611  0.00  0.00    +0.000 C 
ATOM     23  F   UNL     1       4.999   6.699  15.588  0.00  0.00    +0.000 F 
ATOM     24  F   UNL     1       5.952   7.194  17.495  0.00  0.00    +0.000 F 
ATOM     25  F   UNL     1       6.958   5.859  16.082  0.00  0.00    +0.000 F 
ENDBRANCH  19  22
ENDBRANCH  17  19
ENDBRANCH   6  17
TORSDOF 6
ENDMDL
MODEL 6
REMARK VINA RESULT:      -7.7      1.721      2.207
REMARK  Name = 
REMARK  7 active torsions:
REMARK  status: ('A' for Active; 'I' for Inactive)
REMARK    1  A    between atoms: C_1  and  C_2
REMARK    2  A    between atoms: C_2  and  C_3
REMARK    3  A    between atoms: C_6  and  N_7
REMARK    4  A    between atoms: N_7  and  C_8
REMARK    5  A    between atoms: C_13  and  N_14
REMARK    6  A    between atoms: N_14  and  S_15
REMARK    7  A    between atoms: S_15  and  C_18
REMARK                            x       y       z     vdW  Elec       q    Type
REMARK                         _______ _______ _______ _____ _____    ______ ____
ROOT
ATOM      1  C   UNL     1       4.412   6.022  17.644  0.00  0.00    +0.000 A 
ATOM      2  C   UNL     1       5.086   6.500  16.521  0.00  0.00    +0.000 A 
ATOM      3  N   UNL     1       6.398   6.278  16.258  0.00  0.00    +0.000 NA
ATOM      4  C   UNL     1       7.077   5.524  17.143  0.00  0.00    +0.000 A 
ATOM      5  C   UNL     1       6.509   4.961  18.271  0.00  0.00    +0.000 A 
ATOM      6  C   UNL     1       5.161   5.213  18.517  0.00  0.00    +0.000 A 
ENDROOT
BRANCH   1   7
ATOM      7  N   UNL     1       3.039   6.267  17.869  0.00  0.00    +0.000 N 
ATOM      8  H   UNL     1       2.487   5.976  17.062  0.00  0.00    +0.000 HD
BRANCH   7  12
ATOM      9  C   UNL     1       0.933   9.414  19.768  0.00  0.00    +0.000 A 
ATOM     10  C   UNL     1       1.322   9.525  18.429  0.00  0.00    +0.000 A 
ATOM     11  C   UNL     1       2.078   8.513  17.822  0.00  0.00    +0.000 A 
ATOM     12  C   UNL     1       2.475   7.380  18.545  0.00  0.00    +0.000 A 
ATOM     13  C   UNL     1       2.173   7.332  19.912  0.00  0.00    +0.000 A 
ATOM     14  C   UNL     1       1.409   8.335  20.519  0.00  0.00    +0.000 A 
BRANCH   9  16
ATOM     15  C   UNL     1      -0.246  10.114  21.845  0.00  0.00    +0.000 C 
ATOM     16  C   UNL     1      -0.096  10.354  20.346  0.00  0.00    +0.000 C 
ENDBRANCH   9  16
ENDBRANCH   7  12
ENDBRANCH   1   7
BRANCH   6  17
ATOM     17  N   UNL     1       4.549   4.639  19.688  0.00  0.00    +0.000 N 
ATOM     18  H   UNL     1       3.816   5.234  20.090  0.00  0.00    +0.000 HD
BRANCH  17  19
ATOM     19  S   UNL     1       3.963   3.044  19.560  0.00  0.00    +0.000 S 
ATOM     20  O   UNL     1       3.568   2.944  18.161  0.00  0.00    +0.000 OA
ATOM     21  O   UNL     1       5.007   2.155  20.056  0.00  0.00    +0.000 OA
BRANCH  19  22
ATOM     22  C   UNL     1       2.432   2.984  20.654  0.00  0.00    +0.000 C 
ATOM     23  F   UNL     1       1.497   2.105  20.184  0.00  0.00    +0.000 F 
ATOM     24  F   UNL     1       2.722   2.599  21.929  0.00  0.00    +0.000 F 
ATOM     25  F   UNL     1       1.814   4.197  20.740  0.00  0.00    +0.000 F 
ENDBRANCH  19  22
ENDBRANCH  17  19
ENDBRANCH   6  17
TORSDOF 6
ENDMDL
MODEL 7
REMARK VINA RESULT:      -7.7      1.718      2.326
REMARK  Name = 
REMARK  7 active torsions:
REMARK  status: ('A' for Active; 'I' for Inactive)
REMARK    1  A    between atoms: C_1  and  C_2
REMARK    2  A    between atoms: C_2  and  C_3
REMARK    3  A    between atoms: C_6  and  N_7
REMARK    4  A    between atoms: N_7  and  C_8
REMARK    5  A    between atoms: C_13  and  N_14
REMARK    6  A    between atoms: N_14  and  S_15
REMARK    7  A    between atoms: S_15  and  C_18
REMARK                            x       y       z     vdW  Elec       q    Type
REMARK                         _______ _______ _______ _____ _____    ______ ____
ROOT
ATOM      1  C   UNL     1       4.414   6.040  17.187  0.00  0.00    +0.000 A 
ATOM      2  C   UNL     1       5.476   6.941  17.137  0.00  0.00    +0.000 A 
ATOM      3  N   UNL     1       6.778   6.591  16.985  0.00  0.00    +0.000 NA
ATOM      4  C   UNL     1       7.042   5.277  16.852  0.00  0.00    +0.000 A 
ATOM      5  C   UNL     1       6.070   4.292  16.843  0.00  0.00    +0.000 A 
ATOM      6  C   UNL     1       4.744   4.685  17.009  0.00  0.00    +0.000 A 
ENDROOT
BRANCH   1   7
ATOM      7  N   UNL     1       3.072   6.454  17.332  0.00  0.00    +0.000 N 
ATOM      8  H   UNL     1       2.630   6.563  16.420  0.00  0.00    +0.000 HD
BRANCH   7  12
ATOM      9  C   UNL     1       1.126   8.996  20.106  0.00  0.00    +0.000 A 
ATOM     10  C   UNL     1       1.353   9.419  18.792  0.00  0.00    +0.000 A 
ATOM     11  C   UNL     1       2.058   8.605  17.895  0.00  0.00    +0.000 A 
ATOM     12  C   UNL     1       2.563   7.361  18.298  0.00  0.00    +0.000 A 
ATOM     13  C   UNL     1       2.423   6.998  19.644  0.00  0.00    +0.000 A 
ATOM     14  C   UNL     1       1.711   7.803  20.539  0.00  0.00    +0.000 A 
BRANCH   9  16
ATOM     15  C   UNL     1      -0.450   8.784  22.022  0.00  0.00    +0.000 C 
ATOM     16  C   UNL     1       0.148   9.734  20.988  0.00  0.00    +0.000 C 
ENDBRANCH   9  16
ENDBRANCH   7  12
ENDBRANCH   1   7
BRANCH   6  17
ATOM     17  N   UNL     1       3.716   3.676  17.006  0.00  0.00    +0.000 N 
ATOM     18  H   UNL     1       3.919   2.898  16.368  0.00  0.00    +0.000 HD
BRANCH  17  19
ATOM     19  S   UNL     1       3.236   3.047  18.515  0.00  0.00    +0.000 S 
ATOM     20  O   UNL     1       3.450   1.613  18.362  0.00  0.00    +0.000 OA
ATOM     21  O   UNL     1       3.986   3.758  19.543  0.00  0.00    +0.000 OA
BRANCH  19  22
ATOM     22  C   UNL     1       1.392   3.399  18.641  0.00  0.00    +0.000 C 
ATOM     23  F   UNL     1       0.642   2.259  18.569  0.00  0.00    +0.000 F 
ATOM     24  F   UNL     1       1.060   4.008  19.815  0.00  0.00    +0.000 F 
ATOM     25  F   UNL     1       0.954   4.214  17.639  0.00  0.00    +0.000 F 
ENDBRANCH  19  22
ENDBRANCH  17  19
ENDBRANCH   6  17
TORSDOF 6
ENDMDL
MODEL 8
REMARK VINA RESULT:      -7.6      3.329      4.286
REMARK  Name = 
REMARK  7 active torsions:
REMARK  status: ('A' for Active; 'I' for Inactive)
REMARK    1  A    between atoms: C_1  and  C_2
REMARK    2  A    between atoms: C_2  and  C_3
REMARK    3  A    between atoms: C_6  and  N_7
REMARK    4  A    between atoms: N_7  and  C_8
REMARK    5  A    between atoms: C_13  and  N_14
REMARK    6  A    between atoms: N_14  and  S_15
REMARK    7  A    between atoms: S_15  and  C_18
REMARK                            x       y       z     vdW  Elec       q    Type
REMARK                         _______ _______ _______ _____ _____    ______ ____
ROOT
ATOM      1  C   UNL     1       2.611   4.907  19.826  0.00  0.00    +0.000 A 
ATOM      2  C   UNL     1       1.952   4.303  20.895  0.00  0.00    +0.000 A 
ATOM      3  N   UNL     1       1.548   3.009  20.920  0.00  0.00    +0.000 NA
ATOM      4  C   UNL     1       1.832   2.263  19.835  0.00  0.00    +0.000 A 
ATOM      5  C   UNL     1       2.517   2.738  18.731  0.00  0.00    +0.000 A 
ATOM      6  C   UNL     1       2.911   4.074  18.734  0.00  0.00    +0.000 A 
ENDROOT
BRANCH   1   7
ATOM      7  N   UNL     1       3.025   6.257  19.852  0.00  0.00    +0.000 N 
ATOM      8  H   UNL     1       3.641   6.427  20.647  0.00  0.00    +0.000 HD
BRANCH   7  12
ATOM      9  C   UNL     1       1.053   9.906  18.990  0.00  0.00    +0.000 A 
ATOM     10  C   UNL     1       0.918   9.304  20.245  0.00  0.00    +0.000 A 
ATOM     11  C   UNL     1       1.514   8.063  20.507  0.00  0.00    +0.000 A 
ATOM     12  C   UNL     1       2.242   7.393  19.515  0.00  0.00    +0.000 A 
ATOM     13  C   UNL     1       2.279   7.954  18.232  0.00  0.00    +0.000 A 
ATOM     14  C   UNL     1       1.694   9.197  17.970  0.00  0.00    +0.000 A 
BRANCH   9  16
ATOM     15  C   UNL     1      -0.847  11.441  18.510  0.00  0.00    +0.000 C 
ATOM     16  C   UNL     1       0.651  11.346  18.786  0.00  0.00    +0.000 C 
ENDBRANCH   9  16
ENDBRANCH   7  12
ENDBRANCH   1   7
BRANCH   6  17
ATOM     17  N   UNL     1       3.622   4.591  17.594  0.00  0.00    +0.000 N 
ATOM     18  H   UNL     1       3.205   5.449  17.216  0.00  0.00    +0.000 HD
BRANCH  17  19
ATOM     19  S   UNL     1       5.303   4.815  17.758  0.00  0.00    +0.000 S 
ATOM     20  O   UNL     1       5.428   6.248  17.994  0.00  0.00    +0.000 OA
ATOM     21  O   UNL     1       5.768   3.895  18.790  0.00  0.00    +0.000 OA
BRANCH  19  22
ATOM     22  C   UNL     1       6.033   4.386  16.077  0.00  0.00    +0.000 C 
ATOM     23  F   UNL     1       5.775   3.093  15.717  0.00  0.00    +0.000 F 
ATOM     24  F   UNL     1       5.536   5.173  15.081  0.00  0.00    +0.000 F 
ATOM     25  F   UNL     1       7.388   4.531  16.052  0.00  0.00    +0.000 F 
ENDBRANCH  19  22
ENDBRANCH  17  19
ENDBRANCH   6  17
TORSDOF 6
ENDMDL
MODEL 9
REMARK VINA RESULT:      -7.6      3.503      4.440
REMARK  Name = 
REMARK  7 active torsions:
REMARK  status: ('A' for Active; 'I' for Inactive)
REMARK    1  A    between atoms: C_1  and  C_2
REMARK    2  A    between atoms: C_2  and  C_3
REMARK    3  A    between atoms: C_6  and  N_7
REMARK    4  A    between atoms: N_7  and  C_8
REMARK    5  A    between atoms: C_13  and  N_14
REMARK    6  A    between atoms: N_14  and  S_15
REMARK    7  A    between atoms: S_15  and  C_18
REMARK                            x       y       z     vdW  Elec       q    Type
REMARK                         _______ _______ _______ _____ _____    ______ ____
ROOT
ATOM      1  C   UNL     1       3.276   4.609  19.243  0.00  0.00    +0.000 A 
ATOM      2  C   UNL     1       2.520   3.657  19.923  0.00  0.00    +0.000 A 
ATOM      3  N   UNL     1       2.375   2.366  19.533  0.00  0.00    +0.000 NA
ATOM      4  C   UNL     1       3.034   1.989  18.421  0.00  0.00    +0.000 A 
ATOM      5  C   UNL     1       3.848   2.831  17.685  0.00  0.00    +0.000 A 
ATOM      6  C   UNL     1       3.970   4.153  18.108  0.00  0.00    +0.000 A 
ENDROOT
BRANCH   1   7
ATOM      7  N   UNL     1       3.409   5.941  19.695  0.00  0.00    +0.000 N 
ATOM      8  H   UNL     1       3.756   5.960  20.654  0.00  0.00    +0.000 HD
BRANCH   7  12
ATOM      9  C   UNL     1       1.170   9.463  18.971  0.00  0.00    +0.000 A 
ATOM     10  C   UNL     1       1.117   8.830  20.217  0.00  0.00    +0.000 A 
ATOM     11  C   UNL     1       1.804   7.628  20.434  0.00  0.00    +0.000 A 
ATOM     12  C   UNL     1       2.541   7.026  19.407  0.00  0.00    +0.000 A 
ATOM     13  C   UNL     1       2.497   7.611  18.134  0.00  0.00    +0.000 A 
ATOM     14  C   UNL     1       1.822   8.817  17.916  0.00  0.00    +0.000 A 
BRANCH   9  16
ATOM     15  C   UNL     1      -0.825  10.943  19.127  0.00  0.00    +0.000 C 
ATOM     16  C   UNL     1       0.666  10.876  18.809  0.00  0.00    +0.000 C 
ENDBRANCH   9  16
ENDBRANCH   7  12
ENDBRANCH   1   7
BRANCH   6  17
ATOM     17  N   UNL     1       4.809   5.048  17.355  0.00  0.00    +0.000 N 
ATOM     18  H   UNL     1       4.529   6.032  17.444  0.00  0.00    +0.000 HD
BRANCH  17  19
ATOM     19  S   UNL     1       6.492   4.926  17.593  0.00  0.00    +0.000 S 
ATOM     20  O   UNL     1       6.600   4.341  18.924  0.00  0.00    +0.000 OA
ATOM     21  O   UNL     1       7.041   4.189  16.461  0.00  0.00    +0.000 OA
BRANCH  19  22
ATOM     22  C   UNL     1       7.123   6.699  17.630  0.00  0.00    +0.000 C 
ATOM     23  F   UNL     1       6.103   7.609  17.621  0.00  0.00    +0.000 F 
ATOM     24  F   UNL     1       7.867   6.960  18.742  0.00  0.00    +0.000 F 
ATOM     25  F   UNL     1       7.909   6.988  16.555  0.00  0.00    +0.000 F 
ENDBRANCH  19  22
ENDBRANCH  17  19
ENDBRANCH   6  17
TORSDOF 6
ENDMDL
