MODEL 1
REMARK VINA RESULT:      -7.6      0.000      0.000
REMARK  Name = 
REMARK  11 active torsions:
REMARK  status: ('A' for Active; 'I' for Inactive)
REMARK    1  A    between atoms: C_1  and  O_2
REMARK    2  A    between atoms: O_2  and  C_3
REMARK    3  A    between atoms: C_7  and  S_8
REMARK    4  A    between atoms: S_8  and  C_9
REMARK    5  A    between atoms: C_15  and  C_16
REMARK    6  A    between atoms: N_18  and  C_19
REMARK    7  A    between atoms: C_19  and  C_20
REMARK    8  A    between atoms: C_24  and  O_25
REMARK    9  A    between atoms: O_25  and  C_26
REMARK   10  A    between atoms: C_27  and  O_28
REMARK   11  A    between atoms: O_28  and  C_29
REMARK                            x       y       z     vdW  Elec       q    Type
REMARK                         _______ _______ _______ _____ _____    ______ ____
ROOT
ATOM      1  C   UNL     1       6.511   5.303  15.434  0.00  0.00    +0.000 A 
ATOM      2  C   UNL     1       5.698   4.181  15.315  0.00  0.00    +0.000 A 
ATOM      3  C   UNL     1       4.484   4.123  15.984  0.00  0.00    +0.000 A 
ATOM      4  C   UNL     1       4.093   5.193  16.802  0.00  0.00    +0.000 A 
ATOM      5  C   UNL     1       2.978   5.371  17.658  0.00  0.00    +0.000 A 
ATOM      6  C   UNL     1       3.113   6.576  18.330  0.00  0.00    +0.000 A 
ATOM      7  N   UNL     1       4.250   7.172  17.769  0.00  0.00    +0.000 N 
ATOM      8  C   UNL     1       4.901   6.315  16.912  0.00  0.00    +0.000 A 
ATOM      9  C   UNL     1       6.126   6.405  16.230  0.00  0.00    +0.000 A 
ATOM     10  H   UNL     1       4.578   8.090  18.047  0.00  0.00    +0.000 HD
ENDROOT
BRANCH   6  11
ATOM     11  C   UNL     1       2.382   7.291  19.355  0.00  0.00    +0.000 C 
ATOM     12  O   UNL     1       2.274   6.813  20.491  0.00  0.00    +0.000 OA
ATOM     13  N   UNL     1       1.731   8.480  19.143  0.00  0.00    +0.000 N 
ATOM     14  H   UNL     1       1.310   8.839  19.989  0.00  0.00    +0.000 HD
BRANCH  13  15
ATOM     15  C   UNL     1       1.530   9.301  17.951  0.00  0.00    +0.000 C 
BRANCH  15  16
ATOM     16  C   UNL     1       0.279  10.180  18.019  0.00  0.00    +0.000 A 
ATOM     17  C   UNL     1      -0.946   9.697  17.513  0.00  0.00    +0.000 A 
ATOM     18  C   UNL     1      -2.117  10.431  17.635  0.00  0.00    +0.000 A 
ATOM     19  C   UNL     1      -2.092  11.676  18.250  0.00  0.00    +0.000 A 
ATOM     20  C   UNL     1      -0.908  12.185  18.800  0.00  0.00    +0.000 A 
ATOM     21  C   UNL     1       0.290  11.431  18.698  0.00  0.00    +0.000 A 
BRANCH  20  22
ATOM     22  O   UNL     1      -0.884  13.418  19.405  0.00  0.00    +0.000 OA
ATOM     23  C   UNL     1      -1.231  13.483  20.784  0.00  0.00    +0.000 C 
ENDBRANCH  20  22
BRANCH  21  24
ATOM     24  O   UNL     1       1.508  11.753  19.257  0.00  0.00    +0.000 OA
ATOM     25  C   UNL     1       2.349  12.690  18.593  0.00  0.00    +0.000 C 
ENDBRANCH  21  24
ENDBRANCH  15  16
ENDBRANCH  13  15
ENDBRANCH   6  11
BRANCH   1  27
ATOM     26  C   UNL     1       7.728   5.031  13.424  0.00  0.00    +0.000 C 
ATOM     27  O   UNL     1       7.726   5.411  14.802  0.00  0.00    +0.000 OA
ENDBRANCH   1  27
BRANCH   5  28
ATOM     28  S   UNL     1       1.867   4.050  17.833  0.00  0.00    +0.000 S 
BRANCH  28  29
ATOM     29  C   UNL     1       1.981   3.393  19.466  0.00  0.00    +0.000 A 
ATOM     30  C   UNL     1       3.241   2.882  19.802  0.00  0.00    +0.000 A 
ATOM     31  C   UNL     1       3.463   2.269  21.033  0.00  0.00    +0.000 A 
ATOM     32  C   UNL     1       2.419   2.175  21.946  0.00  0.00    +0.000 A 
ATOM     33  C   UNL     1       1.172   2.724  21.642  0.00  0.00    +0.000 A 
ATOM     34  C   UNL     1       0.953   3.342  20.407  0.00  0.00    +0.000 A 
ENDBRANCH  28  29
ENDBRANCH   5  28
TORSDOF 8
ENDMDL
MODEL 2
REMARK VINA RESULT:      -7.6      0.630      1.060
REMARK  Name = 
REMARK  11 active torsions:
REMARK  status: ('A' for Active; 'I' for Inactive)
REMARK    1  A    between atoms: C_1  and  O_2
REMARK    2  A    between atoms: O_2  and  C_3
REMARK    3  A    between atoms: C_7  and  S_8
REMARK    4  A    between atoms: S_8  and  C_9
REMARK    5  A    between atoms: C_15  and  C_16
REMARK    6  A    between atoms: N_18  and  C_19
REMARK    7  A    between atoms: C_19  and  C_20
REMARK    8  A    between atoms: C_24  and  O_25
REMARK    9  A    between atoms: O_25  and  C_26
REMARK   10  A    between atoms: C_27  and  O_28
REMARK   11  A    between atoms: O_28  and  C_29
REMARK                            x       y       z     vdW  Elec       q    Type
REMARK                         _______ _______ _______ _____ _____    ______ ____
ROOT
ATOM      1  C   UNL     1       6.315   5.577  15.684  0.00  0.00    +0.000 A 
ATOM      2  C   UNL     1       5.509   4.449  15.580  0.00  0.00    +0.000 A 
ATOM      3  C   UNL     1       4.285   4.402  16.232  0.00  0.00    +0.000 A 
ATOM      4  C   UNL     1       3.877   5.490  17.018  0.00  0.00    +0.000 A 
ATOM      5  C   UNL     1       2.749   5.683  17.852  0.00  0.00    +0.000 A 
ATOM      6  C   UNL     1       2.869   6.905  18.497  0.00  0.00    +0.000 A 
ATOM      7  N   UNL     1       4.011   7.493  17.938  0.00  0.00    +0.000 N 
ATOM      8  C   UNL     1       4.679   6.618  17.112  0.00  0.00    +0.000 A 
ATOM      9  C   UNL     1       5.913   6.697  16.446  0.00  0.00    +0.000 A 
ATOM     10  H   UNL     1       4.331   8.419  18.199  0.00  0.00    +0.000 HD
ENDROOT
BRANCH   6  11
ATOM     11  C   UNL     1       2.119   7.642  19.492  0.00  0.00    +0.000 C 
ATOM     12  O   UNL     1       2.104   7.260  20.670  0.00  0.00    +0.000 OA
ATOM     13  N   UNL     1       1.353   8.745  19.214  0.00  0.00    +0.000 N 
ATOM     14  H   UNL     1       0.937   9.140  20.046  0.00  0.00    +0.000 HD
BRANCH  13  15
ATOM     15  C   UNL     1       1.026   9.436  17.967  0.00  0.00    +0.000 C 
BRANCH  15  16
ATOM     16  C   UNL     1      -0.289  10.215  18.028  0.00  0.00    +0.000 A 
ATOM     17  C   UNL     1      -1.406   9.762  17.295  0.00  0.00    +0.000 A 
ATOM     18  C   UNL     1      -2.638  10.394  17.393  0.00  0.00    +0.000 A 
ATOM     19  C   UNL     1      -2.782  11.505  18.212  0.00  0.00    +0.000 A 
ATOM     20  C   UNL     1      -1.712  11.973  18.988  0.00  0.00    +0.000 A 
ATOM     21  C   UNL     1      -0.454  11.320  18.910  0.00  0.00    +0.000 A 
BRANCH  20  22
ATOM     22  O   UNL     1      -1.855  13.075  19.795  0.00  0.00    +0.000 OA
ATOM     23  C   UNL     1      -3.038  13.169  20.581  0.00  0.00    +0.000 C 
ENDBRANCH  20  22
BRANCH  21  24
ATOM     24  O   UNL     1       0.662  11.605  19.665  0.00  0.00    +0.000 OA
ATOM     25  C   UNL     1       1.491  12.700  19.291  0.00  0.00    +0.000 C 
ENDBRANCH  21  24
ENDBRANCH  15  16
ENDBRANCH  13  15
ENDBRANCH   6  11
BRANCH   1  27
ATOM     26  C   UNL     1       7.615   5.075  13.773  0.00  0.00    +0.000 C 
ATOM     27  O   UNL     1       7.539   5.676  15.067  0.00  0.00    +0.000 OA
ENDBRANCH   1  27
BRANCH   5  28
ATOM     28  S   UNL     1       1.641   4.362  18.043  0.00  0.00    +0.000 S 
BRANCH  28  29
ATOM     29  C   UNL     1       2.068   3.434  19.481  0.00  0.00    +0.000 A 
ATOM     30  C   UNL     1       1.058   3.360  20.449  0.00  0.00    +0.000 A 
ATOM     31  C   UNL     1       1.276   2.719  21.666  0.00  0.00    +0.000 A 
ATOM     32  C   UNL     1       2.511   2.133  21.918  0.00  0.00    +0.000 A 
ATOM     33  C   UNL     1       3.510   2.158  20.942  0.00  0.00    +0.000 A 
ATOM     34  C   UNL     1       3.287   2.800  19.719  0.00  0.00    +0.000 A 
ENDBRANCH  28  29
ENDBRANCH   5  28
TORSDOF 8
ENDMDL
MODEL 3
REMARK VINA RESULT:      -7.5      1.347      2.040
REMARK  Name = 
REMARK  11 active torsions:
REMARK  status: ('A' for Active; 'I' for Inactive)
REMARK    1  A    between atoms: C_1  and  O_2
REMARK    2  A    between atoms: O_2  and  C_3
REMARK    3  A    between atoms: C_7  and  S_8
REMARK    4  A    between atoms: S_8  and  C_9
REMARK    5  A    between atoms: C_15  and  C_16
REMARK    6  A    between atoms: N_18  and  C_19
REMARK    7  A    between atoms: C_19  and  C_20
REMARK    8  A    between atoms: C_24  and  O_25
REMARK    9  A    between atoms: O_25  and  C_26
REMARK   10  A    between atoms: C_27  and  O_28
REMARK   11  A    between atoms: O_28  and  C_29
REMARK                            x       y       z     vdW  Elec       q    Type
REMARK                         _______ _______ _______ _____ _____    ______ ____
ROOT
ATOM      1  C   UNL     1       6.947   5.210  14.890  0.00  0.00    +0.000 A 
ATOM      2  C   UNL     1       6.234   4.026  14.741  0.00  0.00    +0.000 A 
ATOM      3  C   UNL     1       5.079   3.807  15.479  0.00  0.00    +0.000 A 
ATOM      4  C   UNL     1       4.649   4.778  16.394  0.00  0.00    +0.000 A 
ATOM      5  C   UNL     1       3.584   4.792  17.328  0.00  0.00    +0.000 A 
ATOM      6  C   UNL     1       3.654   5.957  18.077  0.00  0.00    +0.000 A 
ATOM      7  N   UNL     1       4.690   6.696  17.490  0.00  0.00    +0.000 N 
ATOM      8  C   UNL     1       5.357   5.964  16.534  0.00  0.00    +0.000 A 
ATOM      9  C   UNL     1       6.518   6.215  15.785  0.00  0.00    +0.000 A 
ATOM     10  H   UNL     1       4.951   7.621  17.813  0.00  0.00    +0.000 HD
ENDROOT
BRANCH   6  11
ATOM     11  C   UNL     1       2.933   6.530  19.193  0.00  0.00    +0.000 C 
ATOM     12  O   UNL     1       2.922   5.954  20.289  0.00  0.00    +0.000 OA
ATOM     13  N   UNL     1       2.188   7.680  19.117  0.00  0.00    +0.000 N 
ATOM     14  H   UNL     1       1.791   7.936  20.009  0.00  0.00    +0.000 HD
BRANCH  13  15
ATOM     15  C   UNL     1       1.864   8.578  18.010  0.00  0.00    +0.000 C 
BRANCH  15  16
ATOM     16  C   UNL     1       1.739  10.044  18.430  0.00  0.00    +0.000 A 
ATOM     17  C   UNL     1       2.534  11.024  17.798  0.00  0.00    +0.000 A 
ATOM     18  C   UNL     1       2.386  12.372  18.093  0.00  0.00    +0.000 A 
ATOM     19  C   UNL     1       1.454  12.775  19.038  0.00  0.00    +0.000 A 
ATOM     20  C   UNL     1       0.615  11.845  19.668  0.00  0.00    +0.000 A 
ATOM     21  C   UNL     1       0.745  10.466  19.357  0.00  0.00    +0.000 A 
BRANCH  20  22
ATOM     22  O   UNL     1      -0.305  12.245  20.606  0.00  0.00    +0.000 OA
ATOM     23  C   UNL     1      -0.029  13.437  21.334  0.00  0.00    +0.000 C 
ENDBRANCH  20  22
BRANCH  21  24
ATOM     24  O   UNL     1      -0.055   9.445  19.824  0.00  0.00    +0.000 OA
ATOM     25  C   UNL     1      -0.057   9.149  21.216  0.00  0.00    +0.000 C 
ENDBRANCH  21  24
ENDBRANCH  15  16
ENDBRANCH  13  15
ENDBRANCH   6  11
BRANCH   1  27
ATOM     26  C   UNL     1       7.981   5.395  12.771  0.00  0.00    +0.000 C 
ATOM     27  O   UNL     1       8.100   5.476  14.192  0.00  0.00    +0.000 OA
ENDBRANCH   1  27
BRANCH   5  28
ATOM     28  S   UNL     1       2.613   3.362  17.477  0.00  0.00    +0.000 S 
BRANCH  28  29
ATOM     29  C   UNL     1       2.363   2.991  19.183  0.00  0.00    +0.000 A 
ATOM     30  C   UNL     1       1.054   3.195  19.639  0.00  0.00    +0.000 A 
ATOM     31  C   UNL     1       0.723   3.010  20.979  0.00  0.00    +0.000 A 
ATOM     32  C   UNL     1       1.705   2.604  21.875  0.00  0.00    +0.000 A 
ATOM     33  C   UNL     1       3.002   2.349  21.424  0.00  0.00    +0.000 A 
ATOM     34  C   UNL     1       3.331   2.533  20.077  0.00  0.00    +0.000 A 
ENDBRANCH  28  29
ENDBRANCH   5  28
TORSDOF 8
ENDMDL
MODEL 4
REMARK VINA RESULT:      -7.3      1.729      2.663
REMARK  Name = 
REMARK  11 active torsions:
REMARK  status: ('A' for Active; 'I' for Inactive)
REMARK    1  A    between atoms: C_1  and  O_2
REMARK    2  A    between atoms: O_2  and  C_3
REMARK    3  A    between atoms: C_7  and  S_8
REMARK    4  A    between atoms: S_8  and  C_9
REMARK    5  A    between atoms: C_15  and  C_16
REMARK    6  A    between atoms: N_18  and  C_19
REMARK    7  A    between atoms: C_19  and  C_20
REMARK    8  A    between atoms: C_24  and  O_25
REMARK    9  A    between atoms: O_25  and  C_26
REMARK   10  A    between atoms: C_27  and  O_28
REMARK   11  A    between atoms: O_28  and  C_29
REMARK                            x       y       z     vdW  Elec       q    Type
REMARK                         _______ _______ _______ _____ _____    ______ ____
ROOT
ATOM      1  C   UNL     1       6.893   4.801  13.515  0.00  0.00    +0.000 A 
ATOM      2  C   UNL     1       5.980   3.755  13.446  0.00  0.00    +0.000 A 
ATOM      3  C   UNL     1       5.097   3.526  14.491  0.00  0.00    +0.000 A 
ATOM      4  C   UNL     1       5.147   4.342  15.630  0.00  0.00    +0.000 A 
ATOM      5  C   UNL     1       4.448   4.290  16.861  0.00  0.00    +0.000 A 
ATOM      6  C   UNL     1       4.946   5.273  17.704  0.00  0.00    +0.000 A 
ATOM      7  N   UNL     1       5.853   5.992  16.916  0.00  0.00    +0.000 N 
ATOM      8  C   UNL     1       6.052   5.391  15.694  0.00  0.00    +0.000 A 
ATOM      9  C   UNL     1       6.944   5.654  14.641  0.00  0.00    +0.000 A 
ATOM     10  H   UNL     1       6.355   6.803  17.263  0.00  0.00    +0.000 HD
ENDROOT
BRANCH   6  11
ATOM     11  C   UNL     1       4.720   5.694  19.070  0.00  0.00    +0.000 C 
ATOM     12  O   UNL     1       5.398   5.216  19.989  0.00  0.00    +0.000 OA
ATOM     13  N   UNL     1       3.741   6.577  19.449  0.00  0.00    +0.000 N 
ATOM     14  H   UNL     1       3.766   6.771  20.440  0.00  0.00    +0.000 HD
BRANCH  13  15
ATOM     15  C   UNL     1       2.687   7.266  18.706  0.00  0.00    +0.000 C 
BRANCH  15  16
ATOM     16  C   UNL     1       1.720   8.045  19.600  0.00  0.00    +0.000 A 
ATOM     17  C   UNL     1       1.468   7.601  20.915  0.00  0.00    +0.000 A 
ATOM     18  C   UNL     1       0.664   8.328  21.781  0.00  0.00    +0.000 A 
ATOM     19  C   UNL     1       0.076   9.509  21.351  0.00  0.00    +0.000 A 
ATOM     20  C   UNL     1       0.322  10.012  20.066  0.00  0.00    +0.000 A 
ATOM     21  C   UNL     1       1.160   9.285  19.181  0.00  0.00    +0.000 A 
BRANCH  20  22
ATOM     22  O   UNL     1      -0.263  11.179  19.640  0.00  0.00    +0.000 OA
ATOM     23  C   UNL     1      -1.510  11.081  18.959  0.00  0.00    +0.000 C 
ENDBRANCH  20  22
BRANCH  21  24
ATOM     24  O   UNL     1       1.564   9.685  17.925  0.00  0.00    +0.000 OA
ATOM     25  C   UNL     1       2.352  10.863  17.794  0.00  0.00    +0.000 C 
ENDBRANCH  21  24
ENDBRANCH  15  16
ENDBRANCH  13  15
ENDBRANCH   6  11
BRANCH   1  27
ATOM     26  C   UNL     1       8.853   5.961  12.875  0.00  0.00    +0.000 C 
ATOM     27  O   UNL     1       7.796   5.069  12.515  0.00  0.00    +0.000 OA
ENDBRANCH   1  27
BRANCH   5  28
ATOM     28  S   UNL     1       3.347   2.975  17.119  0.00  0.00    +0.000 S 
BRANCH  28  29
ATOM     29  C   UNL     1       2.694   3.061  18.755  0.00  0.00    +0.000 A 
ATOM     30  C   UNL     1       1.505   3.794  18.872  0.00  0.00    +0.000 A 
ATOM     31  C   UNL     1       0.910   4.005  20.113  0.00  0.00    +0.000 A 
ATOM     32  C   UNL     1       1.500   3.471  21.252  0.00  0.00    +0.000 A 
ATOM     33  C   UNL     1       2.659   2.698  21.144  0.00  0.00    +0.000 A 
ATOM     34  C   UNL     1       3.252   2.484  19.896  0.00  0.00    +0.000 A 
ENDBRANCH  28  29
ENDBRANCH   5  28
TORSDOF 8
ENDMDL
MODEL 5
REMARK VINA RESULT:      -7.2      2.697      8.859
REMARK  Name = 
REMARK  11 active torsions:
REMARK  status: ('A' for Active; 'I' for Inactive)
REMARK    1  A    between atoms: C_1  and  O_2
REMARK    2  A    between atoms: O_2  and  C_3
REMARK    3  A    between atoms: C_7  and  S_8
REMARK    4  A    between atoms: S_8  and  C_9
REMARK    5  A    between atoms: C_15  and  C_16
REMARK    6  A    between atoms: N_18  and  C_19
REMARK    7  A    between atoms: C_19  and  C_20
REMARK    8  A    between atoms: C_24  and  O_25
REMARK    9  A    between atoms: O_25  and  C_26
REMARK   10  A    between atoms: C_27  and  O_28
REMARK   11  A    between atoms: O_28  and  C_29
REMARK                            x       y       z     vdW  Elec       q    Type
REMARK                         _______ _______ _______ _____ _____    ______ ____
ROOT
ATOM      1  C   UNL     1       3.011  15.062  19.220  0.00  0.00    +0.000 A 
ATOM      2  C   UNL     1       2.587  14.817  20.522  0.00  0.00    +0.000 A 
ATOM      3  C   UNL     1       2.044  13.586  20.861  0.00  0.00    +0.000 A 
ATOM      4  C   UNL     1       1.903  12.597  19.876  0.00  0.00    +0.000 A 
ATOM      5  C   UNL     1       1.315  11.309  19.907  0.00  0.00    +0.000 A 
ATOM      6  C   UNL     1       1.340  10.771  18.629  0.00  0.00    +0.000 A 
ATOM      7  N   UNL     1       2.066  11.695  17.867  0.00  0.00    +0.000 N 
ATOM      8  C   UNL     1       2.336  12.840  18.580  0.00  0.00    +0.000 A 
ATOM      9  C   UNL     1       2.905  14.072  18.217  0.00  0.00    +0.000 A 
ATOM     10  H   UNL     1       2.276  11.548  16.886  0.00  0.00    +0.000 HD
ENDROOT
BRANCH   6  11
ATOM     11  C   UNL     1       0.859   9.563  17.991  0.00  0.00    +0.000 C 
ATOM     12  O   UNL     1      -0.297   9.509  17.553  0.00  0.00    +0.000 OA
ATOM     13  N   UNL     1       1.596   8.412  17.876  0.00  0.00    +0.000 N 
ATOM     14  H   UNL     1       1.100   7.692  17.369  0.00  0.00    +0.000 HD
BRANCH  13  15
ATOM     15  C   UNL     1       2.928   8.037  18.345  0.00  0.00    +0.000 C 
BRANCH  15  16
ATOM     16  C   UNL     1       3.471   6.765  17.689  0.00  0.00    +0.000 A 
ATOM     17  C   UNL     1       4.617   6.834  16.869  0.00  0.00    +0.000 A 
ATOM     18  C   UNL     1       5.186   5.690  16.328  0.00  0.00    +0.000 A 
ATOM     19  C   UNL     1       4.616   4.449  16.577  0.00  0.00    +0.000 A 
ATOM     20  C   UNL     1       3.499   4.323  17.414  0.00  0.00    +0.000 A 
ATOM     21  C   UNL     1       2.922   5.486  17.989  0.00  0.00    +0.000 A 
BRANCH  20  22
ATOM     22  O   UNL     1       2.934   3.096  17.658  0.00  0.00    +0.000 OA
ATOM     23  C   UNL     1       3.637   2.204  18.516  0.00  0.00    +0.000 C 
ENDBRANCH  20  22
BRANCH  21  24
ATOM     24  O   UNL     1       1.882   5.521  18.892  0.00  0.00    +0.000 OA
ATOM     25  C   UNL     1       2.129   5.160  20.247  0.00  0.00    +0.000 C 
ENDBRANCH  21  24
ENDBRANCH  15  16
ENDBRANCH  13  15
ENDBRANCH   6  11
BRANCH   1  27
ATOM     26  C   UNL     1       4.971  16.281  18.703  0.00  0.00    +0.000 C 
ATOM     27  O   UNL     1       3.547  16.264  18.827  0.00  0.00    +0.000 OA
ENDBRANCH   1  27
BRANCH   5  28
ATOM     28  S   UNL     1       0.551  10.797  21.378  0.00  0.00    +0.000 S 
BRANCH  28  29
ATOM     29  C   UNL     1      -0.997  11.621  21.559  0.00  0.00    +0.000 A 
ATOM     30  C   UNL     1      -1.504  11.631  22.866  0.00  0.00    +0.000 A 
ATOM     31  C   UNL     1      -2.750  12.185  23.149  0.00  0.00    +0.000 A 
ATOM     32  C   UNL     1      -3.496  12.747  22.120  0.00  0.00    +0.000 A 
ATOM     33  C   UNL     1      -2.982  12.787  20.823  0.00  0.00    +0.000 A 
ATOM     34  C   UNL     1      -1.729  12.233  20.541  0.00  0.00    +0.000 A 
ENDBRANCH  28  29
ENDBRANCH   5  28
TORSDOF 8
ENDMDL
MODEL 6
REMARK VINA RESULT:      -7.1      1.023      1.796
REMARK  Name = 
REMARK  11 active torsions:
REMARK  status: ('A' for Active; 'I' for Inactive)
REMARK    1  A    between atoms: C_1  and  O_2
REMARK    2  A    between atoms: O_2  and  C_3
REMARK    3  A    between atoms: C_7  and  S_8
REMARK    4  A    between atoms: S_8  and  C_9
REMARK    5  A    between atoms: C_15  and  C_16
REMARK    6  A    between atoms: N_18  and  C_19
REMARK    7  A    between atoms: C_19  and  C_20
REMARK    8  A    between atoms: C_24  and  O_25
REMARK    9  A    between atoms: O_25  and  C_26
REMARK   10  A    between atoms: C_27  and  O_28
REMARK   11  A    between atoms: O_28  and  C_29
REMARK                            x       y       z     vdW  Elec       q    Type
REMARK                         _______ _______ _______ _____ _____    ______ ____
ROOT
ATOM      1  C   UNL     1       6.378   5.470  15.696  0.00  0.00    +0.000 A 
ATOM      2  C   UNL     1       5.557   4.351  15.600  0.00  0.00    +0.000 A 
ATOM      3  C   UNL     1       4.321   4.333  16.230  0.00  0.00    +0.000 A 
ATOM      4  C   UNL     1       3.914   5.442  16.985  0.00  0.00    +0.000 A 
ATOM      5  C   UNL     1       2.773   5.668  17.794  0.00  0.00    +0.000 A 
ATOM      6  C   UNL     1       2.897   6.901  18.416  0.00  0.00    +0.000 A 
ATOM      7  N   UNL     1       4.058   7.462  17.867  0.00  0.00    +0.000 N 
ATOM      8  C   UNL     1       4.730   6.562  17.072  0.00  0.00    +0.000 A 
ATOM      9  C   UNL     1       5.977   6.610  16.428  0.00  0.00    +0.000 A 
ATOM     10  H   UNL     1       4.386   8.389  18.114  0.00  0.00    +0.000 HD
ENDROOT
BRANCH   6  11
ATOM     11  C   UNL     1       2.140   7.669  19.381  0.00  0.00    +0.000 C 
ATOM     12  O   UNL     1       1.863   7.182  20.485  0.00  0.00    +0.000 OA
ATOM     13  N   UNL     1       1.640   8.924  19.141  0.00  0.00    +0.000 N 
ATOM     14  H   UNL     1       1.171   9.307  19.950  0.00  0.00    +0.000 HD
BRANCH  13  15
ATOM     15  C   UNL     1       1.651   9.786  17.961  0.00  0.00    +0.000 C 
BRANCH  15  16
ATOM     16  C   UNL     1       1.566  11.277  18.293  0.00  0.00    +0.000 A 
ATOM     17  C   UNL     1       2.674  12.114  18.045  0.00  0.00    +0.000 A 
ATOM     18  C   UNL     1       2.603  13.484  18.253  0.00  0.00    +0.000 A 
ATOM     19  C   UNL     1       1.430  14.052  18.731  0.00  0.00    +0.000 A 
ATOM     20  C   UNL     1       0.290  13.269  18.960  0.00  0.00    +0.000 A 
ATOM     21  C   UNL     1       0.347  11.869  18.729  0.00  0.00    +0.000 A 
BRANCH  20  22
ATOM     22  O   UNL     1      -0.868  13.831  19.436  0.00  0.00    +0.000 OA
ATOM     23  C   UNL     1      -0.954  14.079  20.836  0.00  0.00    +0.000 C 
ENDBRANCH  20  22
BRANCH  21  24
ATOM     24  O   UNL     1      -0.703  10.982  18.826  0.00  0.00    +0.000 OA
ATOM     25  C   UNL     1      -1.120  10.539  20.112  0.00  0.00    +0.000 C 
ENDBRANCH  21  24
ENDBRANCH  15  16
ENDBRANCH  13  15
ENDBRANCH   6  11
BRANCH   1  27
ATOM     26  C   UNL     1       7.662   5.077  13.750  0.00  0.00    +0.000 C 
ATOM     27  O   UNL     1       7.614   5.539  15.101  0.00  0.00    +0.000 OA
ENDBRANCH   1  27
BRANCH   5  28
ATOM     28  S   UNL     1       1.643   4.366  17.991  0.00  0.00    +0.000 S 
BRANCH  28  29
ATOM     29  C   UNL     1       1.910   3.582  19.547  0.00  0.00    +0.000 A 
ATOM     30  C   UNL     1       3.216   3.117  19.750  0.00  0.00    +0.000 A 
ATOM     31  C   UNL     1       3.559   2.416  20.904  0.00  0.00    +0.000 A 
ATOM     32  C   UNL     1       2.590   2.185  21.874  0.00  0.00    +0.000 A 
ATOM     33  C   UNL     1       1.298   2.686  21.707  0.00  0.00    +0.000 A 
ATOM     34  C   UNL     1       0.957   3.392  20.548  0.00  0.00    +0.000 A 
ENDBRANCH  28  29
ENDBRANCH   5  28
TORSDOF 8
ENDMDL
MODEL 7
REMARK VINA RESULT:      -6.9      3.010      9.184
REMARK  Name = 
REMARK  11 active torsions:
REMARK  status: ('A' for Active; 'I' for Inactive)
REMARK    1  A    between atoms: C_1  and  O_2
REMARK    2  A    between atoms: O_2  and  C_3
REMARK    3  A    between atoms: C_7  and  S_8
REMARK    4  A    between atoms: S_8  and  C_9
REMARK    5  A    between atoms: C_15  and  C_16
REMARK    6  A    between atoms: N_18  and  C_19
REMARK    7  A    between atoms: C_19  and  C_20
REMARK    8  A    between atoms: C_24  and  O_25
REMARK    9  A    between atoms: O_25  and  C_26
REMARK   10  A    between atoms: C_27  and  O_28
REMARK   11  A    between atoms: O_28  and  C_29
REMARK                            x       y       z     vdW  Elec       q    Type
REMARK                         _______ _______ _______ _____ _____    ______ ____
ROOT
ATOM      1  C   UNL     1      -2.103  11.070  17.105  0.00  0.00    +0.000 A 
ATOM      2  C   UNL     1      -2.026  12.289  17.769  0.00  0.00    +0.000 A 
ATOM      3  C   UNL     1      -1.240  12.420  18.904  0.00  0.00    +0.000 A 
ATOM      4  C   UNL     1      -0.542  11.307  19.394  0.00  0.00    +0.000 A 
ATOM      5  C   UNL     1       0.247  11.122  20.556  0.00  0.00    +0.000 A 
ATOM      6  C   UNL     1       0.629   9.791  20.635  0.00  0.00    +0.000 A 
ATOM      7  N   UNL     1       0.171   9.217  19.442  0.00  0.00    +0.000 N 
ATOM      8  C   UNL     1      -0.613  10.093  18.726  0.00  0.00    +0.000 A 
ATOM      9  C   UNL     1      -1.387   9.941  17.564  0.00  0.00    +0.000 A 
ATOM     10  H   UNL     1       0.336   8.245  19.205  0.00  0.00    +0.000 HD
ENDROOT
BRANCH   6  11
ATOM     11  C   UNL     1       1.359   8.964  21.573  0.00  0.00    +0.000 C 
ATOM     12  O   UNL     1       1.479   9.318  22.753  0.00  0.00    +0.000 OA
ATOM     13  N   UNL     1       1.999   7.799  21.232  0.00  0.00    +0.000 N 
ATOM     14  H   UNL     1       2.421   7.350  22.031  0.00  0.00    +0.000 HD
BRANCH  13  15
ATOM     15  C   UNL     1       2.185   7.108  19.958  0.00  0.00    +0.000 C 
BRANCH  15  16
ATOM     16  C   UNL     1       2.149   5.583  20.080  0.00  0.00    +0.000 A 
ATOM     17  C   UNL     1       0.961   4.941  20.489  0.00  0.00    +0.000 A 
ATOM     18  C   UNL     1       0.866   3.557  20.528  0.00  0.00    +0.000 A 
ATOM     19  C   UNL     1       1.960   2.778  20.176  0.00  0.00    +0.000 A 
ATOM     20  C   UNL     1       3.151   3.367  19.728  0.00  0.00    +0.000 A 
ATOM     21  C   UNL     1       3.250   4.781  19.666  0.00  0.00    +0.000 A 
BRANCH  20  22
ATOM     22  O   UNL     1       4.234   2.596  19.384  0.00  0.00    +0.000 OA
ATOM     23  C   UNL     1       4.001   1.465  18.551  0.00  0.00    +0.000 C 
ENDBRANCH  20  22
BRANCH  21  24
ATOM     24  O   UNL     1       4.314   5.505  19.172  0.00  0.00    +0.000 OA
ATOM     25  C   UNL     1       4.437   5.684  17.766  0.00  0.00    +0.000 C 
ENDBRANCH  21  24
ENDBRANCH  15  16
ENDBRANCH  13  15
ENDBRANCH   6  11
BRANCH   1  27
ATOM     26  C   UNL     1      -4.272  11.094  16.164  0.00  0.00    +0.000 C 
ATOM     27  O   UNL     1      -2.871  10.881  15.983  0.00  0.00    +0.000 OA
ENDBRANCH   1  27
BRANCH   5  28
ATOM     28  S   UNL     1       0.386  12.447  21.667  0.00  0.00    +0.000 S 
BRANCH  28  29
ATOM     29  C   UNL     1      -1.167  12.723  22.456  0.00  0.00    +0.000 A 
ATOM     30  C   UNL     1      -1.584  14.061  22.471  0.00  0.00    +0.000 A 
ATOM     31  C   UNL     1      -2.757  14.440  23.120  0.00  0.00    +0.000 A 
ATOM     32  C   UNL     1      -3.531  13.473  23.751  0.00  0.00    +0.000 A 
ATOM     33  C   UNL     1      -3.151  12.130  23.701  0.00  0.00    +0.000 A 
ATOM     34  C   UNL     1      -1.975  11.752  23.046  0.00  0.00    +0.000 A 
ENDBRANCH  28  29
ENDBRANCH   5  28
TORSDOF 8
ENDMDL
MODEL 8
REMARK VINA RESULT:      -6.9      2.914      9.012
REMARK  Name = 
REMARK  11 active torsions:
REMARK  status: ('A' for Active; 'I' for Inactive)
REMARK    1  A    between atoms: C_1  and  O_2
REMARK    2  A    between atoms: O_2  and  C_3
REMARK    3  A    between atoms: C_7  and  S_8
REMARK    4  A    between atoms: S_8  and  C_9
REMARK    5  A    between atoms: C_15  and  C_16
REMARK    6  A    between atoms: N_18  and  C_19
REMARK    7  A    between atoms: C_19  and  C_20
REMARK    8  A    between atoms: C_24  and  O_25
REMARK    9  A    between atoms: O_25  and  C_26
REMARK   10  A    between atoms: C_27  and  O_28
REMARK   11  A    between atoms: O_28  and  C_29
REMARK                            x       y       z     vdW  Elec       q    Type
REMARK                         _______ _______ _______ _____ _____    ______ ____
ROOT
ATOM      1  C   UNL     1       2.515  15.379  19.653  0.00  0.00    +0.000 A 
ATOM      2  C   UNL     1       2.107  15.019  20.933  0.00  0.00    +0.000 A 
ATOM      3  C   UNL     1       1.596  13.752  21.174  0.00  0.00    +0.000 A 
ATOM      4  C   UNL     1       1.470  12.844  20.114  0.00  0.00    +0.000 A 
ATOM      5  C   UNL     1       0.912  11.544  20.043  0.00  0.00    +0.000 A 
ATOM      6  C   UNL     1       0.939  11.111  18.726  0.00  0.00    +0.000 A 
ATOM      7  N   UNL     1       1.638  12.111  18.037  0.00  0.00    +0.000 N 
ATOM      8  C   UNL     1       1.886  13.202  18.839  0.00  0.00    +0.000 A 
ATOM      9  C   UNL     1       2.424  14.472  18.574  0.00  0.00    +0.000 A 
ATOM     10  H   UNL     1       1.843  12.050  17.046  0.00  0.00    +0.000 HD
ENDROOT
BRANCH   6  11
ATOM     11  C   UNL     1       0.482   9.948  17.995  0.00  0.00    +0.000 C 
ATOM     12  O   UNL     1      -0.689   9.884  17.598  0.00  0.00    +0.000 OA
ATOM     13  N   UNL     1       1.259   8.847  17.743  0.00  0.00    +0.000 N 
ATOM     14  H   UNL     1       0.772   8.156  17.189  0.00  0.00    +0.000 HD
BRANCH  13  15
ATOM     15  C   UNL     1       2.624   8.489  18.124  0.00  0.00    +0.000 C 
BRANCH  15  16
ATOM     16  C   UNL     1       2.728   7.130  18.819  0.00  0.00    +0.000 A 
ATOM     17  C   UNL     1       1.935   6.862  19.955  0.00  0.00    +0.000 A 
ATOM     18  C   UNL     1       1.940   5.612  20.559  0.00  0.00    +0.000 A 
ATOM     19  C   UNL     1       2.751   4.604  20.056  0.00  0.00    +0.000 A 
ATOM     20  C   UNL     1       3.530   4.809  18.909  0.00  0.00    +0.000 A 
ATOM     21  C   UNL     1       3.515   6.077  18.272  0.00  0.00    +0.000 A 
BRANCH  20  22
ATOM     22  O   UNL     1       4.334   3.812  18.414  0.00  0.00    +0.000 OA
ATOM     23  C   UNL     1       3.755   2.522  18.241  0.00  0.00    +0.000 C 
ENDBRANCH  20  22
BRANCH  21  24
ATOM     24  O   UNL     1       4.156   6.409  17.098  0.00  0.00    +0.000 OA
ATOM     25  C   UNL     1       5.558   6.650  17.119  0.00  0.00    +0.000 C 
ENDBRANCH  21  24
ENDBRANCH  15  16
ENDBRANCH  13  15
ENDBRANCH   6  11
BRANCH   1  27
ATOM     26  C   UNL     1       3.415  17.402  20.485  0.00  0.00    +0.000 C 
ATOM     27  O   UNL     1       3.020  16.622  19.355  0.00  0.00    +0.000 OA
ENDBRANCH   1  27
BRANCH   5  28
ATOM     28  S   UNL     1       0.173  10.896  21.473  0.00  0.00    +0.000 S 
BRANCH  28  29
ATOM     29  C   UNL     1      -1.363  11.711  21.766  0.00  0.00    +0.000 A 
ATOM     30  C   UNL     1      -1.806  11.660  23.095  0.00  0.00    +0.000 A 
ATOM     31  C   UNL     1      -3.036  12.200  23.463  0.00  0.00    +0.000 A 
ATOM     32  C   UNL     1      -3.829  12.810  22.499  0.00  0.00    +0.000 A 
ATOM     33  C   UNL     1      -3.377  12.911  21.181  0.00  0.00    +0.000 A 
ATOM     34  C   UNL     1      -2.140  12.370  20.815  0.00  0.00    +0.000 A 
ENDBRANCH  28  29
ENDBRANCH   5  28
TORSDOF 8
ENDMDL
MODEL 9
REMARK VINA RESULT:      -6.9      2.255      4.776
REMARK  Name = 
REMARK  11 active torsions:
REMARK  status: ('A' for Active; 'I' for Inactive)
REMARK    1  A    between atoms: C_1  and  O_2
REMARK    2  A    between atoms: O_2  and  C_3
REMARK    3  A    between atoms: C_7  and  S_8
REMARK    4  A    between atoms: S_8  and  C_9
REMARK    5  A    between atoms: C_15  and  C_16
REMARK    6  A    between atoms: N_18  and  C_19
REMARK    7  A    between atoms: C_19  and  C_20
REMARK    8  A    between atoms: C_24  and  O_25
REMARK    9  A    between atoms: O_25  and  C_26
REMARK   10  A    between atoms: C_27  and  O_28
REMARK   11  A    between atoms: O_28  and  C_29
REMARK                            x       y       z     vdW  Elec       q    Type
REMARK                         _______ _______ _______ _____ _____    ______ ____
ROOT
ATOM      1  C   UNL     1       2.168   4.542  20.693  0.00  0.00    +0.000 A 
ATOM      2  C   UNL     1       3.063   4.169  19.697  0.00  0.00    +0.000 A 
ATOM      3  C   UNL     1       3.480   5.092  18.749  0.00  0.00    +0.000 A 
ATOM      4  C   UNL     1       2.973   6.398  18.786  0.00  0.00    +0.000 A 
ATOM      5  C   UNL     1       3.143   7.504  17.917  0.00  0.00    +0.000 A 
ATOM      6  C   UNL     1       2.335   8.545  18.348  0.00  0.00    +0.000 A 
ATOM      7  N   UNL     1       1.784   8.094  19.554  0.00  0.00    +0.000 N 
ATOM      8  C   UNL     1       2.087   6.772  19.787  0.00  0.00    +0.000 A 
ATOM      9  C   UNL     1       1.665   5.860  20.769  0.00  0.00    +0.000 A 
ATOM     10  H   UNL     1       1.167   8.666  20.120  0.00  0.00    +0.000 HD
ENDROOT
BRANCH   6  11
ATOM     11  C   UNL     1       2.005   9.876  17.883  0.00  0.00    +0.000 C 
ATOM     12  O   UNL     1       2.904  10.676  17.594  0.00  0.00    +0.000 OA
ATOM     13  N   UNL     1       0.724  10.358  17.784  0.00  0.00    +0.000 N 
ATOM     14  H   UNL     1       0.699  11.295  17.407  0.00  0.00    +0.000 HD
BRANCH  13  15
ATOM     15  C   UNL     1      -0.578   9.787  18.121  0.00  0.00    +0.000 C 
BRANCH  15  16
ATOM     16  C   UNL     1      -1.536  10.790  18.767  0.00  0.00    +0.000 A 
ATOM     17  C   UNL     1      -2.778  11.067  18.156  0.00  0.00    +0.000 A 
ATOM     18  C   UNL     1      -3.706  11.905  18.757  0.00  0.00    +0.000 A 
ATOM     19  C   UNL     1      -3.413  12.502  19.975  0.00  0.00    +0.000 A 
ATOM     20  C   UNL     1      -2.209  12.232  20.640  0.00  0.00    +0.000 A 
ATOM     21  C   UNL     1      -1.262  11.360  20.042  0.00  0.00    +0.000 A 
BRANCH  20  22
ATOM     22  O   UNL     1      -1.918  12.827  21.843  0.00  0.00    +0.000 OA
ATOM     23  C   UNL     1      -2.561  12.315  23.005  0.00  0.00    +0.000 C 
ENDBRANCH  20  22
BRANCH  21  24
ATOM     24  O   UNL     1      -0.078  10.932  20.603  0.00  0.00    +0.000 OA
ATOM     25  C   UNL     1       0.966  11.874  20.820  0.00  0.00    +0.000 C 
ENDBRANCH  21  24
ENDBRANCH  15  16
ENDBRANCH  13  15
ENDBRANCH   6  11
BRANCH   1  27
ATOM     26  C   UNL     1       1.982   2.289  21.389  0.00  0.00    +0.000 C 
ATOM     27  O   UNL     1       1.715   3.668  21.652  0.00  0.00    +0.000 OA
ENDBRANCH   1  27
BRANCH   5  28
ATOM     28  S   UNL     1       4.093   7.275  16.483  0.00  0.00    +0.000 S 
BRANCH  28  29
ATOM     29  C   UNL     1       5.533   6.334  16.872  0.00  0.00    +0.000 A 
ATOM     30  C   UNL     1       5.673   5.150  16.135  0.00  0.00    +0.000 A 
ATOM     31  C   UNL     1       6.725   4.271  16.380  0.00  0.00    +0.000 A 
ATOM     32  C   UNL     1       7.657   4.580  17.365  0.00  0.00    +0.000 A 
ATOM     33  C   UNL     1       7.556   5.780  18.072  0.00  0.00    +0.000 A 
ATOM     34  C   UNL     1       6.500   6.663  17.821  0.00  0.00    +0.000 A 
ENDBRANCH  28  29
ENDBRANCH   5  28
TORSDOF 8
ENDMDL
