MODEL 1
REMARK VINA RESULT:      -6.9      0.000      0.000
REMARK  Name = 
REMARK  9 active torsions:
REMARK  status: ('A' for Active; 'I' for Inactive)
REMARK    1  A    between atoms: C_1  and  O_2
REMARK    2  A    between atoms: O_2  and  C_3
REMARK    3  A    between atoms: C_6  and  C_7
REMARK    4  A    between atoms: C_9  and  C_10
REMARK    5  A    between atoms: C_13  and  O_14
REMARK    6  A    between atoms: O_14  and  C_15
REMARK    7  A    between atoms: C_18  and  C_19
REMARK    8  A    between atoms: C_22  and  O_23
REMARK    9  A    between atoms: O_23  and  C_24
REMARK                            x       y       z     vdW  Elec       q    Type
REMARK                         _______ _______ _______ _____ _____    ______ ____
ROOT
ATOM      1  C   UNL     1      -2.013  11.459  18.708  0.00  0.00    +0.000 A 
ATOM      2  N   UNL     1      -1.427  10.280  18.699  0.00  0.00    +0.000 NA
ATOM      3  C   UNL     1      -0.083  10.512  18.929  0.00  0.00    +0.000 A 
ATOM      4  C   UNL     1       0.166  11.871  19.083  0.00  0.00    +0.000 A 
ATOM      5  N   UNL     1      -1.085  12.432  18.982  0.00  0.00    +0.000 N 
ATOM      6  H   UNL     1      -1.291  13.416  19.060  0.00  0.00    +0.000 HD
ENDROOT
BRANCH   1  10
ATOM      7  C   UNL     1      -6.156  12.337  18.049  0.00  0.00    +0.000 A 
ATOM      8  C   UNL     1      -5.567  12.581  19.289  0.00  0.00    +0.000 A 
ATOM      9  C   UNL     1      -4.213  12.295  19.506  0.00  0.00    +0.000 A 
ATOM     10  C   UNL     1      -3.430  11.750  18.481  0.00  0.00    +0.000 A 
ATOM     11  C   UNL     1      -4.039  11.483  17.247  0.00  0.00    +0.000 A 
ATOM     12  C   UNL     1      -5.391  11.773  17.030  0.00  0.00    +0.000 A 
BRANCH   7  14
ATOM     13  C   UNL     1      -7.856  13.942  18.414  0.00  0.00    +0.000 C 
ATOM     14  O   UNL     1      -7.485  12.645  17.958  0.00  0.00    +0.000 OA
ENDBRANCH   7  14
ENDBRANCH   1  10
BRANCH   3  15
ATOM     15  C   UNL     1       0.889   9.429  18.956  0.00  0.00    +0.000 A 
ATOM     16  C   UNL     1       1.089   8.705  20.136  0.00  0.00    +0.000 A 
ATOM     17  C   UNL     1       1.992   7.636  20.167  0.00  0.00    +0.000 A 
ATOM     18  C   UNL     1       2.694   7.266  19.018  0.00  0.00    +0.000 A 
ATOM     19  C   UNL     1       2.519   7.999  17.846  0.00  0.00    +0.000 A 
ATOM     20  C   UNL     1       1.634   9.084  17.822  0.00  0.00    +0.000 A 
BRANCH  18  21
ATOM     21  O   UNL     1       3.548   6.209  19.170  0.00  0.00    +0.000 OA
ATOM     22  C   UNL     1       4.490   6.011  18.123  0.00  0.00    +0.000 C 
ENDBRANCH  18  21
ENDBRANCH   3  15
BRANCH   4  23
ATOM     23  C   UNL     1       1.370  12.690  19.252  0.00  0.00    +0.000 A 
ATOM     24  C   UNL     1       2.114  13.114  18.146  0.00  0.00    +0.000 A 
ATOM     25  C   UNL     1       3.262  13.893  18.312  0.00  0.00    +0.000 A 
ATOM     26  C   UNL     1       3.650  14.311  19.581  0.00  0.00    +0.000 A 
ATOM     27  C   UNL     1       2.920  13.898  20.695  0.00  0.00    +0.000 A 
ATOM     28  C   UNL     1       1.791  13.088  20.530  0.00  0.00    +0.000 A 
BRANCH  26  29
ATOM     29  O   UNL     1       4.775  15.086  19.632  0.00  0.00    +0.000 OA
ATOM     30  C   UNL     1       5.496  15.165  18.406  0.00  0.00    +0.000 C 
ENDBRANCH  26  29
ENDBRANCH   4  23
TORSDOF 6
ENDMDL
MODEL 2
REMARK VINA RESULT:      -6.8      1.983      8.654
REMARK  Name = 
REMARK  9 active torsions:
REMARK  status: ('A' for Active; 'I' for Inactive)
REMARK    1  A    between atoms: C_1  and  O_2
REMARK    2  A    between atoms: O_2  and  C_3
REMARK    3  A    between atoms: C_6  and  C_7
REMARK    4  A    between atoms: C_9  and  C_10
REMARK    5  A    between atoms: C_13  and  O_14
REMARK    6  A    between atoms: O_14  and  C_15
REMARK    7  A    between atoms: C_18  and  C_19
REMARK    8  A    between atoms: C_22  and  O_23
REMARK    9  A    between atoms: O_23  and  C_24
REMARK                            x       y       z     vdW  Elec       q    Type
REMARK                         _______ _______ _______ _____ _____    ______ ____
ROOT
ATOM      1  C   UNL     1       2.043   8.552  18.085  0.00  0.00    +0.000 A 
ATOM      2  N   UNL     1       2.535   9.702  18.496  0.00  0.00    +0.000 NA
ATOM      3  C   UNL     1       1.467  10.578  18.569  0.00  0.00    +0.000 A 
ATOM      4  C   UNL     1       0.285   9.952  18.191  0.00  0.00    +0.000 A 
ATOM      5  N   UNL     1       0.683   8.660  17.937  0.00  0.00    +0.000 N 
ATOM      6  H   UNL     1       0.075   7.909  17.647  0.00  0.00    +0.000 HD
ENDROOT
BRANCH   1  10
ATOM      7  C   UNL     1       4.212   4.933  17.331  0.00  0.00    +0.000 A 
ATOM      8  C   UNL     1       4.769   6.174  17.018  0.00  0.00    +0.000 A 
ATOM      9  C   UNL     1       4.061   7.357  17.263  0.00  0.00    +0.000 A 
ATOM     10  C   UNL     1       2.778   7.313  17.821  0.00  0.00    +0.000 A 
ATOM     11  C   UNL     1       2.216   6.060  18.107  0.00  0.00    +0.000 A 
ATOM     12  C   UNL     1       2.927   4.878  17.864  0.00  0.00    +0.000 A 
BRANCH   7  14
ATOM     13  C   UNL     1       5.750   3.935  15.835  0.00  0.00    +0.000 C 
ATOM     14  O   UNL     1       4.990   3.848  17.036  0.00  0.00    +0.000 OA
ENDBRANCH   7  14
ENDBRANCH   1  10
BRANCH   3  15
ATOM     15  C   UNL     1       1.641  11.968  18.963  0.00  0.00    +0.000 A 
ATOM     16  C   UNL     1       2.106  12.901  18.029  0.00  0.00    +0.000 A 
ATOM     17  C   UNL     1       2.241  14.249  18.380  0.00  0.00    +0.000 A 
ATOM     18  C   UNL     1       1.898  14.686  19.662  0.00  0.00    +0.000 A 
ATOM     19  C   UNL     1       1.458  13.759  20.605  0.00  0.00    +0.000 A 
ATOM     20  C   UNL     1       1.347  12.406  20.260  0.00  0.00    +0.000 A 
BRANCH  18  21
ATOM     21  O   UNL     1       2.073  16.023  19.889  0.00  0.00    +0.000 OA
ATOM     22  C   UNL     1       2.213  16.839  18.732  0.00  0.00    +0.000 C 
ENDBRANCH  18  21
ENDBRANCH   3  15
BRANCH   4  23
ATOM     23  C   UNL     1      -1.100  10.388  17.992  0.00  0.00    +0.000 A 
ATOM     24  C   UNL     1      -1.689  11.328  18.843  0.00  0.00    +0.000 A 
ATOM     25  C   UNL     1      -3.011  11.738  18.652  0.00  0.00    +0.000 A 
ATOM     26  C   UNL     1      -3.745  11.260  17.571  0.00  0.00    +0.000 A 
ATOM     27  C   UNL     1      -3.174  10.322  16.713  0.00  0.00    +0.000 A 
ATOM     28  C   UNL     1      -1.862   9.885  16.927  0.00  0.00    +0.000 A 
BRANCH  26  29
ATOM     29  O   UNL     1      -5.020  11.740  17.462  0.00  0.00    +0.000 OA
ATOM     30  C   UNL     1      -5.976  11.070  18.278  0.00  0.00    +0.000 C 
ENDBRANCH  26  29
ENDBRANCH   4  23
TORSDOF 6
ENDMDL
MODEL 3
REMARK VINA RESULT:      -6.7      2.022      8.640
REMARK  Name = 
REMARK  9 active torsions:
REMARK  status: ('A' for Active; 'I' for Inactive)
REMARK    1  A    between atoms: C_1  and  O_2
REMARK    2  A    between atoms: O_2  and  C_3
REMARK    3  A    between atoms: C_6  and  C_7
REMARK    4  A    between atoms: C_9  and  C_10
REMARK    5  A    between atoms: C_13  and  O_14
REMARK    6  A    between atoms: O_14  and  C_15
REMARK    7  A    between atoms: C_18  and  C_19
REMARK    8  A    between atoms: C_22  and  O_23
REMARK    9  A    between atoms: O_23  and  C_24
REMARK                            x       y       z     vdW  Elec       q    Type
REMARK                         _______ _______ _______ _____ _____    ______ ____
ROOT
ATOM      1  C   UNL     1       2.052   8.661  18.079  0.00  0.00    +0.000 A 
ATOM      2  N   UNL     1       2.520   9.809  18.524  0.00  0.00    +0.000 NA
ATOM      3  C   UNL     1       1.436  10.661  18.622  0.00  0.00    +0.000 A 
ATOM      4  C   UNL     1       0.266  10.022  18.226  0.00  0.00    +0.000 A 
ATOM      5  N   UNL     1       0.690   8.746  17.934  0.00  0.00    +0.000 N 
ATOM      6  H   UNL     1       0.098   7.992  17.622  0.00  0.00    +0.000 HD
ENDROOT
BRANCH   1  10
ATOM      7  C   UNL     1       4.255   5.095  17.187  0.00  0.00    +0.000 A 
ATOM      8  C   UNL     1       3.035   5.027  17.862  0.00  0.00    +0.000 A 
ATOM      9  C   UNL     1       2.315   6.191  18.154  0.00  0.00    +0.000 A 
ATOM     10  C   UNL     1       2.811   7.446  17.779  0.00  0.00    +0.000 A 
ATOM     11  C   UNL     1       4.050   7.505  17.125  0.00  0.00    +0.000 A 
ATOM     12  C   UNL     1       4.768   6.340  16.831  0.00  0.00    +0.000 A 
BRANCH   7  14
ATOM     13  C   UNL     1       5.957   3.913  16.043  0.00  0.00    +0.000 C 
ATOM     14  O   UNL     1       4.873   3.895  16.967  0.00  0.00    +0.000 OA
ENDBRANCH   7  14
ENDBRANCH   1  10
BRANCH   3  15
ATOM     15  C   UNL     1       1.581  12.042  19.056  0.00  0.00    +0.000 A 
ATOM     16  C   UNL     1       1.905  13.033  18.122  0.00  0.00    +0.000 A 
ATOM     17  C   UNL     1       2.010  14.371  18.516  0.00  0.00    +0.000 A 
ATOM     18  C   UNL     1       1.778  14.741  19.843  0.00  0.00    +0.000 A 
ATOM     19  C   UNL     1       1.479  13.757  20.784  0.00  0.00    +0.000 A 
ATOM     20  C   UNL     1       1.399  12.415  20.393  0.00  0.00    +0.000 A 
BRANCH  18  21
ATOM     21  O   UNL     1       1.911  16.076  20.109  0.00  0.00    +0.000 OA
ATOM     22  C   UNL     1       1.431  16.962  19.106  0.00  0.00    +0.000 C 
ENDBRANCH  18  21
ENDBRANCH   3  15
BRANCH   4  23
ATOM     23  C   UNL     1      -1.128  10.435  18.040  0.00  0.00    +0.000 A 
ATOM     24  C   UNL     1      -1.917   9.874  17.031  0.00  0.00    +0.000 A 
ATOM     25  C   UNL     1      -3.244  10.273  16.855  0.00  0.00    +0.000 A 
ATOM     26  C   UNL     1      -3.822  11.195  17.723  0.00  0.00    +0.000 A 
ATOM     27  C   UNL     1      -3.050  11.764  18.734  0.00  0.00    +0.000 A 
ATOM     28  C   UNL     1      -1.710  11.391  18.887  0.00  0.00    +0.000 A 
BRANCH  26  29
ATOM     29  O   UNL     1      -5.131  11.501  17.477  0.00  0.00    +0.000 OA
ATOM     30  C   UNL     1      -6.057  10.922  18.391  0.00  0.00    +0.000 C 
ENDBRANCH  26  29
ENDBRANCH   4  23
TORSDOF 6
ENDMDL
MODEL 4
REMARK VINA RESULT:      -6.7      2.651      8.013
REMARK  Name = 
REMARK  9 active torsions:
REMARK  status: ('A' for Active; 'I' for Inactive)
REMARK    1  A    between atoms: C_1  and  O_2
REMARK    2  A    between atoms: O_2  and  C_3
REMARK    3  A    between atoms: C_6  and  C_7
REMARK    4  A    between atoms: C_9  and  C_10
REMARK    5  A    between atoms: C_13  and  O_14
REMARK    6  A    between atoms: O_14  and  C_15
REMARK    7  A    between atoms: C_18  and  C_19
REMARK    8  A    between atoms: C_22  and  O_23
REMARK    9  A    between atoms: O_23  and  C_24
REMARK                            x       y       z     vdW  Elec       q    Type
REMARK                         _______ _______ _______ _____ _____    ______ ____
ROOT
ATOM      1  C   UNL     1       1.377   8.800  18.725  0.00  0.00    +0.000 A 
ATOM      2  N   UNL     1       0.315   9.009  17.974  0.00  0.00    +0.000 NA
ATOM      3  C   UNL     1      -0.408  10.013  18.591  0.00  0.00    +0.000 A 
ATOM      4  C   UNL     1       0.225  10.435  19.755  0.00  0.00    +0.000 A 
ATOM      5  N   UNL     1       1.372   9.677  19.780  0.00  0.00    +0.000 N 
ATOM      6  H   UNL     1       2.089   9.727  20.488  0.00  0.00    +0.000 HD
ENDROOT
BRANCH   1  10
ATOM      7  C   UNL     1       4.462   5.892  18.099  0.00  0.00    +0.000 A 
ATOM      8  C   UNL     1       3.581   5.773  19.174  0.00  0.00    +0.000 A 
ATOM      9  C   UNL     1       2.573   6.723  19.380  0.00  0.00    +0.000 A 
ATOM     10  C   UNL     1       2.437   7.813  18.512  0.00  0.00    +0.000 A 
ATOM     11  C   UNL     1       3.345   7.938  17.451  0.00  0.00    +0.000 A 
ATOM     12  C   UNL     1       4.350   6.986  17.245  0.00  0.00    +0.000 A 
BRANCH   7  14
ATOM     13  C   UNL     1       6.080   4.811  16.753  0.00  0.00    +0.000 C 
ATOM     14  O   UNL     1       5.412   4.913  18.006  0.00  0.00    +0.000 OA
ENDBRANCH   7  14
ENDBRANCH   1  10
BRANCH   3  15
ATOM     15  C   UNL     1      -1.674  10.489  18.055  0.00  0.00    +0.000 A 
ATOM     16  C   UNL     1      -2.503  11.294  18.843  0.00  0.00    +0.000 A 
ATOM     17  C   UNL     1      -3.705  11.791  18.329  0.00  0.00    +0.000 A 
ATOM     18  C   UNL     1      -4.088  11.506  17.015  0.00  0.00    +0.000 A 
ATOM     19  C   UNL     1      -3.279  10.685  16.232  0.00  0.00    +0.000 A 
ATOM     20  C   UNL     1      -2.088  10.167  16.757  0.00  0.00    +0.000 A 
BRANCH  18  21
ATOM     21  O   UNL     1      -5.282  12.046  16.625  0.00  0.00    +0.000 OA
ATOM     22  C   UNL     1      -6.271  12.173  17.639  0.00  0.00    +0.000 C 
ENDBRANCH  18  21
ENDBRANCH   3  15
BRANCH   4  23
ATOM     23  C   UNL     1      -0.105  11.374  20.832  0.00  0.00    +0.000 A 
ATOM     24  C   UNL     1       0.261  12.721  20.750  0.00  0.00    +0.000 A 
ATOM     25  C   UNL     1      -0.053  13.611  21.780  0.00  0.00    +0.000 A 
ATOM     26  C   UNL     1      -0.792  13.183  22.879  0.00  0.00    +0.000 A 
ATOM     27  C   UNL     1      -1.165  11.843  22.976  0.00  0.00    +0.000 A 
ATOM     28  C   UNL     1      -0.818  10.944  21.961  0.00  0.00    +0.000 A 
BRANCH  26  29
ATOM     29  O   UNL     1      -1.063  14.136  23.819  0.00  0.00    +0.000 OA
ATOM     30  C   UNL     1      -1.409  15.411  23.287  0.00  0.00    +0.000 C 
ENDBRANCH  26  29
ENDBRANCH   4  23
TORSDOF 6
ENDMDL
MODEL 5
REMARK VINA RESULT:      -6.7      0.580      5.199
REMARK  Name = 
REMARK  9 active torsions:
REMARK  status: ('A' for Active; 'I' for Inactive)
REMARK    1  A    between atoms: C_1  and  O_2
REMARK    2  A    between atoms: O_2  and  C_3
REMARK    3  A    between atoms: C_6  and  C_7
REMARK    4  A    between atoms: C_9  and  C_10
REMARK    5  A    between atoms: C_13  and  O_14
REMARK    6  A    between atoms: O_14  and  C_15
REMARK    7  A    between atoms: C_18  and  C_19
REMARK    8  A    between atoms: C_22  and  O_23
REMARK    9  A    between atoms: O_23  and  C_24
REMARK                            x       y       z     vdW  Elec       q    Type
REMARK                         _______ _______ _______ _____ _____    ______ ____
ROOT
ATOM      1  C   UNL     1      -1.884  11.675  18.749  0.00  0.00    +0.000 A 
ATOM      2  N   UNL     1      -0.994  12.619  18.973  0.00  0.00    +0.000 NA
ATOM      3  C   UNL     1       0.236  11.989  19.038  0.00  0.00    +0.000 A 
ATOM      4  C   UNL     1       0.100  10.618  18.851  0.00  0.00    +0.000 A 
ATOM      5  N   UNL     1      -1.249  10.465  18.626  0.00  0.00    +0.000 N 
ATOM      6  H   UNL     1      -1.712   9.590  18.435  0.00  0.00    +0.000 HD
ENDROOT
BRANCH   1  10
ATOM      7  C   UNL     1      -6.128  12.157  18.394  0.00  0.00    +0.000 A 
ATOM      8  C   UNL     1      -5.452  12.616  19.526  0.00  0.00    +0.000 A 
ATOM      9  C   UNL     1      -4.066  12.458  19.643  0.00  0.00    +0.000 A 
ATOM     10  C   UNL     1      -3.335  11.830  18.628  0.00  0.00    +0.000 A 
ATOM     11  C   UNL     1      -4.027  11.348  17.508  0.00  0.00    +0.000 A 
ATOM     12  C   UNL     1      -5.412  11.509  17.390  0.00  0.00    +0.000 A 
BRANCH   7  14
ATOM     13  C   UNL     1      -7.917  13.675  18.703  0.00  0.00    +0.000 C 
ATOM     14  O   UNL     1      -7.481  12.354  18.396  0.00  0.00    +0.000 OA
ENDBRANCH   7  14
ENDBRANCH   1  10
BRANCH   3  15
ATOM     15  C   UNL     1       1.462  12.723  19.308  0.00  0.00    +0.000 A 
ATOM     16  C   UNL     1       2.303  13.084  18.249  0.00  0.00    +0.000 A 
ATOM     17  C   UNL     1       3.466  13.824  18.488  0.00  0.00    +0.000 A 
ATOM     18  C   UNL     1       3.797  14.228  19.784  0.00  0.00    +0.000 A 
ATOM     19  C   UNL     1       2.978  13.851  20.846  0.00  0.00    +0.000 A 
ATOM     20  C   UNL     1       1.827  13.089  20.609  0.00  0.00    +0.000 A 
BRANCH  18  21
ATOM     21  O   UNL     1       4.957  14.945  19.893  0.00  0.00    +0.000 OA
ATOM     22  C   UNL     1       4.936  16.253  19.334  0.00  0.00    +0.000 C 
ENDBRANCH  18  21
ENDBRANCH   3  15
BRANCH   4  23
ATOM     23  C   UNL     1       1.010   9.470  18.903  0.00  0.00    +0.000 A 
ATOM     24  C   UNL     1       1.057   8.639  20.026  0.00  0.00    +0.000 A 
ATOM     25  C   UNL     1       1.928   7.547  20.072  0.00  0.00    +0.000 A 
ATOM     26  C   UNL     1       2.722   7.234  18.972  0.00  0.00    +0.000 A 
ATOM     27  C   UNL     1       2.687   8.053  17.845  0.00  0.00    +0.000 A 
ATOM     28  C   UNL     1       1.841   9.167  17.814  0.00  0.00    +0.000 A 
BRANCH  26  29
ATOM     29  O   UNL     1       3.523   6.136  19.113  0.00  0.00    +0.000 OA
ATOM     30  C   UNL     1       3.045   5.169  20.042  0.00  0.00    +0.000 C 
ENDBRANCH  26  29
ENDBRANCH   4  23
TORSDOF 6
ENDMDL
MODEL 6
REMARK VINA RESULT:      -6.7      1.902      8.542
REMARK  Name = 
REMARK  9 active torsions:
REMARK  status: ('A' for Active; 'I' for Inactive)
REMARK    1  A    between atoms: C_1  and  O_2
REMARK    2  A    between atoms: O_2  and  C_3
REMARK    3  A    between atoms: C_6  and  C_7
REMARK    4  A    between atoms: C_9  and  C_10
REMARK    5  A    between atoms: C_13  and  O_14
REMARK    6  A    between atoms: O_14  and  C_15
REMARK    7  A    between atoms: C_18  and  C_19
REMARK    8  A    between atoms: C_22  and  O_23
REMARK    9  A    between atoms: O_23  and  C_24
REMARK                            x       y       z     vdW  Elec       q    Type
REMARK                         _______ _______ _______ _____ _____    ______ ____
ROOT
ATOM      1  C   UNL     1       1.974   8.642  18.114  0.00  0.00    +0.000 A 
ATOM      2  N   UNL     1       2.421   9.792  18.572  0.00  0.00    +0.000 NA
ATOM      3  C   UNL     1       1.331  10.641  18.628  0.00  0.00    +0.000 A 
ATOM      4  C   UNL     1       0.179   9.996  18.190  0.00  0.00    +0.000 A 
ATOM      5  N   UNL     1       0.618   8.721  17.918  0.00  0.00    +0.000 N 
ATOM      6  H   UNL     1       0.041   7.964  17.587  0.00  0.00    +0.000 HD
ENDROOT
BRANCH   1  10
ATOM      7  C   UNL     1       4.260   5.098  17.349  0.00  0.00    +0.000 A 
ATOM      8  C   UNL     1       4.759   6.354  17.003  0.00  0.00    +0.000 A 
ATOM      9  C   UNL     1       4.013   7.513  17.252  0.00  0.00    +0.000 A 
ATOM     10  C   UNL     1       2.749   7.428  17.847  0.00  0.00    +0.000 A 
ATOM     11  C   UNL     1       2.245   6.159  18.165  0.00  0.00    +0.000 A 
ATOM     12  C   UNL     1       2.993   5.002  17.919  0.00  0.00    +0.000 A 
BRANCH   7  14
ATOM     13  C   UNL     1       5.663   4.057  15.752  0.00  0.00    +0.000 C 
ATOM     14  O   UNL     1       5.071   4.039  17.047  0.00  0.00    +0.000 OA
ENDBRANCH   7  14
ENDBRANCH   1  10
BRANCH   3  15
ATOM     15  C   UNL     1       1.455  12.023  19.062  0.00  0.00    +0.000 A 
ATOM     16  C   UNL     1       1.283  12.346  20.413  0.00  0.00    +0.000 A 
ATOM     17  C   UNL     1       1.437  13.665  20.852  0.00  0.00    +0.000 A 
ATOM     18  C   UNL     1       1.781  14.677  19.952  0.00  0.00    +0.000 A 
ATOM     19  C   UNL     1       1.930  14.369  18.602  0.00  0.00    +0.000 A 
ATOM     20  C   UNL     1       1.751  13.052  18.159  0.00  0.00    +0.000 A 
BRANCH  18  21
ATOM     21  O   UNL     1       1.903  15.926  20.497  0.00  0.00    +0.000 OA
ATOM     22  C   UNL     1       2.873  16.776  19.898  0.00  0.00    +0.000 C 
ENDBRANCH  18  21
ENDBRANCH   3  15
BRANCH   4  23
ATOM     23  C   UNL     1      -1.209  10.403  17.951  0.00  0.00    +0.000 A 
ATOM     24  C   UNL     1      -1.937   9.883  16.877  0.00  0.00    +0.000 A 
ATOM     25  C   UNL     1      -3.258  10.276  16.651  0.00  0.00    +0.000 A 
ATOM     26  C   UNL     1      -3.893  11.148  17.531  0.00  0.00    +0.000 A 
ATOM     27  C   UNL     1      -3.181  11.676  18.607  0.00  0.00    +0.000 A 
ATOM     28  C   UNL     1      -1.846  11.310  18.812  0.00  0.00    +0.000 A 
BRANCH  26  29
ATOM     29  O   UNL     1      -5.191  11.453  17.232  0.00  0.00    +0.000 OA
ATOM     30  C   UNL     1      -5.767  12.463  18.053  0.00  0.00    +0.000 C 
ENDBRANCH  26  29
ENDBRANCH   4  23
TORSDOF 6
ENDMDL
MODEL 7
REMARK VINA RESULT:      -6.7      2.620      8.054
REMARK  Name = 
REMARK  9 active torsions:
REMARK  status: ('A' for Active; 'I' for Inactive)
REMARK    1  A    between atoms: C_1  and  O_2
REMARK    2  A    between atoms: O_2  and  C_3
REMARK    3  A    between atoms: C_6  and  C_7
REMARK    4  A    between atoms: C_9  and  C_10
REMARK    5  A    between atoms: C_13  and  O_14
REMARK    6  A    between atoms: O_14  and  C_15
REMARK    7  A    between atoms: C_18  and  C_19
REMARK    8  A    between atoms: C_22  and  O_23
REMARK    9  A    between atoms: O_23  and  C_24
REMARK                            x       y       z     vdW  Elec       q    Type
REMARK                         _______ _______ _______ _____ _____    ______ ____
ROOT
ATOM      1  C   UNL     1       1.385   8.792  18.723  0.00  0.00    +0.000 A 
ATOM      2  N   UNL     1       0.322   8.983  17.970  0.00  0.00    +0.000 NA
ATOM      3  C   UNL     1      -0.397  10.005  18.563  0.00  0.00    +0.000 A 
ATOM      4  C   UNL     1       0.240  10.456  19.713  0.00  0.00    +0.000 A 
ATOM      5  N   UNL     1       1.386   9.696  19.755  0.00  0.00    +0.000 N 
ATOM      6  H   UNL     1       2.104   9.763  20.459  0.00  0.00    +0.000 HD
ENDROOT
BRANCH   1  10
ATOM      7  C   UNL     1       4.500   5.901  18.171  0.00  0.00    +0.000 A 
ATOM      8  C   UNL     1       4.359   6.970  17.286  0.00  0.00    +0.000 A 
ATOM      9  C   UNL     1       3.341   7.915  17.465  0.00  0.00    +0.000 A 
ATOM     10  C   UNL     1       2.443   7.798  18.533  0.00  0.00    +0.000 A 
ATOM     11  C   UNL     1       2.577   6.704  19.400  0.00  0.00    +0.000 A 
ATOM     12  C   UNL     1       3.597   5.762  19.222  0.00  0.00    +0.000 A 
BRANCH   7  14
ATOM     13  C   UNL     1       6.295   5.341  16.734  0.00  0.00    +0.000 C 
ATOM     14  O   UNL     1       5.521   5.036  17.890  0.00  0.00    +0.000 OA
ENDBRANCH   7  14
ENDBRANCH   1  10
BRANCH   3  15
ATOM     15  C   UNL     1      -1.664  10.469  18.018  0.00  0.00    +0.000 A 
ATOM     16  C   UNL     1      -2.491  11.294  18.789  0.00  0.00    +0.000 A 
ATOM     17  C   UNL     1      -3.693  11.781  18.264  0.00  0.00    +0.000 A 
ATOM     18  C   UNL     1      -4.079  11.463  16.960  0.00  0.00    +0.000 A 
ATOM     19  C   UNL     1      -3.273  10.623  16.195  0.00  0.00    +0.000 A 
ATOM     20  C   UNL     1      -2.082  10.116  16.729  0.00  0.00    +0.000 A 
BRANCH  18  21
ATOM     21  O   UNL     1      -5.274  11.995  16.559  0.00  0.00    +0.000 OA
ATOM     22  C   UNL     1      -6.021  12.675  17.560  0.00  0.00    +0.000 C 
ENDBRANCH  18  21
ENDBRANCH   3  15
BRANCH   4  23
ATOM     23  C   UNL     1      -0.086  11.423  20.766  0.00  0.00    +0.000 A 
ATOM     24  C   UNL     1      -0.798  11.035  21.905  0.00  0.00    +0.000 A 
ATOM     25  C   UNL     1      -1.108  11.961  22.904  0.00  0.00    +0.000 A 
ATOM     26  C   UNL     1      -0.659  13.275  22.810  0.00  0.00    +0.000 A 
ATOM     27  C   UNL     1       0.053  13.678  21.681  0.00  0.00    +0.000 A 
ATOM     28  C   UNL     1       0.331  12.759  20.663  0.00  0.00    +0.000 A 
BRANCH  26  29
ATOM     29  O   UNL     1      -0.998  14.094  23.850  0.00  0.00    +0.000 OA
ATOM     30  C   UNL     1      -1.126  15.469  23.503  0.00  0.00    +0.000 C 
ENDBRANCH  26  29
ENDBRANCH   4  23
TORSDOF 6
ENDMDL
MODEL 8
REMARK VINA RESULT:      -6.6      2.006      8.636
REMARK  Name = 
REMARK  9 active torsions:
REMARK  status: ('A' for Active; 'I' for Inactive)
REMARK    1  A    between atoms: C_1  and  O_2
REMARK    2  A    between atoms: O_2  and  C_3
REMARK    3  A    between atoms: C_6  and  C_7
REMARK    4  A    between atoms: C_9  and  C_10
REMARK    5  A    between atoms: C_13  and  O_14
REMARK    6  A    between atoms: O_14  and  C_15
REMARK    7  A    between atoms: C_18  and  C_19
REMARK    8  A    between atoms: C_22  and  O_23
REMARK    9  A    between atoms: O_23  and  C_24
REMARK                            x       y       z     vdW  Elec       q    Type
REMARK                         _______ _______ _______ _____ _____    ______ ____
ROOT
ATOM      1  C   UNL     1       1.958   8.658  18.122  0.00  0.00    +0.000 A 
ATOM      2  N   UNL     1       2.375   9.808  18.609  0.00  0.00    +0.000 NA
ATOM      3  C   UNL     1       1.269  10.636  18.655  0.00  0.00    +0.000 A 
ATOM      4  C   UNL     1       0.138   9.980  18.183  0.00  0.00    +0.000 A 
ATOM      5  N   UNL     1       0.605   8.717  17.899  0.00  0.00    +0.000 N 
ATOM      6  H   UNL     1       0.048   7.956  17.544  0.00  0.00    +0.000 HD
ENDROOT
BRANCH   1  10
ATOM      7  C   UNL     1       4.321   5.167  17.347  0.00  0.00    +0.000 A 
ATOM      8  C   UNL     1       4.791   6.435  17.002  0.00  0.00    +0.000 A 
ATOM      9  C   UNL     1       4.019   7.576  17.254  0.00  0.00    +0.000 A 
ATOM     10  C   UNL     1       2.759   7.462  17.852  0.00  0.00    +0.000 A 
ATOM     11  C   UNL     1       2.284   6.182  18.170  0.00  0.00    +0.000 A 
ATOM     12  C   UNL     1       3.058   5.042  17.920  0.00  0.00    +0.000 A 
BRANCH   7  14
ATOM     13  C   UNL     1       6.427   4.485  16.511  0.00  0.00    +0.000 C 
ATOM     14  O   UNL     1       5.155   4.128  17.042  0.00  0.00    +0.000 OA
ENDBRANCH   7  14
ENDBRANCH   1  10
BRANCH   3  15
ATOM     15  C   UNL     1       1.360  12.014  19.114  0.00  0.00    +0.000 A 
ATOM     16  C   UNL     1       1.154  12.310  20.467  0.00  0.00    +0.000 A 
ATOM     17  C   UNL     1       1.276  13.624  20.931  0.00  0.00    +0.000 A 
ATOM     18  C   UNL     1       1.621  14.657  20.056  0.00  0.00    +0.000 A 
ATOM     19  C   UNL     1       1.804  14.374  18.704  0.00  0.00    +0.000 A 
ATOM     20  C   UNL     1       1.657  13.063  18.235  0.00  0.00    +0.000 A 
BRANCH  18  21
ATOM     21  O   UNL     1       1.710  15.898  20.624  0.00  0.00    +0.000 OA
ATOM     22  C   UNL     1       1.768  15.931  22.044  0.00  0.00    +0.000 C 
ENDBRANCH  18  21
ENDBRANCH   3  15
BRANCH   4  23
ATOM     23  C   UNL     1      -1.251  10.367  17.921  0.00  0.00    +0.000 A 
ATOM     24  C   UNL     1      -1.921  11.260  18.764  0.00  0.00    +0.000 A 
ATOM     25  C   UNL     1      -3.246  11.624  18.512  0.00  0.00    +0.000 A 
ATOM     26  C   UNL     1      -3.903  11.149  17.381  0.00  0.00    +0.000 A 
ATOM     27  C   UNL     1      -3.250  10.258  16.530  0.00  0.00    +0.000 A 
ATOM     28  C   UNL     1      -1.935   9.865  16.803  0.00  0.00    +0.000 A 
BRANCH  26  29
ATOM     29  O   UNL     1      -5.189  11.581  17.216  0.00  0.00    +0.000 OA
ATOM     30  C   UNL     1      -6.071  11.236  18.279  0.00  0.00    +0.000 C 
ENDBRANCH  26  29
ENDBRANCH   4  23
TORSDOF 6
ENDMDL
MODEL 9
REMARK VINA RESULT:      -6.6      1.981      7.669
REMARK  Name = 
REMARK  9 active torsions:
REMARK  status: ('A' for Active; 'I' for Inactive)
REMARK    1  A    between atoms: C_1  and  O_2
REMARK    2  A    between atoms: O_2  and  C_3
REMARK    3  A    between atoms: C_6  and  C_7
REMARK    4  A    between atoms: C_9  and  C_10
REMARK    5  A    between atoms: C_13  and  O_14
REMARK    6  A    between atoms: O_14  and  C_15
REMARK    7  A    between atoms: C_18  and  C_19
REMARK    8  A    between atoms: C_22  and  O_23
REMARK    9  A    between atoms: O_23  and  C_24
REMARK                            x       y       z     vdW  Elec       q    Type
REMARK                         _______ _______ _______ _____ _____    ______ ____
ROOT
ATOM      1  C   UNL     1       1.938   8.642  18.004  0.00  0.00    +0.000 A 
ATOM      2  N   UNL     1       0.637   8.731  17.818  0.00  0.00    +0.000 NA
ATOM      3  C   UNL     1       0.288  10.035  18.116  0.00  0.00    +0.000 A 
ATOM      4  C   UNL     1       1.404  10.771  18.498  0.00  0.00    +0.000 A 
ATOM      5  N   UNL     1       2.434   9.868  18.370  0.00  0.00    +0.000 N 
ATOM      6  H   UNL     1       3.406  10.062  18.553  0.00  0.00    +0.000 HD
ENDROOT
BRANCH   1  10
ATOM      7  C   UNL     1       4.423   5.178  17.565  0.00  0.00    +0.000 A 
ATOM      8  C   UNL     1       4.855   6.425  17.113  0.00  0.00    +0.000 A 
ATOM      9  C   UNL     1       4.044   7.557  17.255  0.00  0.00    +0.000 A 
ATOM     10  C   UNL     1       2.780   7.455  17.848  0.00  0.00    +0.000 A 
ATOM     11  C   UNL     1       2.343   6.192  18.274  0.00  0.00    +0.000 A 
ATOM     12  C   UNL     1       3.157   5.061  18.134  0.00  0.00    +0.000 A 
BRANCH   7  14
ATOM     13  C   UNL     1       6.536   4.486  16.757  0.00  0.00    +0.000 C 
ATOM     14  O   UNL     1       5.293   4.143  17.362  0.00  0.00    +0.000 OA
ENDBRANCH   7  14
ENDBRANCH   1  10
BRANCH   3  15
ATOM     15  C   UNL     1      -1.090  10.495  18.052  0.00  0.00    +0.000 A 
ATOM     16  C   UNL     1      -1.949   9.982  17.074  0.00  0.00    +0.000 A 
ATOM     17  C   UNL     1      -3.288  10.385  17.024  0.00  0.00    +0.000 A 
ATOM     18  C   UNL     1      -3.791  11.294  17.959  0.00  0.00    +0.000 A 
ATOM     19  C   UNL     1      -2.936  11.828  18.920  0.00  0.00    +0.000 A 
ATOM     20  C   UNL     1      -1.590  11.443  18.954  0.00  0.00    +0.000 A 
BRANCH  18  21
ATOM     21  O   UNL     1      -5.113  11.613  17.809  0.00  0.00    +0.000 OA
ATOM     22  C   UNL     1      -6.039  10.765  18.477  0.00  0.00    +0.000 C 
ENDBRANCH  18  21
ENDBRANCH   3  15
BRANCH   4  23
ATOM     23  C   UNL     1       1.627  12.132  18.996  0.00  0.00    +0.000 A 
ATOM     24  C   UNL     1       1.905  13.184  18.117  0.00  0.00    +0.000 A 
ATOM     25  C   UNL     1       2.120  14.478  18.596  0.00  0.00    +0.000 A 
ATOM     26  C   UNL     1       2.000  14.754  19.955  0.00  0.00    +0.000 A 
ATOM     27  C   UNL     1       1.724  13.717  20.845  0.00  0.00    +0.000 A 
ATOM     28  C   UNL     1       1.545  12.414  20.368  0.00  0.00    +0.000 A 
BRANCH  26  29
ATOM     29  O   UNL     1       2.209  16.055  20.317  0.00  0.00    +0.000 OA
ATOM     30  C   UNL     1       3.572  16.393  20.550  0.00  0.00    +0.000 C 
ENDBRANCH  26  29
ENDBRANCH   4  23
TORSDOF 6
ENDMDL
