MODEL 1
REMARK VINA RESULT:      -8.2      0.000      0.000
REMARK  Name = 
REMARK  10 active torsions:
REMARK  status: ('A' for Active; 'I' for Inactive)
REMARK    1  A    between atoms: C_2  and  C_4
REMARK    2  A    between atoms: N_6  and  C_7
REMARK    3  A    between atoms: C_7  and  C_8
REMARK    4  A    between atoms: C_7  and  C_10
REMARK    5  A    between atoms: C_8  and  O_9
REMARK    6  A    between atoms: C_10  and  C_11
REMARK    7  A    between atoms: C_11  and  N_12
REMARK    8  A    between atoms: C_18  and  N_19
REMARK    9  A    between atoms: N_22  and  C_23
REMARK   10  A    between atoms: C_23  and  C_24
REMARK                            x       y       z     vdW  Elec       q    Type
REMARK                         _______ _______ _______ _____ _____    ______ ____
ROOT
ATOM      1  N   UNL     1       2.677   6.568  18.987  0.00  0.00    +0.000 N 
ATOM      2  C   UNL     1       2.505   5.825  20.141  0.00  0.00    +0.000 A 
ATOM      3  C   UNL     1       1.672   6.518  20.972  0.00  0.00    +0.000 A 
ATOM      4  C   UNL     1       1.429   7.774  20.367  0.00  0.00    +0.000 A 
ATOM      5  C   UNL     1       0.632   8.851  20.777  0.00  0.00    +0.000 A 
ATOM      6  C   UNL     1       0.630  10.038  20.050  0.00  0.00    +0.000 A 
ATOM      7  C   UNL     1       1.437  10.228  18.938  0.00  0.00    +0.000 A 
ATOM      8  C   UNL     1       2.176   9.102  18.435  0.00  0.00    +0.000 A 
ATOM      9  C   UNL     1       2.151   7.855  19.164  0.00  0.00    +0.000 A 
ENDROOT
BRANCH   7  10
ATOM     10  N   UNL     1       1.482  11.536  18.314  0.00  0.00    +0.000 N 
ATOM     11  C   UNL     1       1.831  12.735  18.970  0.00  0.00    +0.000 C 
ATOM     12  O   UNL     1       2.286  12.827  20.105  0.00  0.00    +0.000 OA
ATOM     13  N   UNL     1       1.583  13.885  18.225  0.00  0.00    +0.000 N 
ATOM     14  H   UNL     1       1.389  11.571  17.310  0.00  0.00    +0.000 HD
ATOM     15  H   UNL     1       1.585  13.812  17.220  0.00  0.00    +0.000 HD
BRANCH  13  16
ATOM     16  C   UNL     1       1.949  15.188  18.778  0.00  0.00    +0.000 C 
BRANCH  16  17
ATOM     17  C   UNL     1       1.100  16.354  18.292  0.00  0.00    +0.000 A 
ATOM     18  C   UNL     1      -0.250  16.451  18.660  0.00  0.00    +0.000 A 
ATOM     19  C   UNL     1      -1.034  17.549  18.274  0.00  0.00    +0.000 A 
ATOM     20  C   UNL     1      -0.474  18.574  17.513  0.00  0.00    +0.000 A 
ATOM     21  C   UNL     1       0.868  18.509  17.156  0.00  0.00    +0.000 A 
ATOM     22  C   UNL     1       1.651  17.412  17.548  0.00  0.00    +0.000 A 
ENDBRANCH  16  17
ENDBRANCH  13  16
ENDBRANCH   7  10
BRANCH   1  23
ATOM     23  C   UNL     1       3.301   5.945  17.829  0.00  0.00    +0.000 C 
BRANCH  23  24
ATOM     24  C   UNL     1       3.136   4.394  17.745  0.00  0.00    +0.000 C 
BRANCH  24  25
ATOM     25  C   UNL     1       4.423   3.540  17.833  0.00  0.00    +0.000 C 
BRANCH  25  28
ATOM     26  C   UNL     1       6.654   4.470  15.140  0.00  0.00    +0.000 A 
ATOM     27  C   UNL     1       5.409   4.039  15.552  0.00  0.00    +0.000 A 
ATOM     28  N   UNL     1       5.466   3.972  16.912  0.00  0.00    +0.000 N 
ATOM     29  C   UNL     1       6.702   4.439  17.286  0.00  0.00    +0.000 A 
ATOM     30  N   UNL     1       7.449   4.735  16.247  0.00  0.00    +0.000 NA
BRANCH  26  32
ATOM     31  N   UNL     1       6.733   3.601  12.942  0.00  0.00    +0.000 N 
ATOM     32  C   UNL     1       7.103   4.628  13.761  0.00  0.00    +0.000 C 
ATOM     33  O   UNL     1       7.746   5.585  13.342  0.00  0.00    +0.000 OA
ATOM     34  H   UNL     1       6.907   3.685  11.953  0.00  0.00    +0.000 HD
ATOM     35  H   UNL     1       6.112   2.892  13.311  0.00  0.00    +0.000 HD
ENDBRANCH  26  32
ENDBRANCH  25  28
BRANCH  25  36
ATOM     36  C   UNL     1       4.850   3.399  19.310  0.00  0.00    +0.000 C 
BRANCH  36  37
ATOM     37  O   UNL     1       5.157   2.062  19.688  0.00  0.00    +0.000 OA
ATOM     38  H   UNL     1       6.067   2.023  20.029  0.00  0.00    +0.000 HD
ENDBRANCH  36  37
ENDBRANCH  25  36
ENDBRANCH  24  25
ENDBRANCH  23  24
ENDBRANCH   1  23
TORSDOF 10
ENDMDL
MODEL 2
REMARK VINA RESULT:      -8.1      3.868      5.051
REMARK  Name = 
REMARK  10 active torsions:
REMARK  status: ('A' for Active; 'I' for Inactive)
REMARK    1  A    between atoms: C_2  and  C_4
REMARK    2  A    between atoms: N_6  and  C_7
REMARK    3  A    between atoms: C_7  and  C_8
REMARK    4  A    between atoms: C_7  and  C_10
REMARK    5  A    between atoms: C_8  and  O_9
REMARK    6  A    between atoms: C_10  and  C_11
REMARK    7  A    between atoms: C_11  and  N_12
REMARK    8  A    between atoms: C_18  and  N_19
REMARK    9  A    between atoms: N_22  and  C_23
REMARK   10  A    between atoms: C_23  and  C_24
REMARK                            x       y       z     vdW  Elec       q    Type
REMARK                         _______ _______ _______ _____ _____    ______ ____
ROOT
ATOM      1  N   UNL     1       2.204   7.085  19.333  0.00  0.00    +0.000 N 
ATOM      2  C   UNL     1       2.755   6.840  18.088  0.00  0.00    +0.000 A 
ATOM      3  C   UNL     1       2.841   8.029  17.421  0.00  0.00    +0.000 A 
ATOM      4  C   UNL     1       2.210   9.006  18.226  0.00  0.00    +0.000 A 
ATOM      5  C   UNL     1       2.038  10.384  18.032  0.00  0.00    +0.000 A 
ATOM      6  C   UNL     1       1.284  11.130  18.934  0.00  0.00    +0.000 A 
ATOM      7  C   UNL     1       0.639  10.552  20.017  0.00  0.00    +0.000 A 
ATOM      8  C   UNL     1       0.892   9.165  20.299  0.00  0.00    +0.000 A 
ATOM      9  C   UNL     1       1.706   8.394  19.387  0.00  0.00    +0.000 A 
ENDROOT
BRANCH   7  10
ATOM     10  N   UNL     1      -0.238  11.369  20.834  0.00  0.00    +0.000 N 
ATOM     11  C   UNL     1      -1.515  11.825  20.445  0.00  0.00    +0.000 C 
ATOM     12  O   UNL     1      -2.126  11.481  19.439  0.00  0.00    +0.000 OA
ATOM     13  N   UNL     1      -2.066  12.775  21.302  0.00  0.00    +0.000 N 
ATOM     14  H   UNL     1       0.026  11.507  21.797  0.00  0.00    +0.000 HD
ATOM     15  H   UNL     1      -1.777  12.771  22.266  0.00  0.00    +0.000 HD
BRANCH  13  16
ATOM     16  C   UNL     1      -3.408  13.288  21.032  0.00  0.00    +0.000 C 
BRANCH  16  17
ATOM     17  C   UNL     1      -4.433  13.015  22.125  0.00  0.00    +0.000 A 
ATOM     18  C   UNL     1      -4.017  12.766  23.440  0.00  0.00    +0.000 A 
ATOM     19  C   UNL     1      -4.946  12.572  24.474  0.00  0.00    +0.000 A 
ATOM     20  C   UNL     1      -6.312  12.631  24.205  0.00  0.00    +0.000 A 
ATOM     21  C   UNL     1      -6.746  12.899  22.912  0.00  0.00    +0.000 A 
ATOM     22  C   UNL     1      -5.815  13.097  21.881  0.00  0.00    +0.000 A 
ENDBRANCH  16  17
ENDBRANCH  13  16
ENDBRANCH   7  10
BRANCH   1  23
ATOM     23  C   UNL     1       2.246   6.040  20.345  0.00  0.00    +0.000 C 
BRANCH  23  24
ATOM     24  C   UNL     1       1.608   4.681  19.916  0.00  0.00    +0.000 C 
BRANCH  24  25
ATOM     25  C   UNL     1       2.552   3.459  19.811  0.00  0.00    +0.000 C 
BRANCH  25  28
ATOM     26  C   UNL     1       5.651   4.179  18.088  0.00  0.00    +0.000 A 
ATOM     27  C   UNL     1       4.953   4.067  19.273  0.00  0.00    +0.000 A 
ATOM     28  N   UNL     1       3.691   3.683  18.931  0.00  0.00    +0.000 N 
ATOM     29  C   UNL     1       3.683   3.494  17.571  0.00  0.00    +0.000 A 
ATOM     30  N   UNL     1       4.841   3.796  17.028  0.00  0.00    +0.000 NA
BRANCH  26  32
ATOM     31  N   UNL     1       7.530   5.253  19.042  0.00  0.00    +0.000 N 
ATOM     32  C   UNL     1       7.029   4.634  17.934  0.00  0.00    +0.000 C 
ATOM     33  O   UNL     1       7.705   4.482  16.921  0.00  0.00    +0.000 OA
ATOM     34  H   UNL     1       8.507   5.498  19.058  0.00  0.00    +0.000 HD
ATOM     35  H   UNL     1       6.971   5.255  19.886  0.00  0.00    +0.000 HD
ENDBRANCH  26  32
ENDBRANCH  25  28
BRANCH  25  36
ATOM     36  C   UNL     1       2.892   2.945  21.227  0.00  0.00    +0.000 C 
BRANCH  36  37
ATOM     37  O   UNL     1       1.745   2.672  22.023  0.00  0.00    +0.000 OA
ATOM     38  H   UNL     1       1.175   3.459  22.051  0.00  0.00    +0.000 HD
ENDBRANCH  36  37
ENDBRANCH  25  36
ENDBRANCH  24  25
ENDBRANCH  23  24
ENDBRANCH   1  23
TORSDOF 10
ENDMDL
MODEL 3
REMARK VINA RESULT:      -8.1      4.781      8.780
REMARK  Name = 
REMARK  10 active torsions:
REMARK  status: ('A' for Active; 'I' for Inactive)
REMARK    1  A    between atoms: C_2  and  C_4
REMARK    2  A    between atoms: N_6  and  C_7
REMARK    3  A    between atoms: C_7  and  C_8
REMARK    4  A    between atoms: C_7  and  C_10
REMARK    5  A    between atoms: C_8  and  O_9
REMARK    6  A    between atoms: C_10  and  C_11
REMARK    7  A    between atoms: C_11  and  N_12
REMARK    8  A    between atoms: C_18  and  N_19
REMARK    9  A    between atoms: N_22  and  C_23
REMARK   10  A    between atoms: C_23  and  C_24
REMARK                            x       y       z     vdW  Elec       q    Type
REMARK                         _______ _______ _______ _____ _____    ______ ____
ROOT
ATOM      1  N   UNL     1       3.237   5.096  17.767  0.00  0.00    +0.000 N 
ATOM      2  C   UNL     1       3.173   3.743  17.486  0.00  0.00    +0.000 A 
ATOM      3  C   UNL     1       4.448   3.283  17.322  0.00  0.00    +0.000 A 
ATOM      4  C   UNL     1       5.307   4.406  17.376  0.00  0.00    +0.000 A 
ATOM      5  C   UNL     1       6.703   4.499  17.291  0.00  0.00    +0.000 A 
ATOM      6  C   UNL     1       7.322   5.745  17.272  0.00  0.00    +0.000 A 
ATOM      7  C   UNL     1       6.604   6.931  17.287  0.00  0.00    +0.000 A 
ATOM      8  C   UNL     1       5.182   6.861  17.487  0.00  0.00    +0.000 A 
ATOM      9  C   UNL     1       4.537   5.569  17.546  0.00  0.00    +0.000 A 
ENDROOT
BRANCH   7  10
ATOM     10  N   UNL     1       7.311   8.187  17.128  0.00  0.00    +0.000 N 
ATOM     11  C   UNL     1       8.233   8.719  18.054  0.00  0.00    +0.000 C 
ATOM     12  O   UNL     1       8.680   8.140  19.039  0.00  0.00    +0.000 OA
ATOM     13  N   UNL     1       8.607  10.035  17.793  0.00  0.00    +0.000 N 
ATOM     14  H   UNL     1       7.242   8.645  16.233  0.00  0.00    +0.000 HD
ATOM     15  H   UNL     1       8.563  10.363  16.842  0.00  0.00    +0.000 HD
BRANCH  13  16
ATOM     16  C   UNL     1       9.596  10.681  18.655  0.00  0.00    +0.000 C 
BRANCH  16  17
ATOM     17  C   UNL     1      10.157  11.992  18.119  0.00  0.00    +0.000 A 
ATOM     18  C   UNL     1       9.436  13.185  18.268  0.00  0.00    +0.000 A 
ATOM     19  C   UNL     1       9.962  14.413  17.837  0.00  0.00    +0.000 A 
ATOM     20  C   UNL     1      11.225  14.464  17.250  0.00  0.00    +0.000 A 
ATOM     21  C   UNL     1      11.966  13.295  17.113  0.00  0.00    +0.000 A 
ATOM     22  C   UNL     1      11.440  12.070  17.549  0.00  0.00    +0.000 A 
ENDBRANCH  16  17
ENDBRANCH  13  16
ENDBRANCH   7  10
BRANCH   1  23
ATOM     23  C   UNL     1       2.044   5.778  18.247  0.00  0.00    +0.000 C 
BRANCH  23  24
ATOM     24  C   UNL     1       2.306   6.910  19.290  0.00  0.00    +0.000 C 
BRANCH  24  25
ATOM     25  C   UNL     1       1.605   8.269  19.051  0.00  0.00    +0.000 C 
BRANCH  25  28
ATOM     26  C   UNL     1       0.292  10.257  21.774  0.00  0.00    +0.000 A 
ATOM     27  C   UNL     1       0.334   9.980  20.422  0.00  0.00    +0.000 A 
ATOM     28  N   UNL     1       1.188   8.926  20.282  0.00  0.00    +0.000 N 
ATOM     29  C   UNL     1       1.568   8.546  21.545  0.00  0.00    +0.000 A 
ATOM     30  N   UNL     1       1.060   9.332  22.468  0.00  0.00    +0.000 NA
BRANCH  26  32
ATOM     31  N   UNL     1      -1.445  10.938  23.228  0.00  0.00    +0.000 N 
ATOM     32  C   UNL     1      -0.434  11.352  22.411  0.00  0.00    +0.000 C 
ATOM     33  O   UNL     1      -0.179  12.542  22.255  0.00  0.00    +0.000 OA
ATOM     34  H   UNL     1      -1.924  11.624  23.790  0.00  0.00    +0.000 HD
ATOM     35  H   UNL     1      -1.544   9.947  23.407  0.00  0.00    +0.000 HD
ENDBRANCH  26  32
ENDBRANCH  25  28
BRANCH  25  36
ATOM     36  C   UNL     1       2.455   9.126  18.089  0.00  0.00    +0.000 C 
BRANCH  36  37
ATOM     37  O   UNL     1       1.684  10.005  17.278  0.00  0.00    +0.000 OA
ATOM     38  H   UNL     1       1.703  10.899  17.660  0.00  0.00    +0.000 HD
ENDBRANCH  36  37
ENDBRANCH  25  36
ENDBRANCH  24  25
ENDBRANCH  23  24
ENDBRANCH   1  23
TORSDOF 10
ENDMDL
MODEL 4
REMARK VINA RESULT:      -7.9      4.659      8.039
REMARK  Name = 
REMARK  10 active torsions:
REMARK  status: ('A' for Active; 'I' for Inactive)
REMARK    1  A    between atoms: C_2  and  C_4
REMARK    2  A    between atoms: N_6  and  C_7
REMARK    3  A    between atoms: C_7  and  C_8
REMARK    4  A    between atoms: C_7  and  C_10
REMARK    5  A    between atoms: C_8  and  O_9
REMARK    6  A    between atoms: C_10  and  C_11
REMARK    7  A    between atoms: C_11  and  N_12
REMARK    8  A    between atoms: C_18  and  N_19
REMARK    9  A    between atoms: N_22  and  C_23
REMARK   10  A    between atoms: C_23  and  C_24
REMARK                            x       y       z     vdW  Elec       q    Type
REMARK                         _______ _______ _______ _____ _____    ______ ____
ROOT
ATOM      1  N   UNL     1       4.302   3.642  18.431  0.00  0.00    +0.000 N 
ATOM      2  C   UNL     1       3.699   3.023  17.351  0.00  0.00    +0.000 A 
ATOM      3  C   UNL     1       4.468   3.255  16.246  0.00  0.00    +0.000 A 
ATOM      4  C   UNL     1       5.498   4.143  16.633  0.00  0.00    +0.000 A 
ATOM      5  C   UNL     1       6.567   4.683  15.905  0.00  0.00    +0.000 A 
ATOM      6  C   UNL     1       7.407   5.627  16.488  0.00  0.00    +0.000 A 
ATOM      7  C   UNL     1       7.204   6.108  17.773  0.00  0.00    +0.000 A 
ATOM      8  C   UNL     1       6.185   5.488  18.576  0.00  0.00    +0.000 A 
ATOM      9  C   UNL     1       5.334   4.479  17.988  0.00  0.00    +0.000 A 
ENDROOT
BRANCH   7  10
ATOM     10  N   UNL     1       8.038   7.188  18.263  0.00  0.00    +0.000 N 
ATOM     11  C   UNL     1       7.861   8.552  17.950  0.00  0.00    +0.000 C 
ATOM     12  O   UNL     1       6.906   9.036  17.352  0.00  0.00    +0.000 OA
ATOM     13  N   UNL     1       8.915   9.369  18.352  0.00  0.00    +0.000 N 
ATOM     14  H   UNL     1       8.706   6.963  18.983  0.00  0.00    +0.000 HD
ATOM     15  H   UNL     1       9.475   9.074  19.136  0.00  0.00    +0.000 HD
BRANCH  13  16
ATOM     16  C   UNL     1       8.827  10.811  18.129  0.00  0.00    +0.000 C 
BRANCH  16  17
ATOM     17  C   UNL     1      10.081  11.596  18.491  0.00  0.00    +0.000 A 
ATOM     18  C   UNL     1      10.569  12.590  17.631  0.00  0.00    +0.000 A 
ATOM     19  C   UNL     1      11.687  13.367  17.973  0.00  0.00    +0.000 A 
ATOM     20  C   UNL     1      12.333  13.161  19.191  0.00  0.00    +0.000 A 
ATOM     21  C   UNL     1      11.852  12.196  20.068  0.00  0.00    +0.000 A 
ATOM     22  C   UNL     1      10.732  11.424  19.726  0.00  0.00    +0.000 A 
ENDBRANCH  16  17
ENDBRANCH  13  16
ENDBRANCH   7  10
BRANCH   1  23
ATOM     23  C   UNL     1       3.837   3.332  19.775  0.00  0.00    +0.000 C 
BRANCH  23  24
ATOM     24  C   UNL     1       3.370   4.565  20.612  0.00  0.00    +0.000 C 
BRANCH  24  25
ATOM     25  C   UNL     1       1.966   5.139  20.303  0.00  0.00    +0.000 C 
BRANCH  25  28
ATOM     26  C   UNL     1       1.816   8.503  18.978  0.00  0.00    +0.000 A 
ATOM     27  C   UNL     1       1.619   7.635  20.034  0.00  0.00    +0.000 A 
ATOM     28  N   UNL     1       2.006   6.407  19.587  0.00  0.00    +0.000 N 
ATOM     29  C   UNL     1       2.498   6.578  18.317  0.00  0.00    +0.000 A 
ATOM     30  N   UNL     1       2.387   7.823  17.912  0.00  0.00    +0.000 NA
BRANCH  26  32
ATOM     31  N   UNL     1       1.983  10.586  17.870  0.00  0.00    +0.000 N 
ATOM     32  C   UNL     1       1.479   9.923  18.951  0.00  0.00    +0.000 C 
ATOM     33  O   UNL     1       0.801  10.495  19.798  0.00  0.00    +0.000 OA
ATOM     34  H   UNL     1       1.706  11.542  17.718  0.00  0.00    +0.000 HD
ATOM     35  H   UNL     1       2.442  10.047  17.146  0.00  0.00    +0.000 HD
ENDBRANCH  26  32
ENDBRANCH  25  28
BRANCH  25  36
ATOM     36  C   UNL     1       1.087   4.040  19.669  0.00  0.00    +0.000 C 
BRANCH  36  37
ATOM     37  O   UNL     1       0.506   3.157  20.621  0.00  0.00    +0.000 OA
ATOM     38  H   UNL     1       0.196   3.666  21.389  0.00  0.00    +0.000 HD
ENDBRANCH  36  37
ENDBRANCH  25  36
ENDBRANCH  24  25
ENDBRANCH  23  24
ENDBRANCH   1  23
TORSDOF 10
ENDMDL
MODEL 5
REMARK VINA RESULT:      -7.8      3.984      5.113
REMARK  Name = 
REMARK  10 active torsions:
REMARK  status: ('A' for Active; 'I' for Inactive)
REMARK    1  A    between atoms: C_2  and  C_4
REMARK    2  A    between atoms: N_6  and  C_7
REMARK    3  A    between atoms: C_7  and  C_8
REMARK    4  A    between atoms: C_7  and  C_10
REMARK    5  A    between atoms: C_8  and  O_9
REMARK    6  A    between atoms: C_10  and  C_11
REMARK    7  A    between atoms: C_11  and  N_12
REMARK    8  A    between atoms: C_18  and  N_19
REMARK    9  A    between atoms: N_22  and  C_23
REMARK   10  A    between atoms: C_23  and  C_24
REMARK                            x       y       z     vdW  Elec       q    Type
REMARK                         _______ _______ _______ _____ _____    ______ ____
ROOT
ATOM      1  N   UNL     1       1.927   7.309  19.546  0.00  0.00    +0.000 N 
ATOM      2  C   UNL     1       2.523   7.166  18.307  0.00  0.00    +0.000 A 
ATOM      3  C   UNL     1       2.542   8.390  17.701  0.00  0.00    +0.000 A 
ATOM      4  C   UNL     1       1.825   9.280  18.536  0.00  0.00    +0.000 A 
ATOM      5  C   UNL     1       1.562  10.650  18.406  0.00  0.00    +0.000 A 
ATOM      6  C   UNL     1       0.738  11.296  19.323  0.00  0.00    +0.000 A 
ATOM      7  C   UNL     1       0.109  10.622  20.358  0.00  0.00    +0.000 A 
ATOM      8  C   UNL     1       0.452   9.242  20.578  0.00  0.00    +0.000 A 
ATOM      9  C   UNL     1       1.339   8.576  19.651  0.00  0.00    +0.000 A 
ENDROOT
BRANCH   7  10
ATOM     10  N   UNL     1      -0.841  11.334  21.191  0.00  0.00    +0.000 N 
ATOM     11  C   UNL     1      -1.884  12.153  20.710  0.00  0.00    +0.000 C 
ATOM     12  O   UNL     1      -2.230  12.263  19.539  0.00  0.00    +0.000 OA
ATOM     13  N   UNL     1      -2.517  12.906  21.696  0.00  0.00    +0.000 N 
ATOM     14  H   UNL     1      -0.840  11.121  22.176  0.00  0.00    +0.000 HD
ATOM     15  H   UNL     1      -2.512  12.555  22.640  0.00  0.00    +0.000 HD
BRANCH  13  16
ATOM     16  C   UNL     1      -3.647  13.758  21.329  0.00  0.00    +0.000 C 
BRANCH  16  17
ATOM     17  C   UNL     1      -5.019  13.177  21.644  0.00  0.00    +0.000 A 
ATOM     18  C   UNL     1      -5.719  12.446  20.674  0.00  0.00    +0.000 A 
ATOM     19  C   UNL     1      -6.957  11.851  20.962  0.00  0.00    +0.000 A 
ATOM     20  C   UNL     1      -7.513  11.976  22.235  0.00  0.00    +0.000 A 
ATOM     21  C   UNL     1      -6.824  12.678  23.218  0.00  0.00    +0.000 A 
ATOM     22  C   UNL     1      -5.585  13.268  22.928  0.00  0.00    +0.000 A 
ENDBRANCH  16  17
ENDBRANCH  13  16
ENDBRANCH   7  10
BRANCH   1  23
ATOM     23  C   UNL     1       2.018   6.219  20.507  0.00  0.00    +0.000 C 
BRANCH  23  24
ATOM     24  C   UNL     1       1.339   4.886  20.058  0.00  0.00    +0.000 C 
BRANCH  24  25
ATOM     25  C   UNL     1       2.252   3.646  19.897  0.00  0.00    +0.000 C 
BRANCH  25  28
ATOM     26  C   UNL     1       5.087   4.192  17.715  0.00  0.00    +0.000 A 
ATOM     27  C   UNL     1       4.569   4.138  18.994  0.00  0.00    +0.000 A 
ATOM     28  N   UNL     1       3.256   3.801  18.853  0.00  0.00    +0.000 N 
ATOM     29  C   UNL     1       3.040   3.579  17.515  0.00  0.00    +0.000 A 
ATOM     30  N   UNL     1       4.115   3.818  16.798  0.00  0.00    +0.000 NA
BRANCH  26  32
ATOM     31  N   UNL     1       7.371   4.329  18.316  0.00  0.00    +0.000 N 
ATOM     32  C   UNL     1       6.444   4.583  17.347  0.00  0.00    +0.000 C 
ATOM     33  O   UNL     1       6.757   5.088  16.274  0.00  0.00    +0.000 OA
ATOM     34  H   UNL     1       8.345   4.467  18.100  0.00  0.00    +0.000 HD
ATOM     35  H   UNL     1       7.080   3.814  19.137  0.00  0.00    +0.000 HD
ENDBRANCH  26  32
ENDBRANCH  25  28
BRANCH  25  36
ATOM     36  C   UNL     1       2.786   3.215  21.279  0.00  0.00    +0.000 C 
BRANCH  36  37
ATOM     37  O   UNL     1       1.829   2.517  22.066  0.00  0.00    +0.000 OA
ATOM     38  H   UNL     1       1.067   3.095  22.239  0.00  0.00    +0.000 HD
ENDBRANCH  36  37
ENDBRANCH  25  36
ENDBRANCH  24  25
ENDBRANCH  23  24
ENDBRANCH   1  23
TORSDOF 10
ENDMDL
MODEL 6
REMARK VINA RESULT:      -7.7      3.751      4.618
REMARK  Name = 
REMARK  10 active torsions:
REMARK  status: ('A' for Active; 'I' for Inactive)
REMARK    1  A    between atoms: C_2  and  C_4
REMARK    2  A    between atoms: N_6  and  C_7
REMARK    3  A    between atoms: C_7  and  C_8
REMARK    4  A    between atoms: C_7  and  C_10
REMARK    5  A    between atoms: C_8  and  O_9
REMARK    6  A    between atoms: C_10  and  C_11
REMARK    7  A    between atoms: C_11  and  N_12
REMARK    8  A    between atoms: C_18  and  N_19
REMARK    9  A    between atoms: N_22  and  C_23
REMARK   10  A    between atoms: C_23  and  C_24
REMARK                            x       y       z     vdW  Elec       q    Type
REMARK                         _______ _______ _______ _____ _____    ______ ____
ROOT
ATOM      1  N   UNL     1       2.109   7.511  19.335  0.00  0.00    +0.000 N 
ATOM      2  C   UNL     1       2.383   7.656  17.987  0.00  0.00    +0.000 A 
ATOM      3  C   UNL     1       2.116   8.949  17.637  0.00  0.00    +0.000 A 
ATOM      4  C   UNL     1       1.544   9.578  18.768  0.00  0.00    +0.000 A 
ATOM      5  C   UNL     1       1.112  10.897  18.963  0.00  0.00    +0.000 A 
ATOM      6  C   UNL     1       0.483  11.260  20.151  0.00  0.00    +0.000 A 
ATOM      7  C   UNL     1       0.213  10.344  21.157  0.00  0.00    +0.000 A 
ATOM      8  C   UNL     1       0.746   9.015  21.026  0.00  0.00    +0.000 A 
ATOM      9  C   UNL     1       1.434   8.643  19.811  0.00  0.00    +0.000 A 
ENDROOT
BRANCH   7  10
ATOM     10  N   UNL     1      -0.565  10.766  22.306  0.00  0.00    +0.000 N 
ATOM     11  C   UNL     1      -1.642  11.677  22.263  0.00  0.00    +0.000 C 
ATOM     12  O   UNL     1      -2.167  12.123  21.249  0.00  0.00    +0.000 OA
ATOM     13  N   UNL     1      -2.081  12.096  23.516  0.00  0.00    +0.000 N 
ATOM     14  H   UNL     1      -0.413  10.272  23.171  0.00  0.00    +0.000 HD
ATOM     15  H   UNL     1      -1.938  11.483  24.302  0.00  0.00    +0.000 HD
BRANCH  13  16
ATOM     16  C   UNL     1      -3.225  13.003  23.606  0.00  0.00    +0.000 C 
BRANCH  16  17
ATOM     17  C   UNL     1      -2.909  14.384  24.164  0.00  0.00    +0.000 A 
ATOM     18  C   UNL     1      -3.942  15.292  24.436  0.00  0.00    +0.000 A 
ATOM     19  C   UNL     1      -3.678  16.547  25.008  0.00  0.00    +0.000 A 
ATOM     20  C   UNL     1      -2.369  16.910  25.321  0.00  0.00    +0.000 A 
ATOM     21  C   UNL     1      -1.332  16.015  25.080  0.00  0.00    +0.000 A 
ATOM     22  C   UNL     1      -1.599  14.760  24.513  0.00  0.00    +0.000 A 
ENDBRANCH  16  17
ENDBRANCH  13  16
ENDBRANCH   7  10
BRANCH   1  23
ATOM     23  C   UNL     1       2.556   6.310  20.025  0.00  0.00    +0.000 C 
BRANCH  23  24
ATOM     24  C   UNL     1       1.748   5.017  19.688  0.00  0.00    +0.000 C 
BRANCH  24  25
ATOM     25  C   UNL     1       2.330   4.082  18.600  0.00  0.00    +0.000 C 
BRANCH  25  28
ATOM     26  C   UNL     1       5.813   4.556  17.740  0.00  0.00    +0.000 A 
ATOM     27  C   UNL     1       4.480   4.719  17.419  0.00  0.00    +0.000 A 
ATOM     28  N   UNL     1       3.776   4.191  18.460  0.00  0.00    +0.000 N 
ATOM     29  C   UNL     1       4.690   3.805  19.408  0.00  0.00    +0.000 A 
ATOM     30  N   UNL     1       5.926   3.997  19.005  0.00  0.00    +0.000 NA
BRANCH  26  32
ATOM     31  N   UNL     1       6.700   5.909  16.014  0.00  0.00    +0.000 N 
ATOM     32  C   UNL     1       6.955   4.903  16.900  0.00  0.00    +0.000 C 
ATOM     33  O   UNL     1       8.056   4.366  16.963  0.00  0.00    +0.000 OA
ATOM     34  H   UNL     1       7.464   6.283  15.474  0.00  0.00    +0.000 HD
ATOM     35  H   UNL     1       5.811   6.391  16.077  0.00  0.00    +0.000 HD
ENDBRANCH  26  32
ENDBRANCH  25  28
BRANCH  25  36
ATOM     36  C   UNL     1       1.784   2.652  18.801  0.00  0.00    +0.000 C 
BRANCH  36  37
ATOM     37  O   UNL     1       2.185   1.742  17.785  0.00  0.00    +0.000 OA
ATOM     38  H   UNL     1       2.127   0.832  18.124  0.00  0.00    +0.000 HD
ENDBRANCH  36  37
ENDBRANCH  25  36
ENDBRANCH  24  25
ENDBRANCH  23  24
ENDBRANCH   1  23
TORSDOF 10
ENDMDL
MODEL 7
REMARK VINA RESULT:      -7.7      4.657      8.438
REMARK  Name = 
REMARK  10 active torsions:
REMARK  status: ('A' for Active; 'I' for Inactive)
REMARK    1  A    between atoms: C_2  and  C_4
REMARK    2  A    between atoms: N_6  and  C_7
REMARK    3  A    between atoms: C_7  and  C_8
REMARK    4  A    between atoms: C_7  and  C_10
REMARK    5  A    between atoms: C_8  and  O_9
REMARK    6  A    between atoms: C_10  and  C_11
REMARK    7  A    between atoms: C_11  and  N_12
REMARK    8  A    between atoms: C_18  and  N_19
REMARK    9  A    between atoms: N_22  and  C_23
REMARK   10  A    between atoms: C_23  and  C_24
REMARK                            x       y       z     vdW  Elec       q    Type
REMARK                         _______ _______ _______ _____ _____    ______ ____
ROOT
ATOM      1  N   UNL     1       3.617   4.371  17.369  0.00  0.00    +0.000 N 
ATOM      2  C   UNL     1       3.508   3.232  16.592  0.00  0.00    +0.000 A 
ATOM      3  C   UNL     1       4.703   3.032  15.963  0.00  0.00    +0.000 A 
ATOM      4  C   UNL     1       5.523   4.145  16.261  0.00  0.00    +0.000 A 
ATOM      5  C   UNL     1       6.845   4.436  15.894  0.00  0.00    +0.000 A 
ATOM      6  C   UNL     1       7.413   5.661  16.234  0.00  0.00    +0.000 A 
ATOM      7  C   UNL     1       6.700   6.652  16.892  0.00  0.00    +0.000 A 
ATOM      8  C   UNL     1       5.383   6.335  17.375  0.00  0.00    +0.000 A 
ATOM      9  C   UNL     1       4.803   5.050  17.059  0.00  0.00    +0.000 A 
ENDROOT
BRANCH   7  10
ATOM     10  N   UNL     1       7.315   7.950  17.091  0.00  0.00    +0.000 N 
ATOM     11  C   UNL     1       8.138   8.297  18.183  0.00  0.00    +0.000 C 
ATOM     12  O   UNL     1       8.570   7.525  19.032  0.00  0.00    +0.000 OA
ATOM     13  N   UNL     1       8.422   9.658  18.272  0.00  0.00    +0.000 N 
ATOM     14  H   UNL     1       7.262   8.607  16.328  0.00  0.00    +0.000 HD
ATOM     15  H   UNL     1       8.408  10.204  17.426  0.00  0.00    +0.000 HD
BRANCH  13  16
ATOM     16  C   UNL     1       9.306  10.135  19.334  0.00  0.00    +0.000 C 
BRANCH  16  17
ATOM     17  C   UNL     1      10.327  11.178  18.901  0.00  0.00    +0.000 A 
ATOM     18  C   UNL     1      10.254  11.754  17.624  0.00  0.00    +0.000 A 
ATOM     19  C   UNL     1      11.148  12.761  17.227  0.00  0.00    +0.000 A 
ATOM     20  C   UNL     1      12.130  13.211  18.108  0.00  0.00    +0.000 A 
ATOM     21  C   UNL     1      12.205  12.669  19.386  0.00  0.00    +0.000 A 
ATOM     22  C   UNL     1      11.308  11.666  19.783  0.00  0.00    +0.000 A 
ENDBRANCH  16  17
ENDBRANCH  13  16
ENDBRANCH   7  10
BRANCH   1  23
ATOM     23  C   UNL     1       2.580   4.664  18.348  0.00  0.00    +0.000 C 
BRANCH  23  24
ATOM     24  C   UNL     1       2.176   6.168  18.451  0.00  0.00    +0.000 C 
BRANCH  24  25
ATOM     25  C   UNL     1       2.208   6.815  19.857  0.00  0.00    +0.000 C 
BRANCH  25  28
ATOM     26  C   UNL     1       1.113  10.235  19.406  0.00  0.00    +0.000 A 
ATOM     27  C   UNL     1       1.714   9.105  18.888  0.00  0.00    +0.000 A 
ATOM     28  N   UNL     1       1.675   8.170  19.880  0.00  0.00    +0.000 N 
ATOM     29  C   UNL     1       0.984   8.726  20.928  0.00  0.00    +0.000 A 
ATOM     30  N   UNL     1       0.642   9.972  20.685  0.00  0.00    +0.000 NA
BRANCH  26  32
ATOM     31  N   UNL     1       2.060  11.864  17.977  0.00  0.00    +0.000 N 
ATOM     32  C   UNL     1       0.981  11.527  18.741  0.00  0.00    +0.000 C 
ATOM     33  O   UNL     1       0.003  12.262  18.833  0.00  0.00    +0.000 OA
ATOM     34  H   UNL     1       2.004  12.687  17.398  0.00  0.00    +0.000 HD
ATOM     35  H   UNL     1       2.791  11.176  17.848  0.00  0.00    +0.000 HD
ENDBRANCH  26  32
ENDBRANCH  25  28
BRANCH  25  36
ATOM     36  C   UNL     1       1.602   5.840  20.888  0.00  0.00    +0.000 C 
BRANCH  36  37
ATOM     37  O   UNL     1       2.571   5.032  21.546  0.00  0.00    +0.000 OA
ATOM     38  H   UNL     1       2.718   4.220  21.032  0.00  0.00    +0.000 HD
ENDBRANCH  36  37
ENDBRANCH  25  36
ENDBRANCH  24  25
ENDBRANCH  23  24
ENDBRANCH   1  23
TORSDOF 10
ENDMDL
MODEL 8
REMARK VINA RESULT:      -7.7      3.709     11.373
REMARK  Name = 
REMARK  10 active torsions:
REMARK  status: ('A' for Active; 'I' for Inactive)
REMARK    1  A    between atoms: C_2  and  C_4
REMARK    2  A    between atoms: N_6  and  C_7
REMARK    3  A    between atoms: C_7  and  C_8
REMARK    4  A    between atoms: C_7  and  C_10
REMARK    5  A    between atoms: C_8  and  O_9
REMARK    6  A    between atoms: C_10  and  C_11
REMARK    7  A    between atoms: C_11  and  N_12
REMARK    8  A    between atoms: C_18  and  N_19
REMARK    9  A    between atoms: N_22  and  C_23
REMARK   10  A    between atoms: C_23  and  C_24
REMARK                            x       y       z     vdW  Elec       q    Type
REMARK                         _______ _______ _______ _____ _____    ______ ____
ROOT
ATOM      1  N   UNL     1       2.536   6.640  19.329  0.00  0.00    +0.000 N 
ATOM      2  C   UNL     1       1.790   5.895  20.223  0.00  0.00    +0.000 A 
ATOM      3  C   UNL     1       2.493   4.763  20.523  0.00  0.00    +0.000 A 
ATOM      4  C   UNL     1       3.639   4.752  19.694  0.00  0.00    +0.000 A 
ATOM      5  C   UNL     1       4.701   3.841  19.608  0.00  0.00    +0.000 A 
ATOM      6  C   UNL     1       5.680   3.996  18.630  0.00  0.00    +0.000 A 
ATOM      7  C   UNL     1       5.627   5.006  17.681  0.00  0.00    +0.000 A 
ATOM      8  C   UNL     1       4.612   6.015  17.819  0.00  0.00    +0.000 A 
ATOM      9  C   UNL     1       3.615   5.881  18.857  0.00  0.00    +0.000 A 
ENDROOT
BRANCH   7  10
ATOM     10  N   UNL     1       6.607   5.023  16.612  0.00  0.00    +0.000 N 
ATOM     11  C   UNL     1       6.306   5.152  15.240  0.00  0.00    +0.000 C 
ATOM     12  O   UNL     1       5.206   5.416  14.767  0.00  0.00    +0.000 OA
ATOM     13  N   UNL     1       7.387   4.914  14.396  0.00  0.00    +0.000 N 
ATOM     14  H   UNL     1       7.578   5.083  16.879  0.00  0.00    +0.000 HD
ATOM     15  H   UNL     1       8.315   5.078  14.751  0.00  0.00    +0.000 HD
BRANCH  13  16
ATOM     16  C   UNL     1       7.213   5.066  12.952  0.00  0.00    +0.000 C 
BRANCH  16  17
ATOM     17  C   UNL     1       6.775   3.804  12.221  0.00  0.00    +0.000 A 
ATOM     18  C   UNL     1       7.730   2.917  11.702  0.00  0.00    +0.000 A 
ATOM     19  C   UNL     1       7.349   1.719  11.079  0.00  0.00    +0.000 A 
ATOM     20  C   UNL     1       6.000   1.387  10.969  0.00  0.00    +0.000 A 
ATOM     21  C   UNL     1       5.038   2.242  11.496  0.00  0.00    +0.000 A 
ATOM     22  C   UNL     1       5.421   3.437  12.123  0.00  0.00    +0.000 A 
ENDBRANCH  16  17
ENDBRANCH  13  16
ENDBRANCH   7  10
BRANCH   1  23
ATOM     23  C   UNL     1       2.144   8.014  19.050  0.00  0.00    +0.000 C 
BRANCH  23  24
ATOM     24  C   UNL     1       1.539   8.786  20.265  0.00  0.00    +0.000 C 
BRANCH  24  25
ATOM     25  C   UNL     1       0.267   9.628  20.006  0.00  0.00    +0.000 C 
BRANCH  25  28
ATOM     26  C   UNL     1      -1.366  11.427  22.688  0.00  0.00    +0.000 A 
ATOM     27  C   UNL     1      -1.120  11.280  21.337  0.00  0.00    +0.000 A 
ATOM     28  N   UNL     1      -0.310  10.190  21.220  0.00  0.00    +0.000 N 
ATOM     29  C   UNL     1      -0.158   9.665  22.479  0.00  0.00    +0.000 A 
ATOM     30  N   UNL     1      -0.767  10.390  23.390  0.00  0.00    +0.000 NA
BRANCH  26  32
ATOM     31  N   UNL     1      -3.429  12.177  23.568  0.00  0.00    +0.000 N 
ATOM     32  C   UNL     1      -2.128  12.501  23.317  0.00  0.00    +0.000 C 
ATOM     33  O   UNL     1      -1.670  13.600  23.614  0.00  0.00    +0.000 OA
ATOM     34  H   UNL     1      -3.994  12.820  24.099  0.00  0.00    +0.000 HD
ATOM     35  H   UNL     1      -3.727  11.223  23.405  0.00  0.00    +0.000 HD
ENDBRANCH  26  32
ENDBRANCH  25  28
BRANCH  25  36
ATOM     36  C   UNL     1       0.536  10.633  18.866  0.00  0.00    +0.000 C 
BRANCH  36  37
ATOM     37  O   UNL     1      -0.356  10.499  17.766  0.00  0.00    +0.000 OA
ATOM     38  H   UNL     1      -0.937   9.732  17.912  0.00  0.00    +0.000 HD
ENDBRANCH  36  37
ENDBRANCH  25  36
ENDBRANCH  24  25
ENDBRANCH  23  24
ENDBRANCH   1  23
TORSDOF 10
ENDMDL
MODEL 9
REMARK VINA RESULT:      -7.7      4.390      8.742
REMARK  Name = 
REMARK  10 active torsions:
REMARK  status: ('A' for Active; 'I' for Inactive)
REMARK    1  A    between atoms: C_2  and  C_4
REMARK    2  A    between atoms: N_6  and  C_7
REMARK    3  A    between atoms: C_7  and  C_8
REMARK    4  A    between atoms: C_7  and  C_10
REMARK    5  A    between atoms: C_8  and  O_9
REMARK    6  A    between atoms: C_10  and  C_11
REMARK    7  A    between atoms: C_11  and  N_12
REMARK    8  A    between atoms: C_18  and  N_19
REMARK    9  A    between atoms: N_22  and  C_23
REMARK   10  A    between atoms: C_23  and  C_24
REMARK                            x       y       z     vdW  Elec       q    Type
REMARK                         _______ _______ _______ _____ _____    ______ ____
ROOT
ATOM      1  N   UNL     1       2.746   4.954  18.333  0.00  0.00    +0.000 N 
ATOM      2  C   UNL     1       2.263   3.812  17.719  0.00  0.00    +0.000 A 
ATOM      3  C   UNL     1       3.234   3.338  16.883  0.00  0.00    +0.000 A 
ATOM      4  C   UNL     1       4.287   4.283  16.888  0.00  0.00    +0.000 A 
ATOM      5  C   UNL     1       5.524   4.281  16.230  0.00  0.00    +0.000 A 
ATOM      6  C   UNL     1       6.365   5.388  16.315  0.00  0.00    +0.000 A 
ATOM      7  C   UNL     1       6.007   6.541  16.997  0.00  0.00    +0.000 A 
ATOM      8  C   UNL     1       4.794   6.523  17.771  0.00  0.00    +0.000 A 
ATOM      9  C   UNL     1       3.936   5.362  17.718  0.00  0.00    +0.000 A 
ENDROOT
BRANCH   7  10
ATOM     10  N   UNL     1       6.875   7.700  16.928  0.00  0.00    +0.000 N 
ATOM     11  C   UNL     1       7.844   8.044  17.894  0.00  0.00    +0.000 C 
ATOM     12  O   UNL     1       8.195   7.348  18.840  0.00  0.00    +0.000 OA
ATOM     13  N   UNL     1       8.390   9.314  17.724  0.00  0.00    +0.000 N 
ATOM     14  H   UNL     1       6.879   8.221  16.065  0.00  0.00    +0.000 HD
ATOM     15  H   UNL     1       8.405   9.707  16.797  0.00  0.00    +0.000 HD
BRANCH  13  16
ATOM     16  C   UNL     1       9.442   9.767  18.634  0.00  0.00    +0.000 C 
BRANCH  16  17
ATOM     17  C   UNL     1       9.539  11.276  18.804  0.00  0.00    +0.000 A 
ATOM     18  C   UNL     1      10.307  11.825  19.841  0.00  0.00    +0.000 A 
ATOM     19  C   UNL     1      10.460  13.214  19.979  0.00  0.00    +0.000 A 
ATOM     20  C   UNL     1       9.846  14.077  19.074  0.00  0.00    +0.000 A 
ATOM     21  C   UNL     1       9.098  13.553  18.025  0.00  0.00    +0.000 A 
ATOM     22  C   UNL     1       8.950  12.165  17.887  0.00  0.00    +0.000 A 
ENDBRANCH  16  17
ENDBRANCH  13  16
ENDBRANCH   7  10
BRANCH   1  23
ATOM     23  C   UNL     1       2.022   5.509  19.468  0.00  0.00    +0.000 C 
BRANCH  23  24
ATOM     24  C   UNL     1       2.423   6.967  19.857  0.00  0.00    +0.000 C 
BRANCH  24  25
ATOM     25  C   UNL     1       1.451   8.100  19.449  0.00  0.00    +0.000 C 
BRANCH  25  28
ATOM     26  C   UNL     1      -0.087  10.272  21.902  0.00  0.00    +0.000 A 
ATOM     27  C   UNL     1      -0.105   9.706  20.642  0.00  0.00    +0.000 A 
ATOM     28  N   UNL     1       0.992   8.899  20.577  0.00  0.00    +0.000 N 
ATOM     29  C   UNL     1       1.589   8.933  21.812  0.00  0.00    +0.000 A 
ATOM     30  N   UNL     1       0.976   9.758  22.631  0.00  0.00    +0.000 NA
BRANCH  26  32
ATOM     31  N   UNL     1      -0.958  12.467  21.776  0.00  0.00    +0.000 N 
ATOM     32  C   UNL     1      -1.023  11.265  22.418  0.00  0.00    +0.000 C 
ATOM     33  O   UNL     1      -1.813  11.068  23.336  0.00  0.00    +0.000 OA
ATOM     34  H   UNL     1      -1.645  13.170  21.997  0.00  0.00    +0.000 HD
ATOM     35  H   UNL     1      -0.369  12.543  20.957  0.00  0.00    +0.000 HD
ENDBRANCH  26  32
ENDBRANCH  25  28
BRANCH  25  36
ATOM     36  C   UNL     1       2.048   8.893  18.267  0.00  0.00    +0.000 C 
BRANCH  36  37
ATOM     37  O   UNL     1       1.224   9.966  17.827  0.00  0.00    +0.000 OA
ATOM     38  H   UNL     1       1.653  10.812  18.041  0.00  0.00    +0.000 HD
ENDBRANCH  36  37
ENDBRANCH  25  36
ENDBRANCH  24  25
ENDBRANCH  23  24
ENDBRANCH   1  23
TORSDOF 10
ENDMDL
