MODEL 1
REMARK VINA RESULT:      -7.2      0.000      0.000
REMARK  Name = 
REMARK  8 active torsions:
REMARK  status: ('A' for Active; 'I' for Inactive)
REMARK    1  A    between atoms: C_1  and  N_2
REMARK    2  A    between atoms: N_5  and  C_6
REMARK    3  A    between atoms: C_6  and  C_7
REMARK    4  A    between atoms: C_7  and  C_8
REMARK    5  A    between atoms: C_20  and  S_21
REMARK    6  A    between atoms: S_21  and  N_24
REMARK    7  A    between atoms: N_24  and  C_25
REMARK    8  A    between atoms: N_24  and  C_26
REMARK                            x       y       z     vdW  Elec       q    Type
REMARK                         _______ _______ _______ _____ _____    ______ ____
ROOT
ATOM      1  C   UNL     1       2.361   9.768  17.950  0.00  0.00    +0.000 C 
ATOM      2  C   UNL     1       2.111   8.803  18.883  0.00  0.00    +0.000 C 
ATOM      3  C   UNL     1       1.164   9.031  20.079  0.00  0.00    +0.000 A 
ATOM      4  C   UNL     1       0.522  10.257  20.394  0.00  0.00    +0.000 A 
ATOM      5  C   UNL     1      -0.372  10.447  21.454  0.00  0.00    +0.000 A 
ATOM      6  C   UNL     1      -0.658   9.398  22.289  0.00  0.00    +0.000 A 
ATOM      7  C   UNL     1      -0.034   8.179  22.053  0.00  0.00    +0.000 A 
ATOM      8  C   UNL     1       0.872   7.989  20.976  0.00  0.00    +0.000 A 
ATOM      9  S   UNL     1       1.569   6.363  20.923  0.00  0.00    +0.000 S 
ATOM     10  C   UNL     1       2.680   6.398  19.549  0.00  0.00    +0.000 A 
ATOM     11  C   UNL     1       3.409   5.201  19.369  0.00  0.00    +0.000 A 
ATOM     12  C   UNL     1       4.266   5.022  18.290  0.00  0.00    +0.000 A 
ATOM     13  C   UNL     1       4.379   6.047  17.368  0.00  0.00    +0.000 A 
ATOM     14  C   UNL     1       3.669   7.239  17.542  0.00  0.00    +0.000 A 
ATOM     15  C   UNL     1       2.825   7.472  18.655  0.00  0.00    +0.000 A 
ENDROOT
BRANCH  13  16
ATOM     16  S   UNL     1       5.362   5.832  15.898  0.00  0.00    +0.000 S 
ATOM     17  O   UNL     1       5.112   4.494  15.405  0.00  0.00    +0.000 OA
ATOM     18  O   UNL     1       5.149   6.991  15.059  0.00  0.00    +0.000 OA
BRANCH  16  19
ATOM     19  N   UNL     1       6.961   5.894  16.491  0.00  0.00    +0.000 NA
ATOM     20  C   UNL     1       7.321   7.045  17.339  0.00  0.00    +0.000 C 
ATOM     21  C   UNL     1       7.498   4.621  16.997  0.00  0.00    +0.000 C 
ENDBRANCH  16  19
ENDBRANCH  13  16
BRANCH   1  22
ATOM     22  C   UNL     1       1.764  11.127  17.891  0.00  0.00    +0.000 C 
BRANCH  22  23
ATOM     23  C   UNL     1       2.561  12.385  18.213  0.00  0.00    +0.000 C 
BRANCH  23  28
ATOM     24  C   UNL     1       4.298  16.691  19.323  0.00  0.00    +0.000 C 
ATOM     25  N   UNL     1       3.216  15.755  19.600  0.00  0.00    +0.000 NA
ATOM     26  C   UNL     1       3.732  14.492  20.167  0.00  0.00    +0.000 C 
ATOM     27  C   UNL     1       2.613  13.450  20.404  0.00  0.00    +0.000 C 
ATOM     28  N   UNL     1       1.794  13.174  19.207  0.00  0.00    +0.000 NA
ATOM     29  C   UNL     1       1.295  14.478  18.690  0.00  0.00    +0.000 C 
ATOM     30  C   UNL     1       2.419  15.491  18.390  0.00  0.00    +0.000 C 
ENDBRANCH  23  28
ENDBRANCH  22  23
ENDBRANCH   1  22
TORSDOF 5
ENDMDL
MODEL 2
REMARK VINA RESULT:      -7.2      0.728      1.062
REMARK  Name = 
REMARK  8 active torsions:
REMARK  status: ('A' for Active; 'I' for Inactive)
REMARK    1  A    between atoms: C_1  and  N_2
REMARK    2  A    between atoms: N_5  and  C_6
REMARK    3  A    between atoms: C_6  and  C_7
REMARK    4  A    between atoms: C_7  and  C_8
REMARK    5  A    between atoms: C_20  and  S_21
REMARK    6  A    between atoms: S_21  and  N_24
REMARK    7  A    between atoms: N_24  and  C_25
REMARK    8  A    between atoms: N_24  and  C_26
REMARK                            x       y       z     vdW  Elec       q    Type
REMARK                         _______ _______ _______ _____ _____    ______ ____
ROOT
ATOM      1  C   UNL     1       2.410   9.744  17.948  0.00  0.00    +0.000 C 
ATOM      2  C   UNL     1       2.142   8.766  18.862  0.00  0.00    +0.000 C 
ATOM      3  C   UNL     1       1.187   8.985  20.055  0.00  0.00    +0.000 A 
ATOM      4  C   UNL     1       0.556  10.214  20.384  0.00  0.00    +0.000 A 
ATOM      5  C   UNL     1      -0.343  10.397  21.440  0.00  0.00    +0.000 A 
ATOM      6  C   UNL     1      -0.649   9.338  22.255  0.00  0.00    +0.000 A 
ATOM      7  C   UNL     1      -0.037   8.116  22.005  0.00  0.00    +0.000 A 
ATOM      8  C   UNL     1       0.875   7.933  20.932  0.00  0.00    +0.000 A 
ATOM      9  S   UNL     1       1.554   6.300  20.858  0.00  0.00    +0.000 S 
ATOM     10  C   UNL     1       2.677   6.344  19.494  0.00  0.00    +0.000 A 
ATOM     11  C   UNL     1       3.393   5.141  19.300  0.00  0.00    +0.000 A 
ATOM     12  C   UNL     1       4.257   4.970  18.225  0.00  0.00    +0.000 A 
ATOM     13  C   UNL     1       4.390   6.008  17.321  0.00  0.00    +0.000 A 
ATOM     14  C   UNL     1       3.692   7.206  17.509  0.00  0.00    +0.000 A 
ATOM     15  C   UNL     1       2.842   7.430  18.619  0.00  0.00    +0.000 A 
ENDROOT
BRANCH  13  16
ATOM     16  S   UNL     1       5.382   5.806  15.856  0.00  0.00    +0.000 S 
ATOM     17  O   UNL     1       5.137   4.471  15.351  0.00  0.00    +0.000 OA
ATOM     18  O   UNL     1       5.172   6.972  15.024  0.00  0.00    +0.000 OA
BRANCH  16  19
ATOM     19  N   UNL     1       6.976   5.865  16.459  0.00  0.00    +0.000 NA
ATOM     20  C   UNL     1       7.330   7.010  17.318  0.00  0.00    +0.000 C 
ATOM     21  C   UNL     1       7.512   4.589  16.959  0.00  0.00    +0.000 C 
ENDBRANCH  16  19
ENDBRANCH  13  16
BRANCH   1  22
ATOM     22  C   UNL     1       1.830  11.110  17.907  0.00  0.00    +0.000 C 
BRANCH  22  23
ATOM     23  C   UNL     1       2.653  12.357  18.200  0.00  0.00    +0.000 C 
BRANCH  23  28
ATOM     24  C   UNL     1       2.366  15.319  21.933  0.00  0.00    +0.000 C 
ATOM     25  N   UNL     1       1.885  15.090  20.577  0.00  0.00    +0.000 NA
ATOM     26  C   UNL     1       1.138  13.820  20.480  0.00  0.00    +0.000 C 
ATOM     27  C   UNL     1       0.678  13.513  19.035  0.00  0.00    +0.000 C 
ATOM     28  N   UNL     1       1.771  13.539  18.044  0.00  0.00    +0.000 NA
ATOM     29  C   UNL     1       2.476  14.843  18.181  0.00  0.00    +0.000 C 
ATOM     30  C   UNL     1       2.994  15.114  19.608  0.00  0.00    +0.000 C 
ENDBRANCH  23  28
ENDBRANCH  22  23
ENDBRANCH   1  22
TORSDOF 5
ENDMDL
MODEL 3
REMARK VINA RESULT:      -6.6      1.915      2.785
REMARK  Name = 
REMARK  8 active torsions:
REMARK  status: ('A' for Active; 'I' for Inactive)
REMARK    1  A    between atoms: C_1  and  N_2
REMARK    2  A    between atoms: N_5  and  C_6
REMARK    3  A    between atoms: C_6  and  C_7
REMARK    4  A    between atoms: C_7  and  C_8
REMARK    5  A    between atoms: C_20  and  S_21
REMARK    6  A    between atoms: S_21  and  N_24
REMARK    7  A    between atoms: N_24  and  C_25
REMARK    8  A    between atoms: N_24  and  C_26
REMARK                            x       y       z     vdW  Elec       q    Type
REMARK                         _______ _______ _______ _____ _____    ______ ____
ROOT
ATOM      1  C   UNL     1       1.561  11.073  18.961  0.00  0.00    +0.000 C 
ATOM      2  C   UNL     1       1.008  10.428  20.031  0.00  0.00    +0.000 C 
ATOM      3  C   UNL     1       0.122  11.151  21.067  0.00  0.00    +0.000 A 
ATOM      4  C   UNL     1      -0.151  12.544  21.083  0.00  0.00    +0.000 A 
ATOM      5  C   UNL     1      -0.992  13.187  21.998  0.00  0.00    +0.000 A 
ATOM      6  C   UNL     1      -1.600  12.454  22.984  0.00  0.00    +0.000 A 
ATOM      7  C   UNL     1      -1.345  11.090  23.043  0.00  0.00    +0.000 A 
ATOM      8  C   UNL     1      -0.492  10.439  22.112  0.00  0.00    +0.000 A 
ATOM      9  S   UNL     1      -0.291   8.710  22.432  0.00  0.00    +0.000 S 
ATOM     10  C   UNL     1       0.835   8.152  21.189  0.00  0.00    +0.000 A 
ATOM     11  C   UNL     1       1.193   6.791  21.308  0.00  0.00    +0.000 A 
ATOM     12  C   UNL     1       2.003   6.164  20.368  0.00  0.00    +0.000 A 
ATOM     13  C   UNL     1       2.442   6.904  19.285  0.00  0.00    +0.000 A 
ATOM     14  C   UNL     1       2.099   8.255  19.163  0.00  0.00    +0.000 A 
ATOM     15  C   UNL     1       1.316   8.935  20.127  0.00  0.00    +0.000 A 
ENDROOT
BRANCH  13  16
ATOM     16  S   UNL     1       3.376   6.127  17.982  0.00  0.00    +0.000 S 
ATOM     17  O   UNL     1       2.582   5.024  17.482  0.00  0.00    +0.000 OA
ATOM     18  O   UNL     1       3.844   7.174  17.099  0.00  0.00    +0.000 OA
BRANCH  16  19
ATOM     19  N   UNL     1       4.725   5.486  18.805  0.00  0.00    +0.000 NA
ATOM     20  C   UNL     1       4.685   4.053  19.151  0.00  0.00    +0.000 C 
ATOM     21  C   UNL     1       6.039   5.915  18.300  0.00  0.00    +0.000 C 
ENDBRANCH  16  19
ENDBRANCH  13  16
BRANCH   1  22
ATOM     22  C   UNL     1       1.383  12.500  18.592  0.00  0.00    +0.000 C 
BRANCH  22  23
ATOM     23  C   UNL     1       2.496  13.326  17.960  0.00  0.00    +0.000 C 
BRANCH  23  28
ATOM     24  C   UNL     1       1.492  17.933  17.213  0.00  0.00    +0.000 C 
ATOM     25  N   UNL     1       2.156  17.009  18.123  0.00  0.00    +0.000 NA
ATOM     26  C   UNL     1       3.257  16.291  17.451  0.00  0.00    +0.000 C 
ATOM     27  C   UNL     1       3.934  15.249  18.373  0.00  0.00    +0.000 C 
ATOM     28  N   UNL     1       2.991  14.286  18.975  0.00  0.00    +0.000 NA
ATOM     29  C   UNL     1       1.914  15.066  19.646  0.00  0.00    +0.000 C 
ATOM     30  C   UNL     1       1.196  16.055  18.706  0.00  0.00    +0.000 C 
ENDBRANCH  23  28
ENDBRANCH  22  23
ENDBRANCH   1  22
TORSDOF 5
ENDMDL
MODEL 4
REMARK VINA RESULT:      -6.5      1.878      2.756
REMARK  Name = 
REMARK  8 active torsions:
REMARK  status: ('A' for Active; 'I' for Inactive)
REMARK    1  A    between atoms: C_1  and  N_2
REMARK    2  A    between atoms: N_5  and  C_6
REMARK    3  A    between atoms: C_6  and  C_7
REMARK    4  A    between atoms: C_7  and  C_8
REMARK    5  A    between atoms: C_20  and  S_21
REMARK    6  A    between atoms: S_21  and  N_24
REMARK    7  A    between atoms: N_24  and  C_25
REMARK    8  A    between atoms: N_24  and  C_26
REMARK                            x       y       z     vdW  Elec       q    Type
REMARK                         _______ _______ _______ _____ _____    ______ ____
ROOT
ATOM      1  C   UNL     1       1.836  11.009  18.734  0.00  0.00    +0.000 C 
ATOM      2  C   UNL     1       1.215  10.456  19.818  0.00  0.00    +0.000 C 
ATOM      3  C   UNL     1       0.349  11.285  20.790  0.00  0.00    +0.000 A 
ATOM      4  C   UNL     1       0.164  12.691  20.727  0.00  0.00    +0.000 A 
ATOM      5  C   UNL     1      -0.659  13.432  21.584  0.00  0.00    +0.000 A 
ATOM      6  C   UNL     1      -1.338  12.790  22.587  0.00  0.00    +0.000 A 
ATOM      7  C   UNL     1      -1.171  11.417  22.721  0.00  0.00    +0.000 A 
ATOM      8  C   UNL     1      -0.337  10.668  21.850  0.00  0.00    +0.000 A 
ATOM      9  S   UNL     1      -0.254   8.948  22.262  0.00  0.00    +0.000 S 
ATOM     10  C   UNL     1       0.867   8.259  21.082  0.00  0.00    +0.000 A 
ATOM     11  C   UNL     1       1.136   6.886  21.280  0.00  0.00    +0.000 A 
ATOM     12  C   UNL     1       1.929   6.163  20.398  0.00  0.00    +0.000 A 
ATOM     13  C   UNL     1       2.443   6.816  19.292  0.00  0.00    +0.000 A 
ATOM     14  C   UNL     1       2.189   8.178  19.093  0.00  0.00    +0.000 A 
ATOM     15  C   UNL     1       1.426   8.954  19.998  0.00  0.00    +0.000 A 
ENDROOT
BRANCH  13  16
ATOM     16  S   UNL     1       3.360   5.917  18.059  0.00  0.00    +0.000 S 
ATOM     17  O   UNL     1       2.490   4.881  17.545  0.00  0.00    +0.000 OA
ATOM     18  O   UNL     1       3.970   6.889  17.177  0.00  0.00    +0.000 OA
BRANCH  16  19
ATOM     19  N   UNL     1       4.599   5.174  18.966  0.00  0.00    +0.000 NA
ATOM     20  C   UNL     1       4.472   3.727  19.222  0.00  0.00    +0.000 C 
ATOM     21  C   UNL     1       5.971   5.573  18.612  0.00  0.00    +0.000 C 
ENDBRANCH  16  19
ENDBRANCH  13  16
BRANCH   1  22
ATOM     22  C   UNL     1       1.759  12.424  18.289  0.00  0.00    +0.000 C 
BRANCH  22  23
ATOM     23  C   UNL     1       2.890  13.417  18.522  0.00  0.00    +0.000 C 
BRANCH  23  28
ATOM     24  C   UNL     1       4.527  17.352  20.673  0.00  0.00    +0.000 C 
ATOM     25  N   UNL     1       3.715  16.873  19.563  0.00  0.00    +0.000 NA
ATOM     26  C   UNL     1       2.551  16.101  20.043  0.00  0.00    +0.000 C 
ATOM     27  C   UNL     1       1.709  15.518  18.883  0.00  0.00    +0.000 C 
ATOM     28  N   UNL     1       2.493  14.715  17.924  0.00  0.00    +0.000 NA
ATOM     29  C   UNL     1       3.641  15.547  17.468  0.00  0.00    +0.000 C 
ATOM     30  C   UNL     1       4.518  16.070  18.624  0.00  0.00    +0.000 C 
ENDBRANCH  23  28
ENDBRANCH  22  23
ENDBRANCH   1  22
TORSDOF 5
ENDMDL
MODEL 5
REMARK VINA RESULT:      -6.3      5.775      7.649
REMARK  Name = 
REMARK  8 active torsions:
REMARK  status: ('A' for Active; 'I' for Inactive)
REMARK    1  A    between atoms: C_1  and  N_2
REMARK    2  A    between atoms: N_5  and  C_6
REMARK    3  A    between atoms: C_6  and  C_7
REMARK    4  A    between atoms: C_7  and  C_8
REMARK    5  A    between atoms: C_20  and  S_21
REMARK    6  A    between atoms: S_21  and  N_24
REMARK    7  A    between atoms: N_24  and  C_25
REMARK    8  A    between atoms: N_24  and  C_26
REMARK                            x       y       z     vdW  Elec       q    Type
REMARK                         _______ _______ _______ _____ _____    ______ ____
ROOT
ATOM      1  C   UNL     1      -3.258  13.002  21.041  0.00  0.00    +0.000 C 
ATOM      2  C   UNL     1      -3.803  12.545  19.875  0.00  0.00    +0.000 C 
ATOM      3  C   UNL     1      -5.245  12.883  19.445  0.00  0.00    +0.000 A 
ATOM      4  C   UNL     1      -6.181  13.618  20.221  0.00  0.00    +0.000 A 
ATOM      5  C   UNL     1      -7.473  13.961  19.807  0.00  0.00    +0.000 A 
ATOM      6  C   UNL     1      -7.915  13.557  18.574  0.00  0.00    +0.000 A 
ATOM      7  C   UNL     1      -7.057  12.805  17.781  0.00  0.00    +0.000 A 
ATOM      8  C   UNL     1      -5.746  12.459  18.203  0.00  0.00    +0.000 A 
ATOM      9  S   UNL     1      -4.874  11.454  17.034  0.00  0.00    +0.000 S 
ATOM     10  C   UNL     1      -3.317  11.124  17.802  0.00  0.00    +0.000 A 
ATOM     11  C   UNL     1      -2.480  10.264  17.057  0.00  0.00    +0.000 A 
ATOM     12  C   UNL     1      -1.188   9.963  17.471  0.00  0.00    +0.000 A 
ATOM     13  C   UNL     1      -0.720  10.548  18.633  0.00  0.00    +0.000 A 
ATOM     14  C   UNL     1      -1.544  11.394  19.383  0.00  0.00    +0.000 A 
ATOM     15  C   UNL     1      -2.881  11.683  19.015  0.00  0.00    +0.000 A 
ENDROOT
BRANCH  13  16
ATOM     16  S   UNL     1       0.967  10.304  19.149  0.00  0.00    +0.000 S 
ATOM     17  O   UNL     1       1.670   9.686  18.044  0.00  0.00    +0.000 OA
ATOM     18  O   UNL     1       1.429  11.547  19.729  0.00  0.00    +0.000 OA
BRANCH  16  19
ATOM     19  N   UNL     1       0.825   9.155  20.402  0.00  0.00    +0.000 NA
ATOM     20  C   UNL     1       1.694   7.966  20.329  0.00  0.00    +0.000 C 
ATOM     21  C   UNL     1       0.728   9.709  21.762  0.00  0.00    +0.000 C 
ENDBRANCH  16  19
ENDBRANCH  13  16
BRANCH   1  22
ATOM     22  C   UNL     1      -3.902  13.898  22.035  0.00  0.00    +0.000 C 
BRANCH  22  23
ATOM     23  C   UNL     1      -3.346  15.276  22.374  0.00  0.00    +0.000 C 
BRANCH  23  28
ATOM     24  C   UNL     1      -1.877  18.198  25.851  0.00  0.00    +0.000 C 
ATOM     25  N   UNL     1      -1.459  17.108  24.980  0.00  0.00    +0.000 NA
ATOM     26  C   UNL     1      -1.533  17.499  23.558  0.00  0.00    +0.000 C 
ATOM     27  C   UNL     1      -1.165  16.337  22.605  0.00  0.00    +0.000 C 
ATOM     28  N   UNL     1      -1.948  15.107  22.836  0.00  0.00    +0.000 NA
ATOM     29  C   UNL     1      -1.825  14.757  24.278  0.00  0.00    +0.000 C 
ATOM     30  C   UNL     1      -2.258  15.894  25.225  0.00  0.00    +0.000 C 
ENDBRANCH  23  28
ENDBRANCH  22  23
ENDBRANCH   1  22
TORSDOF 5
ENDMDL
MODEL 6
REMARK VINA RESULT:      -6.2      5.504      8.382
REMARK  Name = 
REMARK  8 active torsions:
REMARK  status: ('A' for Active; 'I' for Inactive)
REMARK    1  A    between atoms: C_1  and  N_2
REMARK    2  A    between atoms: N_5  and  C_6
REMARK    3  A    between atoms: C_6  and  C_7
REMARK    4  A    between atoms: C_7  and  C_8
REMARK    5  A    between atoms: C_20  and  S_21
REMARK    6  A    between atoms: S_21  and  N_24
REMARK    7  A    between atoms: N_24  and  C_25
REMARK    8  A    between atoms: N_24  and  C_26
REMARK                            x       y       z     vdW  Elec       q    Type
REMARK                         _______ _______ _______ _____ _____    ______ ____
ROOT
ATOM      1  C   UNL     1      -0.257  13.989  22.065  0.00  0.00    +0.000 C 
ATOM      2  C   UNL     1       0.283  13.046  21.239  0.00  0.00    +0.000 C 
ATOM      3  C   UNL     1       0.111  11.532  21.484  0.00  0.00    +0.000 A 
ATOM      4  C   UNL     1      -0.538  10.952  22.606  0.00  0.00    +0.000 A 
ATOM      5  C   UNL     1      -0.731   9.580  22.801  0.00  0.00    +0.000 A 
ATOM      6  C   UNL     1      -0.253   8.694  21.871  0.00  0.00    +0.000 A 
ATOM      7  C   UNL     1       0.422   9.198  20.766  0.00  0.00    +0.000 A 
ATOM      8  C   UNL     1       0.615  10.592  20.570  0.00  0.00    +0.000 A 
ATOM      9  S   UNL     1       1.548  10.974  19.114  0.00  0.00    +0.000 S 
ATOM     10  C   UNL     1       1.691  12.735  19.124  0.00  0.00    +0.000 A 
ATOM     11  C   UNL     1       2.474  13.253  18.069  0.00  0.00    +0.000 A 
ATOM     12  C   UNL     1       2.626  14.621  17.875  0.00  0.00    +0.000 A 
ATOM     13  C   UNL     1       1.967  15.481  18.735  0.00  0.00    +0.000 A 
ATOM     14  C   UNL     1       1.197  14.977  19.789  0.00  0.00    +0.000 A 
ATOM     15  C   UNL     1       1.061  13.591  20.043  0.00  0.00    +0.000 A 
ENDROOT
BRANCH  13  16
ATOM     16  S   UNL     1       2.017  17.240  18.464  0.00  0.00    +0.000 S 
ATOM     17  O   UNL     1       2.690  17.462  17.201  0.00  0.00    +0.000 OA
ATOM     18  O   UNL     1       0.686  17.755  18.704  0.00  0.00    +0.000 OA
BRANCH  16  19
ATOM     19  N   UNL     1       3.034  17.794  19.716  0.00  0.00    +0.000 NA
ATOM     20  C   UNL     1       2.392  18.169  20.990  0.00  0.00    +0.000 C 
ATOM     21  C   UNL     1       4.278  17.032  19.906  0.00  0.00    +0.000 C 
ENDBRANCH  16  19
ENDBRANCH  13  16
BRANCH   1  22
ATOM     22  C   UNL     1      -1.102  13.747  23.262  0.00  0.00    +0.000 C 
BRANCH  22  23
ATOM     23  C   UNL     1      -2.281  14.642  23.625  0.00  0.00    +0.000 C 
BRANCH  23  28
ATOM     24  C   UNL     1      -5.597  13.929  20.266  0.00  0.00    +0.000 C 
ATOM     25  N   UNL     1      -5.228  13.605  21.638  0.00  0.00    +0.000 NA
ATOM     26  C   UNL     1      -5.158  14.820  22.475  0.00  0.00    +0.000 C 
ATOM     27  C   UNL     1      -4.696  14.516  23.920  0.00  0.00    +0.000 C 
ATOM     28  N   UNL     1      -3.423  13.772  23.994  0.00  0.00    +0.000 NA
ATOM     29  C   UNL     1      -3.559  12.557  23.143  0.00  0.00    +0.000 C 
ATOM     30  C   UNL     1      -3.952  12.869  21.685  0.00  0.00    +0.000 C 
ENDBRANCH  23  28
ENDBRANCH  22  23
ENDBRANCH   1  22
TORSDOF 5
ENDMDL
MODEL 7
REMARK VINA RESULT:      -6.2      5.708      9.219
REMARK  Name = 
REMARK  8 active torsions:
REMARK  status: ('A' for Active; 'I' for Inactive)
REMARK    1  A    between atoms: C_1  and  N_2
REMARK    2  A    between atoms: N_5  and  C_6
REMARK    3  A    between atoms: C_6  and  C_7
REMARK    4  A    between atoms: C_7  and  C_8
REMARK    5  A    between atoms: C_20  and  S_21
REMARK    6  A    between atoms: S_21  and  N_24
REMARK    7  A    between atoms: N_24  and  C_25
REMARK    8  A    between atoms: N_24  and  C_26
REMARK                            x       y       z     vdW  Elec       q    Type
REMARK                         _______ _______ _______ _____ _____    ______ ____
ROOT
ATOM      1  C   UNL     1      -0.741  13.608  22.167  0.00  0.00    +0.000 C 
ATOM      2  C   UNL     1      -0.007  12.865  21.286  0.00  0.00    +0.000 C 
ATOM      3  C   UNL     1       0.098  11.329  21.383  0.00  0.00    +0.000 A 
ATOM      4  C   UNL     1      -0.467  10.532  22.413  0.00  0.00    +0.000 A 
ATOM      5  C   UNL     1      -0.407   9.135  22.472  0.00  0.00    +0.000 A 
ATOM      6  C   UNL     1       0.258   8.448  21.490  0.00  0.00    +0.000 A 
ATOM      7  C   UNL     1       0.862   9.174  20.472  0.00  0.00    +0.000 A 
ATOM      8  C   UNL     1       0.799  10.592  20.413  0.00  0.00    +0.000 A 
ATOM      9  S   UNL     1       1.691  11.280  19.048  0.00  0.00    +0.000 S 
ATOM     10  C   UNL     1       1.503  13.028  19.226  0.00  0.00    +0.000 A 
ATOM     11  C   UNL     1       2.210  13.782  18.263  0.00  0.00    +0.000 A 
ATOM     12  C   UNL     1       2.110  15.167  18.203  0.00  0.00    +0.000 A 
ATOM     13  C   UNL     1       1.274  15.803  19.103  0.00  0.00    +0.000 A 
ATOM     14  C   UNL     1       0.577  15.065  20.066  0.00  0.00    +0.000 A 
ATOM     15  C   UNL     1       0.695  13.659  20.186  0.00  0.00    +0.000 A 
ENDROOT
BRANCH  13  16
ATOM     16  S   UNL     1       1.004  17.560  18.997  0.00  0.00    +0.000 S 
ATOM     17  O   UNL     1       0.605  18.014  20.313  0.00  0.00    +0.000 OA
ATOM     18  O   UNL     1       2.146  18.136  18.320  0.00  0.00    +0.000 OA
BRANCH  16  19
ATOM     19  N   UNL     1      -0.344  17.680  17.958  0.00  0.00    +0.000 NA
ATOM     20  C   UNL     1      -1.665  17.863  18.587  0.00  0.00    +0.000 C 
ATOM     21  C   UNL     1      -0.154  18.528  16.770  0.00  0.00    +0.000 C 
ENDBRANCH  16  19
ENDBRANCH  13  16
BRANCH   1  22
ATOM     22  C   UNL     1      -1.565  13.098  23.292  0.00  0.00    +0.000 C 
BRANCH  22  23
ATOM     23  C   UNL     1      -3.075  12.923  23.185  0.00  0.00    +0.000 C 
BRANCH  23  28
ATOM     24  C   UNL     1      -7.609  14.406  23.007  0.00  0.00    +0.000 C 
ATOM     25  N   UNL     1      -6.477  14.197  23.900  0.00  0.00    +0.000 NA
ATOM     26  C   UNL     1      -5.325  15.035  23.511  0.00  0.00    +0.000 C 
ATOM     27  C   UNL     1      -4.082  14.781  24.398  0.00  0.00    +0.000 C 
ATOM     28  N   UNL     1      -3.680  13.362  24.465  0.00  0.00    +0.000 NA
ATOM     29  C   UNL     1      -4.875  12.572  24.872  0.00  0.00    +0.000 C 
ATOM     30  C   UNL     1      -6.091  12.776  23.945  0.00  0.00    +0.000 C 
ENDBRANCH  23  28
ENDBRANCH  22  23
ENDBRANCH   1  22
TORSDOF 5
ENDMDL
MODEL 8
REMARK VINA RESULT:      -6.2      2.824      8.016
REMARK  Name = 
REMARK  8 active torsions:
REMARK  status: ('A' for Active; 'I' for Inactive)
REMARK    1  A    between atoms: C_1  and  N_2
REMARK    2  A    between atoms: N_5  and  C_6
REMARK    3  A    between atoms: C_6  and  C_7
REMARK    4  A    between atoms: C_7  and  C_8
REMARK    5  A    between atoms: C_20  and  S_21
REMARK    6  A    between atoms: S_21  and  N_24
REMARK    7  A    between atoms: N_24  and  C_25
REMARK    8  A    between atoms: N_24  and  C_26
REMARK                            x       y       z     vdW  Elec       q    Type
REMARK                         _______ _______ _______ _____ _____    ______ ____
ROOT
ATOM      1  C   UNL     1       3.205   7.772  17.524  0.00  0.00    +0.000 C 
ATOM      2  C   UNL     1       2.493   7.527  18.663  0.00  0.00    +0.000 C 
ATOM      3  C   UNL     1       2.367   6.116  19.275  0.00  0.00    +0.000 A 
ATOM      4  C   UNL     1       2.889   4.926  18.704  0.00  0.00    +0.000 A 
ATOM      5  C   UNL     1       2.811   3.655  19.285  0.00  0.00    +0.000 A 
ATOM      6  C   UNL     1       2.170   3.503  20.487  0.00  0.00    +0.000 A 
ATOM      7  C   UNL     1       1.608   4.626  21.081  0.00  0.00    +0.000 A 
ATOM      8  C   UNL     1       1.689   5.915  20.489  0.00  0.00    +0.000 A 
ATOM      9  S   UNL     1       0.851   7.168  21.417  0.00  0.00    +0.000 S 
ATOM     10  C   UNL     1       1.053   8.641  20.462  0.00  0.00    +0.000 A 
ATOM     11  C   UNL     1       0.387   9.767  20.996  0.00  0.00    +0.000 A 
ATOM     12  C   UNL     1       0.505  11.027  20.420  0.00  0.00    +0.000 A 
ATOM     13  C   UNL     1       1.318  11.165  19.310  0.00  0.00    +0.000 A 
ATOM     14  C   UNL     1       1.974  10.054  18.769  0.00  0.00    +0.000 A 
ATOM     15  C   UNL     1       1.837   8.750  19.301  0.00  0.00    +0.000 A 
ENDROOT
BRANCH  13  16
ATOM     16  S   UNL     1       1.612  12.773  18.603  0.00  0.00    +0.000 S 
ATOM     17  O   UNL     1       2.797  12.670  17.778  0.00  0.00    +0.000 OA
ATOM     18  O   UNL     1       0.358  13.244  18.056  0.00  0.00    +0.000 OA
BRANCH  16  19
ATOM     19  N   UNL     1       1.989  13.730  19.964  0.00  0.00    +0.000 NA
ATOM     20  C   UNL     1       3.373  14.228  20.075  0.00  0.00    +0.000 C 
ATOM     21  C   UNL     1       0.986  14.745  20.323  0.00  0.00    +0.000 C 
ENDBRANCH  16  19
ENDBRANCH  13  16
BRANCH   1  22
ATOM     22  C   UNL     1       3.987   6.788  16.732  0.00  0.00    +0.000 C 
BRANCH  22  23
ATOM     23  C   UNL     1       5.505   6.697  16.810  0.00  0.00    +0.000 C 
BRANCH  23  28
ATOM     24  C   UNL     1       6.753   4.118  12.992  0.00  0.00    +0.000 C 
ATOM     25  N   UNL     1       6.566   4.062  14.436  0.00  0.00    +0.000 NA
ATOM     26  C   UNL     1       5.167   4.351  14.808  0.00  0.00    +0.000 C 
ATOM     27  C   UNL     1       4.954   4.371  16.340  0.00  0.00    +0.000 C 
ATOM     28  N   UNL     1       5.870   5.281  17.056  0.00  0.00    +0.000 NA
ATOM     29  C   UNL     1       7.260   4.935  16.651  0.00  0.00    +0.000 C 
ATOM     30  C   UNL     1       7.486   4.983  15.126  0.00  0.00    +0.000 C 
ENDBRANCH  23  28
ENDBRANCH  22  23
ENDBRANCH   1  22
TORSDOF 5
ENDMDL
MODEL 9
REMARK VINA RESULT:      -6.2      7.115      9.990
REMARK  Name = 
REMARK  8 active torsions:
REMARK  status: ('A' for Active; 'I' for Inactive)
REMARK    1  A    between atoms: C_1  and  N_2
REMARK    2  A    between atoms: N_5  and  C_6
REMARK    3  A    between atoms: C_6  and  C_7
REMARK    4  A    between atoms: C_7  and  C_8
REMARK    5  A    between atoms: C_20  and  S_21
REMARK    6  A    between atoms: S_21  and  N_24
REMARK    7  A    between atoms: N_24  and  C_25
REMARK    8  A    between atoms: N_24  and  C_26
REMARK                            x       y       z     vdW  Elec       q    Type
REMARK                         _______ _______ _______ _____ _____    ______ ____
ROOT
ATOM      1  C   UNL     1      -2.321  12.154  20.151  0.00  0.00    +0.000 C 
ATOM      2  C   UNL     1      -3.455  12.006  19.405  0.00  0.00    +0.000 C 
ATOM      3  C   UNL     1      -3.426  11.537  17.935  0.00  0.00    +0.000 A 
ATOM      4  C   UNL     1      -2.251  11.290  17.177  0.00  0.00    +0.000 A 
ATOM      5  C   UNL     1      -2.230  10.823  15.858  0.00  0.00    +0.000 A 
ATOM      6  C   UNL     1      -3.414  10.593  15.206  0.00  0.00    +0.000 A 
ATOM      7  C   UNL     1      -4.600  10.849  15.884  0.00  0.00    +0.000 A 
ATOM      8  C   UNL     1      -4.618  11.323  17.223  0.00  0.00    +0.000 A 
ATOM      9  S   UNL     1      -6.250  11.618  17.842  0.00  0.00    +0.000 S 
ATOM     10  C   UNL     1      -6.003  12.239  19.477  0.00  0.00    +0.000 A 
ATOM     11  C   UNL     1      -7.196  12.613  20.136  0.00  0.00    +0.000 A 
ATOM     12  C   UNL     1      -7.197  13.044  21.457  0.00  0.00    +0.000 A 
ATOM     13  C   UNL     1      -5.991  13.080  22.135  0.00  0.00    +0.000 A 
ATOM     14  C   UNL     1      -4.804  12.720  21.488  0.00  0.00    +0.000 A 
ATOM     15  C   UNL     1      -4.762  12.324  20.129  0.00  0.00    +0.000 A 
ENDROOT
BRANCH  13  16
ATOM     16  S   UNL     1      -5.941  13.501  23.864  0.00  0.00    +0.000 S 
ATOM     17  O   UNL     1      -7.267  13.949  24.237  0.00  0.00    +0.000 OA
ATOM     18  O   UNL     1      -5.297  12.407  24.560  0.00  0.00    +0.000 OA
BRANCH  16  19
ATOM     19  N   UNL     1      -4.892  14.845  23.904  0.00  0.00    +0.000 NA
ATOM     20  C   UNL     1      -5.497  16.166  24.159  0.00  0.00    +0.000 C 
ATOM     21  C   UNL     1      -3.632  14.644  24.636  0.00  0.00    +0.000 C 
ENDBRANCH  16  19
ENDBRANCH  13  16
BRANCH   1  22
ATOM     22  C   UNL     1      -0.929  11.863  19.724  0.00  0.00    +0.000 C 
BRANCH  22  23
ATOM     23  C   UNL     1       0.285  12.356  20.501  0.00  0.00    +0.000 C 
BRANCH  23  28
ATOM     24  C   UNL     1       4.158  14.790  19.134  0.00  0.00    +0.000 C 
ATOM     25  N   UNL     1       2.805  14.933  19.655  0.00  0.00    +0.000 NA
ATOM     26  C   UNL     1       2.668  14.287  20.976  0.00  0.00    +0.000 C 
ATOM     27  C   UNL     1       1.222  14.360  21.522  0.00  0.00    +0.000 C 
ATOM     28  N   UNL     1       0.206  13.834  20.589  0.00  0.00    +0.000 NA
ATOM     29  C   UNL     1       0.387  14.529  19.285  0.00  0.00    +0.000 C 
ATOM     30  C   UNL     1       1.812  14.396  18.710  0.00  0.00    +0.000 C 
ENDBRANCH  23  28
ENDBRANCH  22  23
ENDBRANCH   1  22
TORSDOF 5
ENDMDL
