MODEL 1
REMARK VINA RESULT:      -8.3      0.000      0.000
REMARK  Name = 
REMARK  5 active torsions:
REMARK  status: ('A' for Active; 'I' for Inactive)
REMARK    1  A    between atoms: C_1  and  O_2
REMARK    2  A    between atoms: O_2  and  C_3
REMARK    3  A    between atoms: C_6  and  C_7
REMARK    4  A    between atoms: C_21  and  O_22
REMARK    5  A    between atoms: O_22  and  C_23
REMARK                            x       y       z     vdW  Elec       q    Type
REMARK                         _______ _______ _______ _____ _____    ______ ____
ROOT
ATOM      1  C   UNL     1       2.912   6.298  18.131  0.00  0.00    +0.000 A 
ATOM      2  C   UNL     1       2.238   5.071  18.131  0.00  0.00    +0.000 A 
ATOM      3  C   UNL     1       2.879   3.965  18.705  0.00  0.00    +0.000 A 
ATOM      4  C   UNL     1       4.131   4.128  19.343  0.00  0.00    +0.000 A 
ATOM      5  C   UNL     1       4.798   5.351  19.215  0.00  0.00    +0.000 A 
ATOM      6  C   UNL     1       4.304   6.142  18.178  0.00  0.00    +0.000 A 
ATOM      7  N   UNL     1       5.206   5.776  17.106  0.00  0.00    +0.000 N 
ATOM      8  C   UNL     1       5.131   5.205  15.858  0.00  0.00    +0.000 A 
ATOM      9  C   UNL     1       6.391   4.657  15.586  0.00  0.00    +0.000 A 
ATOM     10  C   UNL     1       7.260   4.906  16.692  0.00  0.00    +0.000 A 
ATOM     11  C   UNL     1       6.409   5.395  17.639  0.00  0.00    +0.000 A 
ATOM     12  C   UNL     1       6.273   5.293  19.047  0.00  0.00    +0.000 C 
ATOM     13  O   UNL     1       7.093   5.039  19.908  0.00  0.00    +0.000 OA
ENDROOT
BRANCH   1  17
ATOM     14  C   UNL     1       0.755   9.327  20.543  0.00  0.00    +0.000 A 
ATOM     15  C   UNL     1       1.115   8.083  21.070  0.00  0.00    +0.000 A 
ATOM     16  C   UNL     1       1.886   7.164  20.330  0.00  0.00    +0.000 A 
ATOM     17  C   UNL     1       2.298   7.416  19.005  0.00  0.00    +0.000 A 
ATOM     18  C   UNL     1       1.921   8.683  18.501  0.00  0.00    +0.000 A 
ATOM     19  C   UNL     1       1.146   9.626  19.233  0.00  0.00    +0.000 A 
BRANCH  14  21
ATOM     20  C   UNL     1      -0.306   9.908  22.601  0.00  0.00    +0.000 C 
ATOM     21  O   UNL     1      -0.016  10.218  21.240  0.00  0.00    +0.000 OA
ENDBRANCH  14  21
BRANCH  19  22
ATOM     22  O   UNL     1       0.859  10.752  18.499  0.00  0.00    +0.000 OA
ATOM     23  C   UNL     1       1.713  11.888  18.585  0.00  0.00    +0.000 C 
ENDBRANCH  19  22
ENDBRANCH   1  17
TORSDOF 3
ENDMDL
MODEL 2
REMARK VINA RESULT:      -8.2      0.927      1.926
REMARK  Name = 
REMARK  5 active torsions:
REMARK  status: ('A' for Active; 'I' for Inactive)
REMARK    1  A    between atoms: C_1  and  O_2
REMARK    2  A    between atoms: O_2  and  C_3
REMARK    3  A    between atoms: C_6  and  C_7
REMARK    4  A    between atoms: C_21  and  O_22
REMARK    5  A    between atoms: O_22  and  C_23
REMARK                            x       y       z     vdW  Elec       q    Type
REMARK                         _______ _______ _______ _____ _____    ______ ____
ROOT
ATOM      1  C   UNL     1       2.868   6.110  17.780  0.00  0.00    +0.000 A 
ATOM      2  C   UNL     1       2.215   4.893  18.010  0.00  0.00    +0.000 A 
ATOM      3  C   UNL     1       2.844   3.952  18.836  0.00  0.00    +0.000 A 
ATOM      4  C   UNL     1       4.058   4.281  19.484  0.00  0.00    +0.000 A 
ATOM      5  C   UNL     1       4.710   5.466  19.130  0.00  0.00    +0.000 A 
ATOM      6  C   UNL     1       4.258   6.006  17.926  0.00  0.00    +0.000 A 
ATOM      7  N   UNL     1       5.221   5.446  17.001  0.00  0.00    +0.000 N 
ATOM      8  C   UNL     1       5.221   4.621  15.901  0.00  0.00    +0.000 A 
ATOM      9  C   UNL     1       6.503   4.063  15.812  0.00  0.00    +0.000 A 
ATOM     10  C   UNL     1       7.308   4.564  16.881  0.00  0.00    +0.000 A 
ATOM     11  C   UNL     1       6.401   5.220  17.660  0.00  0.00    +0.000 A 
ATOM     12  C   UNL     1       6.193   5.415  19.049  0.00  0.00    +0.000 C 
ATOM     13  O   UNL     1       6.970   5.372  19.982  0.00  0.00    +0.000 OA
ENDROOT
BRANCH   1  17
ATOM     14  C   UNL     1       1.333   9.874  19.548  0.00  0.00    +0.000 A 
ATOM     15  C   UNL     1       1.728   9.794  18.210  0.00  0.00    +0.000 A 
ATOM     16  C   UNL     1       2.122   8.571  17.629  0.00  0.00    +0.000 A 
ATOM     17  C   UNL     1       2.190   7.371  18.365  0.00  0.00    +0.000 A 
ATOM     18  C   UNL     1       1.782   7.483  19.715  0.00  0.00    +0.000 A 
ATOM     19  C   UNL     1       1.378   8.706  20.319  0.00  0.00    +0.000 A 
BRANCH  14  21
ATOM     20  C   UNL     1      -0.262  11.641  19.726  0.00  0.00    +0.000 C 
ATOM     21  O   UNL     1       0.974  11.059  20.132  0.00  0.00    +0.000 OA
ENDBRANCH  14  21
BRANCH  19  22
ATOM     22  O   UNL     1       1.092   8.563  21.656  0.00  0.00    +0.000 OA
ATOM     23  C   UNL     1      -0.258   8.629  22.100  0.00  0.00    +0.000 C 
ENDBRANCH  19  22
ENDBRANCH   1  17
TORSDOF 3
ENDMDL
MODEL 3
REMARK VINA RESULT:      -7.9      3.051      6.792
REMARK  Name = 
REMARK  5 active torsions:
REMARK  status: ('A' for Active; 'I' for Inactive)
REMARK    1  A    between atoms: C_1  and  O_2
REMARK    2  A    between atoms: O_2  and  C_3
REMARK    3  A    between atoms: C_6  and  C_7
REMARK    4  A    between atoms: C_21  and  O_22
REMARK    5  A    between atoms: O_22  and  C_23
REMARK                            x       y       z     vdW  Elec       q    Type
REMARK                         _______ _______ _______ _____ _____    ______ ____
ROOT
ATOM      1  C   UNL     1       3.945   3.572  17.411  0.00  0.00    +0.000 A 
ATOM      2  C   UNL     1       2.816   3.001  16.811  0.00  0.00    +0.000 A 
ATOM      3  C   UNL     1       1.566   3.577  17.075  0.00  0.00    +0.000 A 
ATOM      4  C   UNL     1       1.482   4.756  17.852  0.00  0.00    +0.000 A 
ATOM      5  C   UNL     1       2.630   5.213  18.509  0.00  0.00    +0.000 A 
ATOM      6  C   UNL     1       3.634   4.249  18.598  0.00  0.00    +0.000 A 
ATOM      7  N   UNL     1       3.360   3.694  19.906  0.00  0.00    +0.000 N 
ATOM      8  C   UNL     1       3.021   2.478  20.450  0.00  0.00    +0.000 A 
ATOM      9  C   UNL     1       2.395   2.741  21.675  0.00  0.00    +0.000 A 
ATOM     10  C   UNL     1       2.357   4.153  21.888  0.00  0.00    +0.000 A 
ATOM     11  C   UNL     1       2.767   4.651  20.687  0.00  0.00    +0.000 A 
ATOM     12  C   UNL     1       2.443   5.767  19.875  0.00  0.00    +0.000 C 
ATOM     13  O   UNL     1       1.960   6.844  20.161  0.00  0.00    +0.000 OA
ENDROOT
BRANCH   1  17
ATOM     14  C   UNL     1       7.133   5.183  14.787  0.00  0.00    +0.000 A 
ATOM     15  C   UNL     1       6.254   4.186  14.354  0.00  0.00    +0.000 A 
ATOM     16  C   UNL     1       5.182   3.748  15.158  0.00  0.00    +0.000 A 
ATOM     17  C   UNL     1       4.958   4.247  16.458  0.00  0.00    +0.000 A 
ATOM     18  C   UNL     1       5.862   5.256  16.866  0.00  0.00    +0.000 A 
ATOM     19  C   UNL     1       6.948   5.714  16.069  0.00  0.00    +0.000 A 
BRANCH  14  21
ATOM     20  C   UNL     1       8.067   5.491  12.612  0.00  0.00    +0.000 C 
ATOM     21  O   UNL     1       8.194   5.598  14.028  0.00  0.00    +0.000 OA
ENDBRANCH  14  21
BRANCH  19  22
ATOM     22  O   UNL     1       7.716   6.652  16.716  0.00  0.00    +0.000 OA
ATOM     23  C   UNL     1       7.583   6.825  18.122  0.00  0.00    +0.000 C 
ENDBRANCH  19  22
ENDBRANCH   1  17
TORSDOF 3
ENDMDL
MODEL 4
REMARK VINA RESULT:      -7.8      1.387      2.445
REMARK  Name = 
REMARK  5 active torsions:
REMARK  status: ('A' for Active; 'I' for Inactive)
REMARK    1  A    between atoms: C_1  and  O_2
REMARK    2  A    between atoms: O_2  and  C_3
REMARK    3  A    between atoms: C_6  and  C_7
REMARK    4  A    between atoms: C_21  and  O_22
REMARK    5  A    between atoms: O_22  and  C_23
REMARK                            x       y       z     vdW  Elec       q    Type
REMARK                         _______ _______ _______ _____ _____    ______ ____
ROOT
ATOM      1  C   UNL     1       3.415   5.798  17.937  0.00  0.00    +0.000 A 
ATOM      2  C   UNL     1       3.629   4.843  18.937  0.00  0.00    +0.000 A 
ATOM      3  C   UNL     1       4.935   4.667  19.414  0.00  0.00    +0.000 A 
ATOM      4  C   UNL     1       5.974   5.506  18.950  0.00  0.00    +0.000 A 
ATOM      5  C   UNL     1       5.718   6.365  17.875  0.00  0.00    +0.000 A 
ATOM      6  C   UNL     1       4.563   6.032  17.168  0.00  0.00    +0.000 A 
ATOM      7  N   UNL     1       5.121   5.215  16.110  0.00  0.00    +0.000 N 
ATOM      8  C   UNL     1       5.013   3.924  15.652  0.00  0.00    +0.000 A 
ATOM      9  C   UNL     1       6.193   3.641  14.952  0.00  0.00    +0.000 A 
ATOM     10  C   UNL     1       7.040   4.791  14.978  0.00  0.00    +0.000 A 
ATOM     11  C   UNL     1       6.410   5.610  15.868  0.00  0.00    +0.000 A 
ATOM     12  C   UNL     1       6.805   6.527  16.875  0.00  0.00    +0.000 C 
ATOM     13  O   UNL     1       7.833   7.158  17.017  0.00  0.00    +0.000 OA
ENDROOT
BRANCH   1  17
ATOM     14  C   UNL     1       1.378   9.539  19.164  0.00  0.00    +0.000 A 
ATOM     15  C   UNL     1       1.836   9.341  17.858  0.00  0.00    +0.000 A 
ATOM     16  C   UNL     1       2.394   8.112  17.450  0.00  0.00    +0.000 A 
ATOM     17  C   UNL     1       2.571   7.030  18.336  0.00  0.00    +0.000 A 
ATOM     18  C   UNL     1       2.096   7.260  19.649  0.00  0.00    +0.000 A 
ATOM     19  C   UNL     1       1.527   8.491  20.080  0.00  0.00    +0.000 A 
BRANCH  14  21
ATOM     20  C   UNL     1      -0.339  11.183  18.952  0.00  0.00    +0.000 C 
ATOM     21  O   UNL     1       0.859  10.735  19.581  0.00  0.00    +0.000 OA
ENDBRANCH  14  21
BRANCH  19  22
ATOM     22  O   UNL     1       1.204   8.481  21.416  0.00  0.00    +0.000 OA
ATOM     23  C   UNL     1      -0.162   8.506  21.812  0.00  0.00    +0.000 C 
ENDBRANCH  19  22
ENDBRANCH   1  17
TORSDOF 3
ENDMDL
MODEL 5
REMARK VINA RESULT:      -7.6      0.924      1.019
REMARK  Name = 
REMARK  5 active torsions:
REMARK  status: ('A' for Active; 'I' for Inactive)
REMARK    1  A    between atoms: C_1  and  O_2
REMARK    2  A    between atoms: O_2  and  C_3
REMARK    3  A    between atoms: C_6  and  C_7
REMARK    4  A    between atoms: C_21  and  O_22
REMARK    5  A    between atoms: O_22  and  C_23
REMARK                            x       y       z     vdW  Elec       q    Type
REMARK                         _______ _______ _______ _____ _____    ______ ____
ROOT
ATOM      1  C   UNL     1       3.242   5.750  17.909  0.00  0.00    +0.000 A 
ATOM      2  C   UNL     1       2.914   4.463  18.352  0.00  0.00    +0.000 A 
ATOM      3  C   UNL     1       3.933   3.677  18.907  0.00  0.00    +0.000 A 
ATOM      4  C   UNL     1       5.225   4.221  19.089  0.00  0.00    +0.000 A 
ATOM      5  C   UNL     1       5.515   5.470  18.528  0.00  0.00    +0.000 A 
ATOM      6  C   UNL     1       4.594   5.866  17.559  0.00  0.00    +0.000 A 
ATOM      7  N   UNL     1       5.255   5.406  16.355  0.00  0.00    +0.000 N 
ATOM      8  C   UNL     1       5.009   4.530  15.325  0.00  0.00    +0.000 A 
ATOM      9  C   UNL     1       6.253   4.168  14.794  0.00  0.00    +0.000 A 
ATOM     10  C   UNL     1       7.285   4.845  15.513  0.00  0.00    +0.000 A 
ATOM     11  C   UNL     1       6.610   5.399  16.560  0.00  0.00    +0.000 A 
ATOM     12  C   UNL     1       6.866   5.639  17.934  0.00  0.00    +0.000 C 
ATOM     13  O   UNL     1       7.913   5.767  18.536  0.00  0.00    +0.000 OA
ENDROOT
BRANCH   1  17
ATOM     14  C   UNL     1       1.045   8.949  20.052  0.00  0.00    +0.000 A 
ATOM     15  C   UNL     1       1.337   7.722  20.654  0.00  0.00    +0.000 A 
ATOM     16  C   UNL     1       2.120   6.748  20.003  0.00  0.00    +0.000 A 
ATOM     17  C   UNL     1       2.614   6.925  18.694  0.00  0.00    +0.000 A 
ATOM     18  C   UNL     1       2.305   8.177  18.112  0.00  0.00    +0.000 A 
ATOM     19  C   UNL     1       1.518   9.174  18.754  0.00  0.00    +0.000 A 
BRANCH  14  21
ATOM     20  C   UNL     1       0.928  10.920  21.393  0.00  0.00    +0.000 C 
ATOM     21  O   UNL     1       0.264   9.892  20.662  0.00  0.00    +0.000 OA
ENDBRANCH  14  21
BRANCH  19  22
ATOM     22  O   UNL     1       1.308  10.272  17.954  0.00  0.00    +0.000 OA
ATOM     23  C   UNL     1       2.192  11.385  18.035  0.00  0.00    +0.000 C 
ENDBRANCH  19  22
ENDBRANCH   1  17
TORSDOF 3
ENDMDL
MODEL 6
REMARK VINA RESULT:      -7.3      4.242      7.279
REMARK  Name = 
REMARK  5 active torsions:
REMARK  status: ('A' for Active; 'I' for Inactive)
REMARK    1  A    between atoms: C_1  and  O_2
REMARK    2  A    between atoms: O_2  and  C_3
REMARK    3  A    between atoms: C_6  and  C_7
REMARK    4  A    between atoms: C_21  and  O_22
REMARK    5  A    between atoms: O_22  and  C_23
REMARK                            x       y       z     vdW  Elec       q    Type
REMARK                         _______ _______ _______ _____ _____    ______ ____
ROOT
ATOM      1  C   UNL     1       4.086   4.749  16.816  0.00  0.00    +0.000 A 
ATOM      2  C   UNL     1       3.873   5.982  17.443  0.00  0.00    +0.000 A 
ATOM      3  C   UNL     1       4.068   6.060  18.829  0.00  0.00    +0.000 A 
ATOM      4  C   UNL     1       4.555   4.937  19.538  0.00  0.00    +0.000 A 
ATOM      5  C   UNL     1       4.644   3.709  18.874  0.00  0.00    +0.000 A 
ATOM      6  C   UNL     1       3.909   3.668  17.690  0.00  0.00    +0.000 A 
ATOM      7  N   UNL     1       2.670   3.085  18.162  0.00  0.00    +0.000 N 
ATOM      8  C   UNL     1       1.341   3.429  18.233  0.00  0.00    +0.000 A 
ATOM      9  C   UNL     1       0.778   2.664  19.263  0.00  0.00    +0.000 A 
ATOM     10  C   UNL     1       1.787   1.827  19.830  0.00  0.00    +0.000 A 
ATOM     11  C   UNL     1       2.930   2.296  19.252  0.00  0.00    +0.000 A 
ATOM     12  C   UNL     1       4.274   2.499  19.653  0.00  0.00    +0.000 C 
ATOM     13  O   UNL     1       4.930   1.971  20.529  0.00  0.00    +0.000 OA
ENDROOT
BRANCH   1  17
ATOM     14  C   UNL     1       7.347   4.904  13.818  0.00  0.00    +0.000 A 
ATOM     15  C   UNL     1       7.400   5.639  15.006  0.00  0.00    +0.000 A 
ATOM     16  C   UNL     1       6.408   5.509  15.998  0.00  0.00    +0.000 A 
ATOM     17  C   UNL     1       5.281   4.676  15.838  0.00  0.00    +0.000 A 
ATOM     18  C   UNL     1       5.257   3.945  14.628  0.00  0.00    +0.000 A 
ATOM     19  C   UNL     1       6.250   4.058  13.615  0.00  0.00    +0.000 A 
BRANCH  14  21
ATOM     20  C   UNL     1       8.106   6.096  11.894  0.00  0.00    +0.000 C 
ATOM     21  O   UNL     1       8.289   5.040  12.834  0.00  0.00    +0.000 OA
ENDBRANCH  14  21
BRANCH  19  22
ATOM     22  O   UNL     1       5.964   3.292  12.510  0.00  0.00    +0.000 OA
ATOM     23  C   UNL     1       4.674   3.368  11.912  0.00  0.00    +0.000 C 
ENDBRANCH  19  22
ENDBRANCH   1  17
TORSDOF 3
ENDMDL
MODEL 7
REMARK VINA RESULT:      -7.1      3.867      6.594
REMARK  Name = 
REMARK  5 active torsions:
REMARK  status: ('A' for Active; 'I' for Inactive)
REMARK    1  A    between atoms: C_1  and  O_2
REMARK    2  A    between atoms: O_2  and  C_3
REMARK    3  A    between atoms: C_6  and  C_7
REMARK    4  A    between atoms: C_21  and  O_22
REMARK    5  A    between atoms: O_22  and  C_23
REMARK                            x       y       z     vdW  Elec       q    Type
REMARK                         _______ _______ _______ _____ _____    ______ ____
ROOT
ATOM      1  C   UNL     1       3.526   5.071  17.265  0.00  0.00    +0.000 A 
ATOM      2  C   UNL     1       3.124   6.171  18.031  0.00  0.00    +0.000 A 
ATOM      3  C   UNL     1       3.298   6.107  19.421  0.00  0.00    +0.000 A 
ATOM      4  C   UNL     1       3.950   4.993  19.999  0.00  0.00    +0.000 A 
ATOM      5  C   UNL     1       4.230   3.883  19.194  0.00  0.00    +0.000 A 
ATOM      6  C   UNL     1       3.514   3.876  17.997  0.00  0.00    +0.000 A 
ATOM      7  N   UNL     1       2.378   3.059  18.367  0.00  0.00    +0.000 N 
ATOM      8  C   UNL     1       1.012   3.184  18.449  0.00  0.00    +0.000 A 
ATOM      9  C   UNL     1       0.570   2.221  19.365  0.00  0.00    +0.000 A 
ATOM     10  C   UNL     1       1.693   1.485  19.850  0.00  0.00    +0.000 A 
ATOM     11  C   UNL     1       2.752   2.190  19.359  0.00  0.00    +0.000 A 
ATOM     12  C   UNL     1       4.047   2.545  19.813  0.00  0.00    +0.000 C 
ATOM     13  O   UNL     1       4.773   2.020  20.634  0.00  0.00    +0.000 OA
ENDROOT
BRANCH   1  17
ATOM     14  C   UNL     1       7.141   5.374  14.717  0.00  0.00    +0.000 A 
ATOM     15  C   UNL     1       6.058   4.562  14.368  0.00  0.00    +0.000 A 
ATOM     16  C   UNL     1       4.872   4.546  15.132  0.00  0.00    +0.000 A 
ATOM     17  C   UNL     1       4.723   5.302  16.313  0.00  0.00    +0.000 A 
ATOM     18  C   UNL     1       5.834   6.115  16.637  0.00  0.00    +0.000 A 
ATOM     19  C   UNL     1       7.037   6.148  15.879  0.00  0.00    +0.000 A 
BRANCH  14  21
ATOM     20  C   UNL     1       8.213   5.621  12.599  0.00  0.00    +0.000 C 
ATOM     21  O   UNL     1       8.307   5.379  14.000  0.00  0.00    +0.000 OA
ENDBRANCH  14  21
BRANCH  19  22
ATOM     22  O   UNL     1       7.989   6.968  16.438  0.00  0.00    +0.000 OA
ATOM     23  C   UNL     1       7.644   7.802  17.538  0.00  0.00    +0.000 C 
ENDBRANCH  19  22
ENDBRANCH   1  17
TORSDOF 3
ENDMDL
MODEL 8
REMARK VINA RESULT:      -7.0      3.650      5.234
REMARK  Name = 
REMARK  5 active torsions:
REMARK  status: ('A' for Active; 'I' for Inactive)
REMARK    1  A    between atoms: C_1  and  O_2
REMARK    2  A    between atoms: O_2  and  C_3
REMARK    3  A    between atoms: C_6  and  C_7
REMARK    4  A    between atoms: C_21  and  O_22
REMARK    5  A    between atoms: O_22  and  C_23
REMARK                            x       y       z     vdW  Elec       q    Type
REMARK                         _______ _______ _______ _____ _____    ______ ____
ROOT
ATOM      1  C   UNL     1       4.995   5.886  16.850  0.00  0.00    +0.000 A 
ATOM      2  C   UNL     1       5.541   5.506  15.618  0.00  0.00    +0.000 A 
ATOM      3  C   UNL     1       6.822   4.936  15.612  0.00  0.00    +0.000 A 
ATOM      4  C   UNL     1       7.485   4.676  16.834  0.00  0.00    +0.000 A 
ATOM      5  C   UNL     1       6.934   5.176  18.018  0.00  0.00    +0.000 A 
ATOM      6  C   UNL     1       5.979   6.171  17.806  0.00  0.00    +0.000 A 
ATOM      7  N   UNL     1       6.796   7.359  17.930  0.00  0.00    +0.000 N 
ATOM      8  C   UNL     1       7.166   8.431  17.154  0.00  0.00    +0.000 A 
ATOM      9  C   UNL     1       8.368   8.920  17.681  0.00  0.00    +0.000 A 
ATOM     10  C   UNL     1       8.739   8.130  18.813  0.00  0.00    +0.000 A 
ATOM     11  C   UNL     1       7.853   7.094  18.761  0.00  0.00    +0.000 A 
ATOM     12  C   UNL     1       7.887   5.703  19.029  0.00  0.00    +0.000 C 
ATOM     13  O   UNL     1       8.615   5.050  19.749  0.00  0.00    +0.000 OA
ENDROOT
BRANCH   1  17
ATOM     14  C   UNL     1       1.628   3.611  18.622  0.00  0.00    +0.000 A 
ATOM     15  C   UNL     1       1.655   5.009  18.620  0.00  0.00    +0.000 A 
ATOM     16  C   UNL     1       2.680   5.726  17.968  0.00  0.00    +0.000 A 
ATOM     17  C   UNL     1       3.760   5.086  17.326  0.00  0.00    +0.000 A 
ATOM     18  C   UNL     1       3.703   3.673  17.343  0.00  0.00    +0.000 A 
ATOM     19  C   UNL     1       2.677   2.931  17.992  0.00  0.00    +0.000 A 
BRANCH  14  21
ATOM     20  C   UNL     1       0.802   2.731  20.681  0.00  0.00    +0.000 C 
ATOM     21  O   UNL     1       0.655   2.903  19.273  0.00  0.00    +0.000 OA
ENDBRANCH  14  21
BRANCH  19  22
ATOM     22  O   UNL     1       2.884   1.574  17.920  0.00  0.00    +0.000 OA
ATOM     23  C   UNL     1       3.967   0.986  18.631  0.00  0.00    +0.000 C 
ENDBRANCH  19  22
ENDBRANCH   1  17
TORSDOF 3
ENDMDL
MODEL 9
REMARK VINA RESULT:      -7.0      3.623      7.734
REMARK  Name = 
REMARK  5 active torsions:
REMARK  status: ('A' for Active; 'I' for Inactive)
REMARK    1  A    between atoms: C_1  and  O_2
REMARK    2  A    between atoms: O_2  and  C_3
REMARK    3  A    between atoms: C_6  and  C_7
REMARK    4  A    between atoms: C_21  and  O_22
REMARK    5  A    between atoms: O_22  and  C_23
REMARK                            x       y       z     vdW  Elec       q    Type
REMARK                         _______ _______ _______ _____ _____    ______ ____
ROOT
ATOM      1  C   UNL     1       5.178   5.631  16.091  0.00  0.00    +0.000 A 
ATOM      2  C   UNL     1       5.960   6.691  16.562  0.00  0.00    +0.000 A 
ATOM      3  C   UNL     1       6.533   6.574  17.837  0.00  0.00    +0.000 A 
ATOM      4  C   UNL     1       6.387   5.371  18.567  0.00  0.00    +0.000 A 
ATOM      5  C   UNL     1       5.507   4.395  18.088  0.00  0.00    +0.000 A 
ATOM      6  C   UNL     1       4.616   4.878  17.130  0.00  0.00    +0.000 A 
ATOM      7  N   UNL     1       3.475   5.200  17.961  0.00  0.00    +0.000 N 
ATOM      8  C   UNL     1       2.733   6.309  18.293  0.00  0.00    +0.000 A 
ATOM      9  C   UNL     1       2.128   6.038  19.527  0.00  0.00    +0.000 A 
ATOM     10  C   UNL     1       2.504   4.729  19.957  0.00  0.00    +0.000 A 
ATOM     11  C   UNL     1       3.475   4.385  19.063  0.00  0.00    +0.000 A 
ATOM     12  C   UNL     1       4.698   3.669  19.102  0.00  0.00    +0.000 C 
ATOM     13  O   UNL     1       5.092   2.811  19.866  0.00  0.00    +0.000 OA
ENDROOT
BRANCH   1  17
ATOM     14  C   UNL     1       6.739   3.768  12.383  0.00  0.00    +0.000 A 
ATOM     15  C   UNL     1       7.560   4.504  13.243  0.00  0.00    +0.000 A 
ATOM     16  C   UNL     1       7.080   5.009  14.469  0.00  0.00    +0.000 A 
ATOM     17  C   UNL     1       5.741   4.851  14.880  0.00  0.00    +0.000 A 
ATOM     18  C   UNL     1       4.936   4.102  13.990  0.00  0.00    +0.000 A 
ATOM     19  C   UNL     1       5.401   3.581  12.751  0.00  0.00    +0.000 A 
BRANCH  14  21
ATOM     20  C   UNL     1       7.420   1.893  11.073  0.00  0.00    +0.000 C 
ATOM     21  O   UNL     1       7.184   3.295  11.179  0.00  0.00    +0.000 OA
ENDBRANCH  14  21
BRANCH  19  22
ATOM     22  O   UNL     1       4.409   2.946  12.041  0.00  0.00    +0.000 OA
ATOM     23  C   UNL     1       3.791   3.610  10.945  0.00  0.00    +0.000 C 
ENDBRANCH  19  22
ENDBRANCH   1  17
TORSDOF 3
ENDMDL
