MODEL 1
REMARK VINA RESULT:      -8.6      0.000      0.000
REMARK  Name = 
REMARK  7 active torsions:
REMARK  status: ('A' for Active; 'I' for Inactive)
REMARK    1  A    between atoms: N_11  and  C_12
REMARK    2  A    between atoms: C_12  and  C_13
REMARK    3  A    between atoms: C_13  and  C_14
REMARK    4  A    between atoms: C_14  and  C_15
REMARK    5  A    between atoms: C_15  and  N_16
REMARK    6  A    between atoms: N_19  and  C_20
REMARK    7  A    between atoms: C_24  and  C_25
REMARK                            x       y       z     vdW  Elec       q    Type
REMARK                         _______ _______ _______ _____ _____    ______ ____
ROOT
ATOM      1  N   UNL     1       7.376   6.820  17.084  0.00  0.00    +0.000 NA
ATOM      2  C   UNL     1       7.517   5.836  18.184  0.00  0.00    +0.000 C 
ATOM      3  C   UNL     1       6.296   5.649  19.125  0.00  0.00    +0.000 C 
ATOM      4  N   UNL     1       4.986   5.684  18.443  0.00  0.00    +0.000 N 
ATOM      5  C   UNL     1       4.866   6.575  17.273  0.00  0.00    +0.000 C 
ATOM      6  C   UNL     1       6.118   6.476  16.375  0.00  0.00    +0.000 C 
ENDROOT
BRANCH   4   7
ATOM      7  C   UNL     1       4.127   4.594  18.393  0.00  0.00    +0.000 A 
ATOM      8  C   UNL     1       4.483   3.495  17.588  0.00  0.00    +0.000 A 
ATOM      9  C   UNL     1       3.749   2.310  17.592  0.00  0.00    +0.000 A 
ATOM     10  C   UNL     1       2.627   2.204  18.403  0.00  0.00    +0.000 A 
ATOM     11  C   UNL     1       2.223   3.289  19.192  0.00  0.00    +0.000 A 
ATOM     12  C   UNL     1       2.971   4.485  19.165  0.00  0.00    +0.000 A 
BRANCH  11  13
ATOM     13  C   UNL     1       1.022   3.183  20.097  0.00  0.00    +0.000 C 
ATOM     14  F   UNL     1      -0.022   2.507  19.540  0.00  0.00    +0.000 F 
ATOM     15  F   UNL     1       1.302   2.535  21.263  0.00  0.00    +0.000 F 
ATOM     16  F   UNL     1       0.530   4.397  20.454  0.00  0.00    +0.000 F 
ENDBRANCH  11  13
ENDBRANCH   4   7
BRANCH   1  17
ATOM     17  C   UNL     1       7.329   8.222  17.528  0.00  0.00    +0.000 C 
BRANCH  17  18
ATOM     18  C   UNL     1       8.490   8.699  18.405  0.00  0.00    +0.000 C 
BRANCH  18  19
ATOM     19  C   UNL     1       8.841  10.179  18.287  0.00  0.00    +0.000 C 
BRANCH  19  20
ATOM     20  C   UNL     1      10.028  10.619  19.157  0.00  0.00    +0.000 C 
BRANCH  20  31
ATOM     21  O   UNL     1      10.823  13.135  17.924  0.00  0.00    +0.000 OA
ATOM     22  C   UNL     1      10.154  13.093  18.946  0.00  0.00    +0.000 C 
ATOM     23  C   UNL     1       9.506  14.297  19.598  0.00  0.00    +0.000 C 
ATOM     24  C   UNL     1      10.471  15.467  19.764  0.00  0.00    +0.000 C 
ATOM     25  C   UNL     1      10.859  15.797  21.167  0.00  0.00    +0.000 C 
ATOM     26  C   UNL     1      10.261  15.294  22.249  0.00  0.00    +0.000 C 
ATOM     27  C   UNL     1       9.123  14.331  22.205  0.00  0.00    +0.000 C 
ATOM     28  C   UNL     1       8.820  13.726  20.840  0.00  0.00    +0.000 C 
ATOM     29  C   UNL     1       9.141  12.250  20.795  0.00  0.00    +0.000 C 
ATOM     30  O   UNL     1       8.799  11.441  21.646  0.00  0.00    +0.000 OA
ATOM     31  N   UNL     1       9.803  11.975  19.637  0.00  0.00    +0.000 N 
ENDBRANCH  20  31
ENDBRANCH  19  20
ENDBRANCH  18  19
ENDBRANCH  17  18
ENDBRANCH   1  17
TORSDOF 7
ENDMDL
MODEL 2
REMARK VINA RESULT:      -8.5      0.894      2.019
REMARK  Name = 
REMARK  7 active torsions:
REMARK  status: ('A' for Active; 'I' for Inactive)
REMARK    1  A    between atoms: N_11  and  C_12
REMARK    2  A    between atoms: C_12  and  C_13
REMARK    3  A    between atoms: C_13  and  C_14
REMARK    4  A    between atoms: C_14  and  C_15
REMARK    5  A    between atoms: C_15  and  N_16
REMARK    6  A    between atoms: N_19  and  C_20
REMARK    7  A    between atoms: C_24  and  C_25
REMARK                            x       y       z     vdW  Elec       q    Type
REMARK                         _______ _______ _______ _____ _____    ______ ____
ROOT
ATOM      1  N   UNL     1       7.413   6.665  17.067  0.00  0.00    +0.000 NA
ATOM      2  C   UNL     1       7.522   5.703  18.190  0.00  0.00    +0.000 C 
ATOM      3  C   UNL     1       6.294   5.571  19.131  0.00  0.00    +0.000 C 
ATOM      4  N   UNL     1       4.987   5.628  18.443  0.00  0.00    +0.000 N 
ATOM      5  C   UNL     1       4.896   6.495  17.253  0.00  0.00    +0.000 C 
ATOM      6  C   UNL     1       6.147   6.341  16.362  0.00  0.00    +0.000 C 
ENDROOT
BRANCH   4   7
ATOM      7  C   UNL     1       4.098   4.562  18.415  0.00  0.00    +0.000 A 
ATOM      8  C   UNL     1       4.406   3.452  17.605  0.00  0.00    +0.000 A 
ATOM      9  C   UNL     1       3.640   2.288  17.628  0.00  0.00    +0.000 A 
ATOM     10  C   UNL     1       2.534   2.214  18.465  0.00  0.00    +0.000 A 
ATOM     11  C   UNL     1       2.178   3.311  19.260  0.00  0.00    +0.000 A 
ATOM     12  C   UNL     1       2.957   4.486  19.214  0.00  0.00    +0.000 A 
BRANCH  11  13
ATOM     13  C   UNL     1       0.995   3.239  20.192  0.00  0.00    +0.000 C 
ATOM     14  F   UNL     1       1.262   2.598  21.364  0.00  0.00    +0.000 F 
ATOM     15  F   UNL     1       0.532   4.472  20.543  0.00  0.00    +0.000 F 
ATOM     16  F   UNL     1      -0.062   2.587  19.643  0.00  0.00    +0.000 F 
ENDBRANCH  11  13
ENDBRANCH   4   7
BRANCH   1  17
ATOM     17  C   UNL     1       7.404   8.078  17.479  0.00  0.00    +0.000 C 
BRANCH  17  18
ATOM     18  C   UNL     1       8.649   8.581  18.214  0.00  0.00    +0.000 C 
BRANCH  18  19
ATOM     19  C   UNL     1       8.632  10.054  18.609  0.00  0.00    +0.000 C 
BRANCH  19  20
ATOM     20  C   UNL     1       9.473  10.387  19.850  0.00  0.00    +0.000 C 
BRANCH  20  31
ATOM     21  O   UNL     1       9.554  12.598  21.744  0.00  0.00    +0.000 OA
ATOM     22  C   UNL     1      10.129  12.642  20.666  0.00  0.00    +0.000 C 
ATOM     23  C   UNL     1      11.087  13.738  20.248  0.00  0.00    +0.000 C 
ATOM     24  C   UNL     1      10.525  15.136  20.492  0.00  0.00    +0.000 C 
ATOM     25  C   UNL     1      10.194  15.927  19.270  0.00  0.00    +0.000 C 
ATOM     26  C   UNL     1      10.556  15.583  18.032  0.00  0.00    +0.000 C 
ATOM     27  C   UNL     1      11.341  14.359  17.699  0.00  0.00    +0.000 C 
ATOM     28  C   UNL     1      11.505  13.349  18.829  0.00  0.00    +0.000 C 
ATOM     29  C   UNL     1      10.744  12.073  18.556  0.00  0.00    +0.000 C 
ATOM     30  O   UNL     1      10.779  11.458  17.499  0.00  0.00    +0.000 OA
ATOM     31  N   UNL     1      10.084  11.699  19.687  0.00  0.00    +0.000 N 
ENDBRANCH  20  31
ENDBRANCH  19  20
ENDBRANCH  18  19
ENDBRANCH  17  18
ENDBRANCH   1  17
TORSDOF 7
ENDMDL
MODEL 3
REMARK VINA RESULT:      -8.5      6.728      9.812
REMARK  Name = 
REMARK  7 active torsions:
REMARK  status: ('A' for Active; 'I' for Inactive)
REMARK    1  A    between atoms: N_11  and  C_12
REMARK    2  A    between atoms: C_12  and  C_13
REMARK    3  A    between atoms: C_13  and  C_14
REMARK    4  A    between atoms: C_14  and  C_15
REMARK    5  A    between atoms: C_15  and  N_16
REMARK    6  A    between atoms: N_19  and  C_20
REMARK    7  A    between atoms: C_24  and  C_25
REMARK                            x       y       z     vdW  Elec       q    Type
REMARK                         _______ _______ _______ _____ _____    ______ ____
ROOT
ATOM      1  N   UNL     1       2.418   6.495  18.882  0.00  0.00    +0.000 NA
ATOM      2  C   UNL     1       1.780   7.072  20.090  0.00  0.00    +0.000 C 
ATOM      3  C   UNL     1       1.781   8.619  20.219  0.00  0.00    +0.000 C 
ATOM      4  N   UNL     1       1.551   9.340  18.950  0.00  0.00    +0.000 N 
ATOM      5  C   UNL     1       2.082   8.718  17.723  0.00  0.00    +0.000 C 
ATOM      6  C   UNL     1       1.819   7.197  17.719  0.00  0.00    +0.000 C 
ENDROOT
BRANCH   4   7
ATOM      7  C   UNL     1       0.438  10.139  18.723  0.00  0.00    +0.000 A 
ATOM      8  C   UNL     1       0.535  11.518  18.993  0.00  0.00    +0.000 A 
ATOM      9  C   UNL     1      -0.485  12.407  18.661  0.00  0.00    +0.000 A 
ATOM     10  C   UNL     1      -1.639  11.928  18.055  0.00  0.00    +0.000 A 
ATOM     11  C   UNL     1      -1.785  10.558  17.802  0.00  0.00    +0.000 A 
ATOM     12  C   UNL     1      -0.747   9.671  18.157  0.00  0.00    +0.000 A 
BRANCH  11  13
ATOM     13  C   UNL     1      -3.020  10.023  17.123  0.00  0.00    +0.000 C 
ATOM     14  F   UNL     1      -3.685   9.088  17.858  0.00  0.00    +0.000 F 
ATOM     15  F   UNL     1      -3.933  10.999  16.856  0.00  0.00    +0.000 F 
ATOM     16  F   UNL     1      -2.746   9.433  15.931  0.00  0.00    +0.000 F 
ENDBRANCH  11  13
ENDBRANCH   4   7
BRANCH   1  17
ATOM     17  C   UNL     1       3.883   6.634  18.846  0.00  0.00    +0.000 C 
BRANCH  17  18
ATOM     18  C   UNL     1       4.555   6.405  17.491  0.00  0.00    +0.000 C 
BRANCH  18  19
ATOM     19  C   UNL     1       5.561   5.259  17.438  0.00  0.00    +0.000 C 
BRANCH  19  20
ATOM     20  C   UNL     1       4.993   3.942  16.892  0.00  0.00    +0.000 C 
BRANCH  20  31
ATOM     21  O   UNL     1       2.153   3.449  16.481  0.00  0.00    +0.000 OA
ATOM     22  C   UNL     1       2.723   3.143  17.518  0.00  0.00    +0.000 C 
ATOM     23  C   UNL     1       2.102   2.324  18.630  0.00  0.00    +0.000 C 
ATOM     24  C   UNL     1       0.722   2.832  19.035  0.00  0.00    +0.000 C 
ATOM     25  C   UNL     1       0.626   3.451  20.390  0.00  0.00    +0.000 C 
ATOM     26  C   UNL     1       1.587   3.384  21.315  0.00  0.00    +0.000 C 
ATOM     27  C   UNL     1       2.889   2.682  21.121  0.00  0.00    +0.000 C 
ATOM     28  C   UNL     1       3.199   2.245  19.694  0.00  0.00    +0.000 C 
ATOM     29  C   UNL     1       4.346   3.031  19.102  0.00  0.00    +0.000 C 
ATOM     30  O   UNL     1       5.410   3.237  19.669  0.00  0.00    +0.000 OA
ATOM     31  N   UNL     1       4.021   3.403  17.833  0.00  0.00    +0.000 N 
ENDBRANCH  20  31
ENDBRANCH  19  20
ENDBRANCH  18  19
ENDBRANCH  17  18
ENDBRANCH   1  17
TORSDOF 7
ENDMDL
MODEL 4
REMARK VINA RESULT:      -8.4      1.020      1.675
REMARK  Name = 
REMARK  7 active torsions:
REMARK  status: ('A' for Active; 'I' for Inactive)
REMARK    1  A    between atoms: N_11  and  C_12
REMARK    2  A    between atoms: C_12  and  C_13
REMARK    3  A    between atoms: C_13  and  C_14
REMARK    4  A    between atoms: C_14  and  C_15
REMARK    5  A    between atoms: C_15  and  N_16
REMARK    6  A    between atoms: N_19  and  C_20
REMARK    7  A    between atoms: C_24  and  C_25
REMARK                            x       y       z     vdW  Elec       q    Type
REMARK                         _______ _______ _______ _____ _____    ______ ____
ROOT
ATOM      1  N   UNL     1       7.064   6.918  16.906  0.00  0.00    +0.000 NA
ATOM      2  C   UNL     1       7.400   5.789  17.805  0.00  0.00    +0.000 C 
ATOM      3  C   UNL     1       6.393   5.466  18.942  0.00  0.00    +0.000 C 
ATOM      4  N   UNL     1       4.972   5.593  18.556  0.00  0.00    +0.000 N 
ATOM      5  C   UNL     1       4.639   6.641  17.572  0.00  0.00    +0.000 C 
ATOM      6  C   UNL     1       5.678   6.674  16.431  0.00  0.00    +0.000 C 
ENDROOT
BRANCH   4   7
ATOM      7  C   UNL     1       4.093   4.519  18.532  0.00  0.00    +0.000 A 
ATOM      8  C   UNL     1       4.444   3.380  17.783  0.00  0.00    +0.000 A 
ATOM      9  C   UNL     1       3.687   2.211  17.820  0.00  0.00    +0.000 A 
ATOM     10  C   UNL     1       2.546   2.161  18.610  0.00  0.00    +0.000 A 
ATOM     11  C   UNL     1       2.147   3.286  19.344  0.00  0.00    +0.000 A 
ATOM     12  C   UNL     1       2.918   4.465  19.283  0.00  0.00    +0.000 A 
BRANCH  11  13
ATOM     13  C   UNL     1       0.925   3.242  20.225  0.00  0.00    +0.000 C 
ATOM     14  F   UNL     1       0.451   4.474  20.563  0.00  0.00    +0.000 F 
ATOM     15  F   UNL     1      -0.120   2.593  19.637  0.00  0.00    +0.000 F 
ATOM     16  F   UNL     1       1.151   2.596  21.398  0.00  0.00    +0.000 F 
ENDBRANCH  11  13
ENDBRANCH   4   7
BRANCH   1  17
ATOM     17  C   UNL     1       7.145   8.243  17.541  0.00  0.00    +0.000 C 
BRANCH  17  18
ATOM     18  C   UNL     1       8.545   8.734  17.914  0.00  0.00    +0.000 C 
BRANCH  18  19
ATOM     19  C   UNL     1       8.604  10.081  18.631  0.00  0.00    +0.000 C 
BRANCH  19  20
ATOM     20  C   UNL     1       9.688  11.032  18.105  0.00  0.00    +0.000 C 
BRANCH  20  31
ATOM     21  O   UNL     1      11.114  11.792  20.528  0.00  0.00    +0.000 OA
ATOM     22  C   UNL     1      10.394  12.574  19.923  0.00  0.00    +0.000 C 
ATOM     23  C   UNL     1      10.285  14.052  20.229  0.00  0.00    +0.000 C 
ATOM     24  C   UNL     1      10.071  14.333  21.714  0.00  0.00    +0.000 C 
ATOM     25  C   UNL     1       8.732  14.874  22.089  0.00  0.00    +0.000 C 
ATOM     26  C   UNL     1       7.829  15.318  21.211  0.00  0.00    +0.000 C 
ATOM     27  C   UNL     1       8.036  15.334  19.733  0.00  0.00    +0.000 C 
ATOM     28  C   UNL     1       9.251  14.567  19.226  0.00  0.00    +0.000 C 
ATOM     29  C   UNL     1       8.853  13.338  18.442  0.00  0.00    +0.000 C 
ATOM     30  O   UNL     1       8.008  13.324  17.558  0.00  0.00    +0.000 OA
ATOM     31  N   UNL     1       9.628  12.290  18.835  0.00  0.00    +0.000 N 
ENDBRANCH  20  31
ENDBRANCH  19  20
ENDBRANCH  18  19
ENDBRANCH  17  18
ENDBRANCH   1  17
TORSDOF 7
ENDMDL
MODEL 5
REMARK VINA RESULT:      -8.4      6.656      9.872
REMARK  Name = 
REMARK  7 active torsions:
REMARK  status: ('A' for Active; 'I' for Inactive)
REMARK    1  A    between atoms: N_11  and  C_12
REMARK    2  A    between atoms: C_12  and  C_13
REMARK    3  A    between atoms: C_13  and  C_14
REMARK    4  A    between atoms: C_14  and  C_15
REMARK    5  A    between atoms: C_15  and  N_16
REMARK    6  A    between atoms: N_19  and  C_20
REMARK    7  A    between atoms: C_24  and  C_25
REMARK                            x       y       z     vdW  Elec       q    Type
REMARK                         _______ _______ _______ _____ _____    ______ ____
ROOT
ATOM      1  N   UNL     1       2.757   6.880  18.175  0.00  0.00    +0.000 NA
ATOM      2  C   UNL     1       2.078   6.860  19.492  0.00  0.00    +0.000 C 
ATOM      3  C   UNL     1       1.861   8.226  20.197  0.00  0.00    +0.000 C 
ATOM      4  N   UNL     1       1.494   9.333  19.289  0.00  0.00    +0.000 N 
ATOM      5  C   UNL     1       2.075   9.303  17.933  0.00  0.00    +0.000 C 
ATOM      6  C   UNL     1       2.033   7.877  17.346  0.00  0.00    +0.000 C 
ENDROOT
BRANCH   4   7
ATOM      7  C   UNL     1       0.273   9.990  19.349  0.00  0.00    +0.000 A 
ATOM      8  C   UNL     1       0.016  10.831  20.448  0.00  0.00    +0.000 A 
ATOM      9  C   UNL     1      -1.123  11.632  20.514  0.00  0.00    +0.000 A 
ATOM     10  C   UNL     1      -2.041  11.601  19.473  0.00  0.00    +0.000 A 
ATOM     11  C   UNL     1      -1.835  10.751  18.377  0.00  0.00    +0.000 A 
ATOM     12  C   UNL     1      -0.684   9.938  18.335  0.00  0.00    +0.000 A 
BRANCH  11  13
ATOM     13  C   UNL     1      -2.809  10.722  17.227  0.00  0.00    +0.000 C 
ATOM     14  F   UNL     1      -2.378  11.407  16.131  0.00  0.00    +0.000 F 
ATOM     15  F   UNL     1      -3.068   9.457  16.794  0.00  0.00    +0.000 F 
ATOM     16  F   UNL     1      -4.014  11.259  17.551  0.00  0.00    +0.000 F 
ENDBRANCH  11  13
ENDBRANCH   4   7
BRANCH   1  17
ATOM     17  C   UNL     1       4.186   7.231  18.236  0.00  0.00    +0.000 C 
BRANCH  17  18
ATOM     18  C   UNL     1       5.173   6.140  17.816  0.00  0.00    +0.000 C 
BRANCH  18  19
ATOM     19  C   UNL     1       4.745   5.284  16.628  0.00  0.00    +0.000 C 
BRANCH  19  20
ATOM     20  C   UNL     1       4.939   3.774  16.831  0.00  0.00    +0.000 C 
BRANCH  20  31
ATOM     21  O   UNL     1       2.085   3.301  16.496  0.00  0.00    +0.000 OA
ATOM     22  C   UNL     1       2.673   3.031  17.534  0.00  0.00    +0.000 C 
ATOM     23  C   UNL     1       2.064   2.267  18.690  0.00  0.00    +0.000 C 
ATOM     24  C   UNL     1       0.698   2.809  19.100  0.00  0.00    +0.000 C 
ATOM     25  C   UNL     1       0.637   3.483  20.430  0.00  0.00    +0.000 C 
ATOM     26  C   UNL     1       1.615   3.443  21.338  0.00  0.00    +0.000 C 
ATOM     27  C   UNL     1       2.904   2.717  21.148  0.00  0.00    +0.000 C 
ATOM     28  C   UNL     1       3.181   2.218  19.735  0.00  0.00    +0.000 C 
ATOM     29  C   UNL     1       4.325   2.964  19.089  0.00  0.00    +0.000 C 
ATOM     30  O   UNL     1       5.402   3.179  19.626  0.00  0.00    +0.000 OA
ATOM     31  N   UNL     1       3.979   3.288  17.812  0.00  0.00    +0.000 N 
ENDBRANCH  20  31
ENDBRANCH  19  20
ENDBRANCH  18  19
ENDBRANCH  17  18
ENDBRANCH   1  17
TORSDOF 7
ENDMDL
MODEL 6
REMARK VINA RESULT:      -8.4      1.206      1.450
REMARK  Name = 
REMARK  7 active torsions:
REMARK  status: ('A' for Active; 'I' for Inactive)
REMARK    1  A    between atoms: N_11  and  C_12
REMARK    2  A    between atoms: C_12  and  C_13
REMARK    3  A    between atoms: C_13  and  C_14
REMARK    4  A    between atoms: C_14  and  C_15
REMARK    5  A    between atoms: C_15  and  N_16
REMARK    6  A    between atoms: N_19  and  C_20
REMARK    7  A    between atoms: C_24  and  C_25
REMARK                            x       y       z     vdW  Elec       q    Type
REMARK                         _______ _______ _______ _____ _____    ______ ____
ROOT
ATOM      1  N   UNL     1       7.529   6.495  16.884  0.00  0.00    +0.000 NA
ATOM      2  C   UNL     1       7.689   5.615  18.066  0.00  0.00    +0.000 C 
ATOM      3  C   UNL     1       6.528   5.597  19.097  0.00  0.00    +0.000 C 
ATOM      4  N   UNL     1       5.178   5.650  18.499  0.00  0.00    +0.000 N 
ATOM      5  C   UNL     1       5.028   6.430  17.256  0.00  0.00    +0.000 C 
ATOM      6  C   UNL     1       6.206   6.166  16.295  0.00  0.00    +0.000 C 
ENDROOT
BRANCH   4   7
ATOM      7  C   UNL     1       4.257   4.617  18.614  0.00  0.00    +0.000 A 
ATOM      8  C   UNL     1       4.311   3.563  17.683  0.00  0.00    +0.000 A 
ATOM      9  C   UNL     1       3.517   2.424  17.811  0.00  0.00    +0.000 A 
ATOM     10  C   UNL     1       2.637   2.322  18.880  0.00  0.00    +0.000 A 
ATOM     11  C   UNL     1       2.532   3.367  19.808  0.00  0.00    +0.000 A 
ATOM     12  C   UNL     1       3.333   4.517  19.655  0.00  0.00    +0.000 A 
BRANCH  11  13
ATOM     13  C   UNL     1       1.599   3.262  20.988  0.00  0.00    +0.000 C 
ATOM     14  F   UNL     1       1.147   1.997  21.215  0.00  0.00    +0.000 F 
ATOM     15  F   UNL     1       2.184   3.659  22.153  0.00  0.00    +0.000 F 
ATOM     16  F   UNL     1       0.490   4.034  20.846  0.00  0.00    +0.000 F 
ENDBRANCH  11  13
ENDBRANCH   4   7
BRANCH   1  17
ATOM     17  C   UNL     1       7.593   7.934  17.187  0.00  0.00    +0.000 C 
BRANCH  17  18
ATOM     18  C   UNL     1       8.492   8.344  18.357  0.00  0.00    +0.000 C 
BRANCH  18  19
ATOM     19  C   UNL     1       8.485   9.830  18.705  0.00  0.00    +0.000 C 
BRANCH  19  20
ATOM     20  C   UNL     1       9.654  10.626  18.108  0.00  0.00    +0.000 C 
BRANCH  20  31
ATOM     21  O   UNL     1       8.073  12.889  17.183  0.00  0.00    +0.000 OA
ATOM     22  C   UNL     1       8.797  12.959  18.165  0.00  0.00    +0.000 C 
ATOM     23  C   UNL     1       8.838  14.134  19.119  0.00  0.00    +0.000 C 
ATOM     24  C   UNL     1       8.960  15.474  18.400  0.00  0.00    +0.000 C 
ATOM     25  C   UNL     1      10.258  16.191  18.573  0.00  0.00    +0.000 C 
ATOM     26  C   UNL     1      11.191  15.848  19.464  0.00  0.00    +0.000 C 
ATOM     27  C   UNL     1      11.066  14.701  20.410  0.00  0.00    +0.000 C 
ATOM     28  C   UNL     1       9.907  13.747  20.143  0.00  0.00    +0.000 C 
ATOM     29  C   UNL     1      10.390  12.392  19.680  0.00  0.00    +0.000 C 
ATOM     30  O   UNL     1      11.282  11.753  20.220  0.00  0.00    +0.000 OA
ATOM     31  N   UNL     1       9.630  11.987  18.625  0.00  0.00    +0.000 N 
ENDBRANCH  20  31
ENDBRANCH  19  20
ENDBRANCH  18  19
ENDBRANCH  17  18
ENDBRANCH   1  17
TORSDOF 7
ENDMDL
MODEL 7
REMARK VINA RESULT:      -8.2      0.956      1.223
REMARK  Name = 
REMARK  7 active torsions:
REMARK  status: ('A' for Active; 'I' for Inactive)
REMARK    1  A    between atoms: N_11  and  C_12
REMARK    2  A    between atoms: C_12  and  C_13
REMARK    3  A    between atoms: C_13  and  C_14
REMARK    4  A    between atoms: C_14  and  C_15
REMARK    5  A    between atoms: C_15  and  N_16
REMARK    6  A    between atoms: N_19  and  C_20
REMARK    7  A    between atoms: C_24  and  C_25
REMARK                            x       y       z     vdW  Elec       q    Type
REMARK                         _______ _______ _______ _____ _____    ______ ____
ROOT
ATOM      1  N   UNL     1       6.734   6.826  16.653  0.00  0.00    +0.000 NA
ATOM      2  C   UNL     1       6.933   5.376  16.415  0.00  0.00    +0.000 C 
ATOM      3  C   UNL     1       6.587   4.414  17.584  0.00  0.00    +0.000 C 
ATOM      4  N   UNL     1       5.383   4.791  18.351  0.00  0.00    +0.000 N 
ATOM      5  C   UNL     1       5.109   6.233  18.498  0.00  0.00    +0.000 C 
ATOM      6  C   UNL     1       5.350   6.978  17.168  0.00  0.00    +0.000 C 
ENDROOT
BRANCH   4   7
ATOM      7  C   UNL     1       4.238   4.007  18.399  0.00  0.00    +0.000 A 
ATOM      8  C   UNL     1       4.146   2.899  17.536  0.00  0.00    +0.000 A 
ATOM      9  C   UNL     1       3.097   1.985  17.619  0.00  0.00    +0.000 A 
ATOM     10  C   UNL     1       2.103   2.169  18.572  0.00  0.00    +0.000 A 
ATOM     11  C   UNL     1       2.144   3.280  19.425  0.00  0.00    +0.000 A 
ATOM     12  C   UNL     1       3.206   4.202  19.318  0.00  0.00    +0.000 A 
BRANCH  11  13
ATOM     13  C   UNL     1       1.087   3.483  20.481  0.00  0.00    +0.000 C 
ATOM     14  F   UNL     1       1.338   2.811  21.640  0.00  0.00    +0.000 F 
ATOM     15  F   UNL     1       0.948   4.792  20.836  0.00  0.00    +0.000 F 
ATOM     16  F   UNL     1      -0.143   3.075  20.074  0.00  0.00    +0.000 F 
ENDBRANCH  11  13
ENDBRANCH   4   7
BRANCH   1  17
ATOM     17  C   UNL     1       7.686   7.419  17.606  0.00  0.00    +0.000 C 
BRANCH  17  18
ATOM     18  C   UNL     1       7.839   8.941  17.555  0.00  0.00    +0.000 C 
BRANCH  18  19
ATOM     19  C   UNL     1       8.700   9.555  18.656  0.00  0.00    +0.000 C 
BRANCH  19  20
ATOM     20  C   UNL     1       9.597  10.710  18.189  0.00  0.00    +0.000 C 
BRANCH  20  31
ATOM     21  O   UNL     1       8.913  13.388  17.274  0.00  0.00    +0.000 OA
ATOM     22  C   UNL     1       8.934  13.091  18.459  0.00  0.00    +0.000 C 
ATOM     23  C   UNL     1       8.447  13.988  19.578  0.00  0.00    +0.000 C 
ATOM     24  C   UNL     1       9.003  15.405  19.481  0.00  0.00    +0.000 C 
ATOM     25  C   UNL     1       9.979  15.797  20.540  0.00  0.00    +0.000 C 
ATOM     26  C   UNL     1      10.211  15.086  21.646  0.00  0.00    +0.000 C 
ATOM     27  C   UNL     1       9.527  13.802  21.975  0.00  0.00    +0.000 C 
ATOM     28  C   UNL     1       8.712  13.178  20.848  0.00  0.00    +0.000 C 
ATOM     29  C   UNL     1       9.334  11.896  20.347  0.00  0.00    +0.000 C 
ATOM     30  O   UNL     1       9.728  10.989  21.068  0.00  0.00    +0.000 OA
ATOM     31  N   UNL     1       9.317  11.897  18.985  0.00  0.00    +0.000 N 
ENDBRANCH  20  31
ENDBRANCH  19  20
ENDBRANCH  18  19
ENDBRANCH  17  18
ENDBRANCH   1  17
TORSDOF 7
ENDMDL
MODEL 8
REMARK VINA RESULT:      -8.2      0.866      1.943
REMARK  Name = 
REMARK  7 active torsions:
REMARK  status: ('A' for Active; 'I' for Inactive)
REMARK    1  A    between atoms: N_11  and  C_12
REMARK    2  A    between atoms: C_12  and  C_13
REMARK    3  A    between atoms: C_13  and  C_14
REMARK    4  A    between atoms: C_14  and  C_15
REMARK    5  A    between atoms: C_15  and  N_16
REMARK    6  A    between atoms: N_19  and  C_20
REMARK    7  A    between atoms: C_24  and  C_25
REMARK                            x       y       z     vdW  Elec       q    Type
REMARK                         _______ _______ _______ _____ _____    ______ ____
ROOT
ATOM      1  N   UNL     1       7.357   6.702  17.001  0.00  0.00    +0.000 NA
ATOM      2  C   UNL     1       7.544   5.682  18.061  0.00  0.00    +0.000 C 
ATOM      3  C   UNL     1       6.391   5.509  19.087  0.00  0.00    +0.000 C 
ATOM      4  N   UNL     1       5.036   5.608  18.508  0.00  0.00    +0.000 N 
ATOM      5  C   UNL     1       4.861   6.537  17.375  0.00  0.00    +0.000 C 
ATOM      6  C   UNL     1       6.037   6.422  16.382  0.00  0.00    +0.000 C 
ENDROOT
BRANCH   4   7
ATOM      7  C   UNL     1       4.137   4.550  18.495  0.00  0.00    +0.000 A 
ATOM      8  C   UNL     1       4.426   3.434  17.687  0.00  0.00    +0.000 A 
ATOM      9  C   UNL     1       3.650   2.276  17.724  0.00  0.00    +0.000 A 
ATOM     10  C   UNL     1       2.553   2.216  18.573  0.00  0.00    +0.000 A 
ATOM     11  C   UNL     1       2.215   3.320  19.367  0.00  0.00    +0.000 A 
ATOM     12  C   UNL     1       3.004   4.488  19.306  0.00  0.00    +0.000 A 
BRANCH  11  13
ATOM     13  C   UNL     1       1.042   3.264  20.312  0.00  0.00    +0.000 C 
ATOM     14  F   UNL     1       0.656   4.486  20.775  0.00  0.00    +0.000 F 
ATOM     15  F   UNL     1      -0.067   2.720  19.736  0.00  0.00    +0.000 F 
ATOM     16  F   UNL     1       1.296   2.512  21.414  0.00  0.00    +0.000 F 
ENDBRANCH  11  13
ENDBRANCH   4   7
BRANCH   1  17
ATOM     17  C   UNL     1       7.393   8.092  17.485  0.00  0.00    +0.000 C 
BRANCH  17  18
ATOM     18  C   UNL     1       8.774   8.658  17.825  0.00  0.00    +0.000 C 
BRANCH  18  19
ATOM     19  C   UNL     1       8.804   9.704  18.936  0.00  0.00    +0.000 C 
BRANCH  19  20
ATOM     20  C   UNL     1       8.565  11.143  18.457  0.00  0.00    +0.000 C 
BRANCH  20  31
ATOM     21  O   UNL     1       8.284  12.599  20.963  0.00  0.00    +0.000 OA
ATOM     22  C   UNL     1       9.320  12.614  20.314  0.00  0.00    +0.000 C 
ATOM     23  C   UNL     1      10.623  13.219  20.792  0.00  0.00    +0.000 C 
ATOM     24  C   UNL     1      10.448  14.627  21.352  0.00  0.00    +0.000 C 
ATOM     25  C   UNL     1      11.047  15.730  20.543  0.00  0.00    +0.000 C 
ATOM     26  C   UNL     1      11.882  15.541  19.520  0.00  0.00    +0.000 C 
ATOM     27  C   UNL     1      12.333  14.201  19.043  0.00  0.00    +0.000 C 
ATOM     28  C   UNL     1      11.585  13.005  19.621  0.00  0.00    +0.000 C 
ATOM     29  C   UNL     1      10.747  12.308  18.576  0.00  0.00    +0.000 C 
ATOM     30  O   UNL     1      11.147  11.993  17.464  0.00  0.00    +0.000 OA
ATOM     31  N   UNL     1       9.520  12.035  19.100  0.00  0.00    +0.000 N 
ENDBRANCH  20  31
ENDBRANCH  19  20
ENDBRANCH  18  19
ENDBRANCH  17  18
ENDBRANCH   1  17
TORSDOF 7
ENDMDL
MODEL 9
REMARK VINA RESULT:      -8.1      1.286      2.263
REMARK  Name = 
REMARK  7 active torsions:
REMARK  status: ('A' for Active; 'I' for Inactive)
REMARK    1  A    between atoms: N_11  and  C_12
REMARK    2  A    between atoms: C_12  and  C_13
REMARK    3  A    between atoms: C_13  and  C_14
REMARK    4  A    between atoms: C_14  and  C_15
REMARK    5  A    between atoms: C_15  and  N_16
REMARK    6  A    between atoms: N_19  and  C_20
REMARK    7  A    between atoms: C_24  and  C_25
REMARK                            x       y       z     vdW  Elec       q    Type
REMARK                         _______ _______ _______ _____ _____    ______ ____
ROOT
ATOM      1  N   UNL     1       7.120   6.884  16.849  0.00  0.00    +0.000 NA
ATOM      2  C   UNL     1       7.646   5.844  17.765  0.00  0.00    +0.000 C 
ATOM      3  C   UNL     1       6.816   5.541  19.042  0.00  0.00    +0.000 C 
ATOM      4  N   UNL     1       5.353   5.554  18.839  0.00  0.00    +0.000 N 
ATOM      5  C   UNL     1       4.826   6.507  17.843  0.00  0.00    +0.000 C 
ATOM      6  C   UNL     1       5.706   6.523  16.576  0.00  0.00    +0.000 C 
ENDROOT
BRANCH   4   7
ATOM      7  C   UNL     1       4.555   4.430  18.998  0.00  0.00    +0.000 A 
ATOM      8  C   UNL     1       5.130   3.271  19.554  0.00  0.00    +0.000 A 
ATOM      9  C   UNL     1       4.367   2.150  19.875  0.00  0.00    +0.000 A 
ATOM     10  C   UNL     1       2.999   2.164  19.636  0.00  0.00    +0.000 A 
ATOM     11  C   UNL     1       2.397   3.286  19.052  0.00  0.00    +0.000 A 
ATOM     12  C   UNL     1       3.188   4.406  18.721  0.00  0.00    +0.000 A 
BRANCH  11  13
ATOM     13  C   UNL     1       0.910   3.327  18.807  0.00  0.00    +0.000 C 
ATOM     14  F   UNL     1       0.205   3.897  19.825  0.00  0.00    +0.000 F 
ATOM     15  F   UNL     1       0.584   4.037  17.691  0.00  0.00    +0.000 F 
ATOM     16  F   UNL     1       0.376   2.091  18.631  0.00  0.00    +0.000 F 
ENDBRANCH  11  13
ENDBRANCH   4   7
BRANCH   1  17
ATOM     17  C   UNL     1       7.189   8.253  17.384  0.00  0.00    +0.000 C 
BRANCH  17  18
ATOM     18  C   UNL     1       8.445   8.609  18.184  0.00  0.00    +0.000 C 
BRANCH  18  19
ATOM     19  C   UNL     1       8.689  10.100  18.400  0.00  0.00    +0.000 C 
BRANCH  19  20
ATOM     20  C   UNL     1       9.482  10.434  19.671  0.00  0.00    +0.000 C 
BRANCH  20  31
ATOM     21  O   UNL     1       8.567  12.907  20.906  0.00  0.00    +0.000 OA
ATOM     22  C   UNL     1       9.587  12.853  20.234  0.00  0.00    +0.000 C 
ATOM     23  C   UNL     1      10.588  13.982  20.101  0.00  0.00    +0.000 C 
ATOM     24  C   UNL     1       9.929  15.318  19.774  0.00  0.00    +0.000 C 
ATOM     25  C   UNL     1      10.196  15.860  18.409  0.00  0.00    +0.000 C 
ATOM     26  C   UNL     1      11.119  15.374  17.576  0.00  0.00    +0.000 C 
ATOM     27  C   UNL     1      12.011  14.221  17.895  0.00  0.00    +0.000 C 
ATOM     28  C   UNL     1      11.648  13.430  19.147  0.00  0.00    +0.000 C 
ATOM     29  C   UNL     1      11.158  12.041  18.810  0.00  0.00    +0.000 C 
ATOM     30  O   UNL     1      11.717  11.277  18.036  0.00  0.00    +0.000 OA
ATOM     31  N   UNL     1      10.050  11.770  19.555  0.00  0.00    +0.000 N 
ENDBRANCH  20  31
ENDBRANCH  19  20
ENDBRANCH  18  19
ENDBRANCH  17  18
ENDBRANCH   1  17
TORSDOF 7
ENDMDL
