MODEL 1
REMARK VINA RESULT:      -6.9      0.000      0.000
REMARK  Name = 
REMARK  7 active torsions:
REMARK  status: ('A' for Active; 'I' for Inactive)
REMARK    1  A    between atoms: C_1  and  C_2
REMARK    2  A    between atoms: C_2  and  C_3
REMARK    3  A    between atoms: C_3  and  O_4
REMARK    4  A    between atoms: O_4  and  C_5
REMARK    5  A    between atoms: C_9  and  C_10
REMARK    6  A    between atoms: C_24  and  C_25
REMARK    7  A    between atoms: C_29  and  C_30
REMARK                            x       y       z     vdW  Elec       q    Type
REMARK                         _______ _______ _______ _____ _____    ______ ____
ROOT
ATOM      1  C   UNL     1       0.247  11.023  19.461  0.00  0.00    +0.000 C 
ATOM      2  C   UNL     1      -1.006  10.566  19.401  0.00  0.00    +0.000 C 
ATOM      3  C   UNL     1      -1.728  11.309  18.387  0.00  0.00    +0.000 C 
ATOM      4  C   UNL     1      -1.237  12.660  18.836  0.00  0.00    +0.000 C 
ATOM      5  C   UNL     1      -1.845  13.104  20.210  0.00  0.00    +0.000 C 
ATOM      6  C   UNL     1      -3.258  12.606  20.461  0.00  0.00    +0.000 C 
ATOM      7  C   UNL     1      -3.505  12.608  21.951  0.00  0.00    +0.000 C 
ATOM      8  C   UNL     1      -3.224  13.920  22.600  0.00  0.00    +0.000 C 
ATOM      9  C   UNL     1      -3.808  14.192  23.787  0.00  0.00    +0.000 C 
ATOM     10  C   UNL     1      -5.291  14.192  23.641  0.00  0.00    +0.000 C 
ATOM     11  O   UNL     1      -6.010  13.296  24.011  0.00  0.00    +0.000 OA
ATOM     12  N   UNL     1      -5.692  15.411  23.106  0.00  0.00    +0.000 N 
ATOM     13  C   UNL     1      -5.101  15.924  21.864  0.00  0.00    +0.000 C 
ATOM     14  C   UNL     1      -3.545  16.244  21.801  0.00  0.00    +0.000 C 
ATOM     15  C   UNL     1      -2.472  15.034  21.847  0.00  0.00    +0.000 C 
ATOM     16  C   UNL     1      -1.269  15.384  22.752  0.00  0.00    +0.000 C 
ATOM     17  C   UNL     1      -1.860  14.628  20.367  0.00  0.00    +0.000 C 
ATOM     18  C   UNL     1      -0.409  15.073  19.966  0.00  0.00    +0.000 C 
ATOM     19  C   UNL     1       0.240  14.301  18.742  0.00  0.00    +0.000 C 
ATOM     20  C   UNL     1       0.441  12.578  18.803  0.00  0.00    +0.000 C 
ATOM     21  C   UNL     1       1.699  12.810  19.714  0.00  0.00    +0.000 C 
ATOM     22  H   UNL     1      -5.806  16.102  23.838  0.00  0.00    +0.000 HD
ENDROOT
BRANCH   1  27
ATOM     23  C   UNL     1       2.151   7.763  18.870  0.00  0.00    +0.000 A 
ATOM     24  C   UNL     1       1.921   7.160  20.088  0.00  0.00    +0.000 A 
ATOM     25  N   UNL     1       1.434   7.810  21.182  0.00  0.00    +0.000 NA
ATOM     26  C   UNL     1       1.024   9.099  21.017  0.00  0.00    +0.000 A 
ATOM     27  C   UNL     1       1.113   9.826  19.845  0.00  0.00    +0.000 A 
ATOM     28  C   UNL     1       1.793   9.112  18.775  0.00  0.00    +0.000 A 
BRANCH  23  29
ATOM     29  O   UNL     1       2.590   6.947  17.864  0.00  0.00    +0.000 OA
BRANCH  29  30
ATOM     30  C   UNL     1       3.487   5.890  18.203  0.00  0.00    +0.000 C 
BRANCH  30  32
ATOM     31  C   UNL     1       1.599   4.270  17.758  0.00  0.00    +0.000 C 
ATOM     32  C   UNL     1       3.061   4.599  17.487  0.00  0.00    +0.000 C 
ENDBRANCH  30  32
ENDBRANCH  29  30
ENDBRANCH  23  29
ENDBRANCH   1  27
TORSDOF 4
ENDMDL
MODEL 2
REMARK VINA RESULT:      -6.8      9.062     11.197
REMARK  Name = 
REMARK  7 active torsions:
REMARK  status: ('A' for Active; 'I' for Inactive)
REMARK    1  A    between atoms: C_1  and  C_2
REMARK    2  A    between atoms: C_2  and  C_3
REMARK    3  A    between atoms: C_3  and  O_4
REMARK    4  A    between atoms: O_4  and  C_5
REMARK    5  A    between atoms: C_9  and  C_10
REMARK    6  A    between atoms: C_24  and  C_25
REMARK    7  A    between atoms: C_29  and  C_30
REMARK                            x       y       z     vdW  Elec       q    Type
REMARK                         _______ _______ _______ _____ _____    ______ ____
ROOT
ATOM      1  C   UNL     1       6.026   5.476  15.299  0.00  0.00    +0.000 C 
ATOM      2  C   UNL     1       4.796   5.997  15.309  0.00  0.00    +0.000 C 
ATOM      3  C   UNL     1       4.722   7.005  16.347  0.00  0.00    +0.000 C 
ATOM      4  C   UNL     1       5.399   6.165  17.398  0.00  0.00    +0.000 C 
ATOM      5  C   UNL     1       4.510   4.972  17.891  0.00  0.00    +0.000 C 
ATOM      6  C   UNL     1       3.018   5.258  17.887  0.00  0.00    +0.000 C 
ATOM      7  C   UNL     1       2.282   3.941  17.832  0.00  0.00    +0.000 C 
ATOM      8  C   UNL     1       2.691   2.985  18.899  0.00  0.00    +0.000 C 
ATOM      9  C   UNL     1       1.838   1.994  19.241  0.00  0.00    +0.000 C 
ATOM     10  C   UNL     1       0.567   2.570  19.764  0.00  0.00    +0.000 C 
ATOM     11  O   UNL     1      -0.464   2.620  19.139  0.00  0.00    +0.000 OA
ATOM     12  N   UNL     1       0.752   2.939  21.092  0.00  0.00    +0.000 N 
ATOM     13  C   UNL     1       1.859   3.818  21.487  0.00  0.00    +0.000 C 
ATOM     14  C   UNL     1       3.361   3.350  21.257  0.00  0.00    +0.000 C 
ATOM     15  C   UNL     1       3.948   3.237  19.753  0.00  0.00    +0.000 C 
ATOM     16  C   UNL     1       4.809   1.964  19.581  0.00  0.00    +0.000 C 
ATOM     17  C   UNL     1       4.888   4.519  19.305  0.00  0.00    +0.000 C 
ATOM     18  C   UNL     1       6.450   4.372  19.259  0.00  0.00    +0.000 C 
ATOM     19  C   UNL     1       7.228   5.479  18.432  0.00  0.00    +0.000 C 
ATOM     20  C   UNL     1       6.881   5.715  16.748  0.00  0.00    +0.000 C 
ATOM     21  C   UNL     1       7.754   4.446  16.445  0.00  0.00    +0.000 C 
ATOM     22  H   UNL     1       0.598   2.148  21.707  0.00  0.00    +0.000 HD
ENDROOT
BRANCH   1  27
ATOM     23  C   UNL     1       5.618   3.491  12.059  0.00  0.00    +0.000 A 
ATOM     24  C   UNL     1       6.928   3.514  11.631  0.00  0.00    +0.000 A 
ATOM     25  N   UNL     1       7.887   4.331  12.149  0.00  0.00    +0.000 NA
ATOM     26  C   UNL     1       7.557   5.071  13.246  0.00  0.00    +0.000 A 
ATOM     27  C   UNL     1       6.314   5.106  13.846  0.00  0.00    +0.000 A 
ATOM     28  C   UNL     1       5.308   4.331  13.133  0.00  0.00    +0.000 A 
BRANCH  23  29
ATOM     29  O   UNL     1       4.802   2.567  11.465  0.00  0.00    +0.000 OA
BRANCH  29  30
ATOM     30  C   UNL     1       3.512   2.994  11.033  0.00  0.00    +0.000 C 
BRANCH  30  32
ATOM     31  C   UNL     1       2.470   4.634   9.416  0.00  0.00    +0.000 C 
ATOM     32  C   UNL     1       3.621   3.664   9.654  0.00  0.00    +0.000 C 
ENDBRANCH  30  32
ENDBRANCH  29  30
ENDBRANCH  23  29
ENDBRANCH   1  27
TORSDOF 4
ENDMDL
MODEL 3
REMARK VINA RESULT:      -6.6      1.535      1.765
REMARK  Name = 
REMARK  7 active torsions:
REMARK  status: ('A' for Active; 'I' for Inactive)
REMARK    1  A    between atoms: C_1  and  C_2
REMARK    2  A    between atoms: C_2  and  C_3
REMARK    3  A    between atoms: C_3  and  O_4
REMARK    4  A    between atoms: O_4  and  C_5
REMARK    5  A    between atoms: C_9  and  C_10
REMARK    6  A    between atoms: C_24  and  C_25
REMARK    7  A    between atoms: C_29  and  C_30
REMARK                            x       y       z     vdW  Elec       q    Type
REMARK                         _______ _______ _______ _____ _____    ______ ____
ROOT
ATOM      1  C   UNL     1       0.122  11.124  18.707  0.00  0.00    +0.000 C 
ATOM      2  C   UNL     1      -1.182  10.932  18.484  0.00  0.00    +0.000 C 
ATOM      3  C   UNL     1      -1.732  12.125  17.871  0.00  0.00    +0.000 C 
ATOM      4  C   UNL     1      -1.069  13.084  18.825  0.00  0.00    +0.000 C 
ATOM      5  C   UNL     1      -1.674  13.023  20.269  0.00  0.00    +0.000 C 
ATOM      6  C   UNL     1      -3.156  12.694  20.315  0.00  0.00    +0.000 C 
ATOM      7  C   UNL     1      -3.475  12.132  21.680  0.00  0.00    +0.000 C 
ATOM      8  C   UNL     1      -3.036  13.007  22.803  0.00  0.00    +0.000 C 
ATOM      9  C   UNL     1      -3.632  12.863  24.007  0.00  0.00    +0.000 C 
ATOM     10  C   UNL     1      -5.090  13.154  23.894  0.00  0.00    +0.000 C 
ATOM     11  O   UNL     1      -5.952  12.309  23.877  0.00  0.00    +0.000 OA
ATOM     12  N   UNL     1      -5.277  14.532  23.908  0.00  0.00    +0.000 N 
ATOM     13  C   UNL     1      -4.554  15.404  22.975  0.00  0.00    +0.000 C 
ATOM     14  C   UNL     1      -2.967  15.474  23.026  0.00  0.00    +0.000 C 
ATOM     15  C   UNL     1      -2.089  14.197  22.559  0.00  0.00    +0.000 C 
ATOM     16  C   UNL     1      -0.895  13.958  23.511  0.00  0.00    +0.000 C 
ATOM     17  C   UNL     1      -1.470  14.335  21.034  0.00  0.00    +0.000 C 
ATOM     18  C   UNL     1       0.050  14.670  20.828  0.00  0.00    +0.000 C 
ATOM     19  C   UNL     1       0.639  14.369  19.387  0.00  0.00    +0.000 C 
ATOM     20  C   UNL     1       0.578  12.761  18.737  0.00  0.00    +0.000 C 
ATOM     21  C   UNL     1       1.808  12.404  19.645  0.00  0.00    +0.000 C 
ATOM     22  H   UNL     1      -5.324  14.876  24.860  0.00  0.00    +0.000 HD
ENDROOT
BRANCH   1  27
ATOM     23  C   UNL     1       1.529   7.780  19.909  0.00  0.00    +0.000 A 
ATOM     24  C   UNL     1       2.568   7.653  19.012  0.00  0.00    +0.000 A 
ATOM     25  N   UNL     1       2.702   8.410  17.886  0.00  0.00    +0.000 NA
ATOM     26  C   UNL     1       1.828   9.442  17.715  0.00  0.00    +0.000 A 
ATOM     27  C   UNL     1       0.779   9.754  18.557  0.00  0.00    +0.000 A 
ATOM     28  C   UNL     1       0.609   8.800  19.643  0.00  0.00    +0.000 A 
BRANCH  23  29
ATOM     29  O   UNL     1       1.582   6.977  21.015  0.00  0.00    +0.000 OA
BRANCH  29  30
ATOM     30  C   UNL     1       2.142   5.673  20.868  0.00  0.00    +0.000 C 
BRANCH  30  32
ATOM     31  C   UNL     1       1.342   3.279  20.977  0.00  0.00    +0.000 C 
ATOM     32  C   UNL     1       1.045   4.679  20.457  0.00  0.00    +0.000 C 
ENDBRANCH  30  32
ENDBRANCH  29  30
ENDBRANCH  23  29
ENDBRANCH   1  27
TORSDOF 4
ENDMDL
MODEL 4
REMARK VINA RESULT:      -6.4      9.050     11.270
REMARK  Name = 
REMARK  7 active torsions:
REMARK  status: ('A' for Active; 'I' for Inactive)
REMARK    1  A    between atoms: C_1  and  C_2
REMARK    2  A    between atoms: C_2  and  C_3
REMARK    3  A    between atoms: C_3  and  O_4
REMARK    4  A    between atoms: O_4  and  C_5
REMARK    5  A    between atoms: C_9  and  C_10
REMARK    6  A    between atoms: C_24  and  C_25
REMARK    7  A    between atoms: C_29  and  C_30
REMARK                            x       y       z     vdW  Elec       q    Type
REMARK                         _______ _______ _______ _____ _____    ______ ____
ROOT
ATOM      1  C   UNL     1       6.071   5.497  15.317  0.00  0.00    +0.000 C 
ATOM      2  C   UNL     1       4.835   6.003  15.300  0.00  0.00    +0.000 C 
ATOM      3  C   UNL     1       4.732   7.022  16.326  0.00  0.00    +0.000 C 
ATOM      4  C   UNL     1       5.400   6.201  17.397  0.00  0.00    +0.000 C 
ATOM      5  C   UNL     1       4.517   5.003  17.888  0.00  0.00    +0.000 C 
ATOM      6  C   UNL     1       3.022   5.271  17.855  0.00  0.00    +0.000 C 
ATOM      7  C   UNL     1       2.302   3.945  17.803  0.00  0.00    +0.000 C 
ATOM      8  C   UNL     1       2.704   3.005  18.887  0.00  0.00    +0.000 C 
ATOM      9  C   UNL     1       1.857   2.008  19.224  0.00  0.00    +0.000 C 
ATOM     10  C   UNL     1       0.570   2.574  19.720  0.00  0.00    +0.000 C 
ATOM     11  O   UNL     1      -0.450   2.606  19.076  0.00  0.00    +0.000 OA
ATOM     12  N   UNL     1       0.729   2.960  21.047  0.00  0.00    +0.000 N 
ATOM     13  C   UNL     1       1.818   3.856  21.450  0.00  0.00    +0.000 C 
ATOM     14  C   UNL     1       3.329   3.403  21.251  0.00  0.00    +0.000 C 
ATOM     15  C   UNL     1       3.943   3.281  19.759  0.00  0.00    +0.000 C 
ATOM     16  C   UNL     1       4.821   2.017  19.615  0.00  0.00    +0.000 C 
ATOM     17  C   UNL     1       4.875   4.569  19.313  0.00  0.00    +0.000 C 
ATOM     18  C   UNL     1       6.440   4.441  19.296  0.00  0.00    +0.000 C 
ATOM     19  C   UNL     1       7.219   5.548  18.470  0.00  0.00    +0.000 C 
ATOM     20  C   UNL     1       6.899   5.762  16.777  0.00  0.00    +0.000 C 
ATOM     21  C   UNL     1       7.791   4.499  16.503  0.00  0.00    +0.000 C 
ATOM     22  H   UNL     1       0.573   2.174  21.667  0.00  0.00    +0.000 HD
ENDROOT
BRANCH   1  27
ATOM     23  C   UNL     1       6.090   3.246  12.229  0.00  0.00    +0.000 A 
ATOM     24  C   UNL     1       7.324   3.594  11.721  0.00  0.00    +0.000 A 
ATOM     25  N   UNL     1       8.041   4.678  12.131  0.00  0.00    +0.000 NA
ATOM     26  C   UNL     1       7.566   5.377  13.201  0.00  0.00    +0.000 A 
ATOM     27  C   UNL     1       6.388   5.115  13.873  0.00  0.00    +0.000 A 
ATOM     28  C   UNL     1       5.607   4.046  13.269  0.00  0.00    +0.000 A 
BRANCH  23  29
ATOM     29  O   UNL     1       5.537   2.094  11.741  0.00  0.00    +0.000 OA
BRANCH  29  30
ATOM     30  C   UNL     1       6.300   1.329  10.808  0.00  0.00    +0.000 C 
BRANCH  30  32
ATOM     31  C   UNL     1       5.690  -1.076  11.284  0.00  0.00    +0.000 C 
ATOM     32  C   UNL     1       6.744   0.009  11.459  0.00  0.00    +0.000 C 
ENDBRANCH  30  32
ENDBRANCH  29  30
ENDBRANCH  23  29
ENDBRANCH   1  27
TORSDOF 4
ENDMDL
MODEL 5
REMARK VINA RESULT:      -6.3      1.304      1.545
REMARK  Name = 
REMARK  7 active torsions:
REMARK  status: ('A' for Active; 'I' for Inactive)
REMARK    1  A    between atoms: C_1  and  C_2
REMARK    2  A    between atoms: C_2  and  C_3
REMARK    3  A    between atoms: C_3  and  O_4
REMARK    4  A    between atoms: O_4  and  C_5
REMARK    5  A    between atoms: C_9  and  C_10
REMARK    6  A    between atoms: C_24  and  C_25
REMARK    7  A    between atoms: C_29  and  C_30
REMARK                            x       y       z     vdW  Elec       q    Type
REMARK                         _______ _______ _______ _____ _____    ______ ____
ROOT
ATOM      1  C   UNL     1       0.590  10.303  19.365  0.00  0.00    +0.000 C 
ATOM      2  C   UNL     1      -0.642   9.952  19.743  0.00  0.00    +0.000 C 
ATOM      3  C   UNL     1      -1.603  10.615  18.883  0.00  0.00    +0.000 C 
ATOM      4  C   UNL     1      -0.942  11.966  18.962  0.00  0.00    +0.000 C 
ATOM      5  C   UNL     1      -1.089  12.636  20.371  0.00  0.00    +0.000 C 
ATOM      6  C   UNL     1      -2.381  12.298  21.095  0.00  0.00    +0.000 C 
ATOM      7  C   UNL     1      -2.168  12.516  22.573  0.00  0.00    +0.000 C 
ATOM      8  C   UNL     1      -1.648  13.872  22.908  0.00  0.00    +0.000 C 
ATOM      9  C   UNL     1      -1.836  14.346  24.159  0.00  0.00    +0.000 C 
ATOM     10  C   UNL     1      -3.293  14.454  24.454  0.00  0.00    +0.000 C 
ATOM     11  O   UNL     1      -3.905  13.679  25.147  0.00  0.00    +0.000 OA
ATOM     12  N   UNL     1      -3.783  15.623  23.881  0.00  0.00    +0.000 N 
ATOM     13  C   UNL     1      -3.572  15.916  22.459  0.00  0.00    +0.000 C 
ATOM     14  C   UNL     1      -2.095  16.091  21.899  0.00  0.00    +0.000 C 
ATOM     15  C   UNL     1      -1.111  14.810  21.810  0.00  0.00    +0.000 C 
ATOM     16  C   UNL     1       0.323  15.171  22.262  0.00  0.00    +0.000 C 
ATOM     17  C   UNL     1      -0.990  14.164  20.295  0.00  0.00    +0.000 C 
ATOM     18  C   UNL     1       0.291  14.425  19.426  0.00  0.00    +0.000 C 
ATOM     19  C   UNL     1       0.508  13.448  18.197  0.00  0.00    +0.000 C 
ATOM     20  C   UNL     1       0.643  11.737  18.454  0.00  0.00    +0.000 C 
ATOM     21  C   UNL     1       2.126  11.976  18.913  0.00  0.00    +0.000 C 
ATOM     22  H   UNL     1      -3.642  16.411  24.503  0.00  0.00    +0.000 HD
ENDROOT
BRANCH   1  27
ATOM     23  C   UNL     1       2.588   7.158  18.517  0.00  0.00    +0.000 A 
ATOM     24  C   UNL     1       2.350   6.440  19.669  0.00  0.00    +0.000 A 
ATOM     25  N   UNL     1       1.826   6.973  20.808  0.00  0.00    +0.000 NA
ATOM     26  C   UNL     1       1.386   8.262  20.753  0.00  0.00    +0.000 A 
ATOM     27  C   UNL     1       1.479   9.096  19.656  0.00  0.00    +0.000 A 
ATOM     28  C   UNL     1       2.197   8.501  18.539  0.00  0.00    +0.000 A 
BRANCH  23  29
ATOM     29  O   UNL     1       3.067   6.450  17.449  0.00  0.00    +0.000 OA
BRANCH  29  30
ATOM     30  C   UNL     1       3.763   5.233  17.712  0.00  0.00    +0.000 C 
BRANCH  30  32
ATOM     31  C   UNL     1       5.210   6.255  15.909  0.00  0.00    +0.000 C 
ATOM     32  C   UNL     1       4.778   4.962  16.590  0.00  0.00    +0.000 C 
ENDBRANCH  30  32
ENDBRANCH  29  30
ENDBRANCH  23  29
ENDBRANCH   1  27
TORSDOF 4
ENDMDL
MODEL 6
REMARK VINA RESULT:      -6.3      3.673      9.115
REMARK  Name = 
REMARK  7 active torsions:
REMARK  status: ('A' for Active; 'I' for Inactive)
REMARK    1  A    between atoms: C_1  and  C_2
REMARK    2  A    between atoms: C_2  and  C_3
REMARK    3  A    between atoms: C_3  and  O_4
REMARK    4  A    between atoms: O_4  and  C_5
REMARK    5  A    between atoms: C_9  and  C_10
REMARK    6  A    between atoms: C_24  and  C_25
REMARK    7  A    between atoms: C_29  and  C_30
REMARK                            x       y       z     vdW  Elec       q    Type
REMARK                         _______ _______ _______ _____ _____    ______ ____
ROOT
ATOM      1  C   UNL     1      -0.018   9.765  19.525  0.00  0.00    +0.000 C 
ATOM      2  C   UNL     1       0.174   9.370  20.787  0.00  0.00    +0.000 C 
ATOM      3  C   UNL     1       1.580   9.508  21.111  0.00  0.00    +0.000 C 
ATOM      4  C   UNL     1       2.074   8.872  19.838  0.00  0.00    +0.000 C 
ATOM      5  C   UNL     1       1.794   7.331  19.778  0.00  0.00    +0.000 C 
ATOM      6  C   UNL     1       1.832   6.633  21.127  0.00  0.00    +0.000 C 
ATOM      7  C   UNL     1       1.034   5.355  21.023  0.00  0.00    +0.000 C 
ATOM      8  C   UNL     1       1.460   4.476  19.898  0.00  0.00    +0.000 C 
ATOM      9  C   UNL     1       1.162   3.160  19.958  0.00  0.00    +0.000 C 
ATOM     10  C   UNL     1       1.815   2.539  21.145  0.00  0.00    +0.000 C 
ATOM     11  O   UNL     1       1.237   2.249  22.164  0.00  0.00    +0.000 OA
ATOM     12  N   UNL     1       3.147   2.277  20.842  0.00  0.00    +0.000 N 
ATOM     13  C   UNL     1       4.027   3.331  20.323  0.00  0.00    +0.000 C 
ATOM     14  C   UNL     1       3.696   4.023  18.931  0.00  0.00    +0.000 C 
ATOM     15  C   UNL     1       2.409   4.994  18.800  0.00  0.00    +0.000 C 
ATOM     16  C   UNL     1       1.653   4.750  17.474  0.00  0.00    +0.000 C 
ATOM     17  C   UNL     1       2.778   6.603  18.856  0.00  0.00    +0.000 C 
ATOM     18  C   UNL     1       2.777   7.457  17.539  0.00  0.00    +0.000 C 
ATOM     19  C   UNL     1       2.721   9.030  17.731  0.00  0.00    +0.000 C 
ATOM     20  C   UNL     1       1.396   9.759  18.583  0.00  0.00    +0.000 C 
ATOM     21  C   UNL     1       0.533   9.585  17.283  0.00  0.00    +0.000 C 
ATOM     22  H   UNL     1       3.237   1.381  20.377  0.00  0.00    +0.000 HD
ENDROOT
BRANCH   1  27
ATOM     23  C   UNL     1      -3.348  10.739  17.922  0.00  0.00    +0.000 A 
ATOM     24  C   UNL     1      -3.568  11.922  18.595  0.00  0.00    +0.000 A 
ATOM     25  N   UNL     1      -2.881  12.308  19.707  0.00  0.00    +0.000 NA
ATOM     26  C   UNL     1      -1.824  11.538  20.091  0.00  0.00    +0.000 A 
ATOM     27  C   UNL     1      -1.421  10.365  19.482  0.00  0.00    +0.000 A 
ATOM     28  C   UNL     1      -2.306   9.942  18.407  0.00  0.00    +0.000 A 
BRANCH  23  29
ATOM     29  O   UNL     1      -4.090  10.539  16.791  0.00  0.00    +0.000 OA
BRANCH  29  30
ATOM     30  C   UNL     1      -3.623  11.116  15.573  0.00  0.00    +0.000 C 
BRANCH  30  32
ATOM     31  C   UNL     1      -3.689   9.874  13.374  0.00  0.00    +0.000 C 
ATOM     32  C   UNL     1      -2.964  10.034  14.704  0.00  0.00    +0.000 C 
ENDBRANCH  30  32
ENDBRANCH  29  30
ENDBRANCH  23  29
ENDBRANCH   1  27
TORSDOF 4
ENDMDL
MODEL 7
REMARK VINA RESULT:      -6.3      5.092      7.259
REMARK  Name = 
REMARK  7 active torsions:
REMARK  status: ('A' for Active; 'I' for Inactive)
REMARK    1  A    between atoms: C_1  and  C_2
REMARK    2  A    between atoms: C_2  and  C_3
REMARK    3  A    between atoms: C_3  and  O_4
REMARK    4  A    between atoms: O_4  and  C_5
REMARK    5  A    between atoms: C_9  and  C_10
REMARK    6  A    between atoms: C_24  and  C_25
REMARK    7  A    between atoms: C_29  and  C_30
REMARK                            x       y       z     vdW  Elec       q    Type
REMARK                         _______ _______ _______ _____ _____    ______ ____
ROOT
ATOM      1  C   UNL     1       5.220  15.504  19.511  0.00  0.00    +0.000 C 
ATOM      2  C   UNL     1       5.122  14.844  18.354  0.00  0.00    +0.000 C 
ATOM      3  C   UNL     1       4.198  15.550  17.489  0.00  0.00    +0.000 C 
ATOM      4  C   UNL     1       3.149  15.751  18.551  0.00  0.00    +0.000 C 
ATOM      5  C   UNL     1       2.429  14.421  18.958  0.00  0.00    +0.000 C 
ATOM      6  C   UNL     1       2.288  13.413  17.830  0.00  0.00    +0.000 C 
ATOM      7  C   UNL     1       2.113  12.041  18.437  0.00  0.00    +0.000 C 
ATOM      8  C   UNL     1       1.005  11.966  19.430  0.00  0.00    +0.000 C 
ATOM      9  C   UNL     1       0.460  10.759  19.700  0.00  0.00    +0.000 C 
ATOM     10  C   UNL     1      -0.143  10.181  18.466  0.00  0.00    +0.000 C 
ATOM     11  O   UNL     1       0.358   9.298  17.813  0.00  0.00    +0.000 OA
ATOM     12  N   UNL     1      -1.393  10.758  18.262  0.00  0.00    +0.000 N 
ATOM     13  C   UNL     1      -1.557  12.216  18.223  0.00  0.00    +0.000 C 
ATOM     14  C   UNL     1      -1.204  13.086  19.506  0.00  0.00    +0.000 C 
ATOM     15  C   UNL     1       0.337  13.242  19.974  0.00  0.00    +0.000 C 
ATOM     16  C   UNL     1       0.470  13.139  21.510  0.00  0.00    +0.000 C 
ATOM     17  C   UNL     1       1.028  14.674  19.525  0.00  0.00    +0.000 C 
ATOM     18  C   UNL     1       1.241  15.812  20.585  0.00  0.00    +0.000 C 
ATOM     19  C   UNL     1       2.268  16.951  20.184  0.00  0.00    +0.000 C 
ATOM     20  C   UNL     1       3.916  16.551  19.814  0.00  0.00    +0.000 C 
ATOM     21  C   UNL     1       4.180  16.437  21.357  0.00  0.00    +0.000 C 
ATOM     22  H   UNL     1      -2.103  10.265  18.790  0.00  0.00    +0.000 HD
ENDROOT
BRANCH   1  27
ATOM     23  C   UNL     1       8.850  14.333  19.268  0.00  0.00    +0.000 A 
ATOM     24  C   UNL     1       9.031  13.934  20.575  0.00  0.00    +0.000 A 
ATOM     25  N   UNL     1       8.183  14.247  21.594  0.00  0.00    +0.000 NA
ATOM     26  C   UNL     1       7.019  14.879  21.272  0.00  0.00    +0.000 A 
ATOM     27  C   UNL     1       6.648  15.280  20.003  0.00  0.00    +0.000 A 
ATOM     28  C   UNL     1       7.680  15.053  19.003  0.00  0.00    +0.000 A 
BRANCH  23  29
ATOM     29  O   UNL     1       9.770  13.880  18.363  0.00  0.00    +0.000 OA
BRANCH  29  30
ATOM     30  C   UNL     1      10.656  12.840  18.774  0.00  0.00    +0.000 C 
BRANCH  30  32
ATOM     31  C   UNL     1       9.295  10.750  18.368  0.00  0.00    +0.000 C 
ATOM     32  C   UNL     1      10.458  11.605  17.881  0.00  0.00    +0.000 C 
ENDBRANCH  30  32
ENDBRANCH  29  30
ENDBRANCH  23  29
ENDBRANCH   1  27
TORSDOF 4
ENDMDL
MODEL 8
REMARK VINA RESULT:      -6.2      4.051      7.798
REMARK  Name = 
REMARK  7 active torsions:
REMARK  status: ('A' for Active; 'I' for Inactive)
REMARK    1  A    between atoms: C_1  and  C_2
REMARK    2  A    between atoms: C_2  and  C_3
REMARK    3  A    between atoms: C_3  and  O_4
REMARK    4  A    between atoms: O_4  and  C_5
REMARK    5  A    between atoms: C_9  and  C_10
REMARK    6  A    between atoms: C_24  and  C_25
REMARK    7  A    between atoms: C_29  and  C_30
REMARK                            x       y       z     vdW  Elec       q    Type
REMARK                         _______ _______ _______ _____ _____    ______ ____
ROOT
ATOM      1  C   UNL     1      -2.694  12.689  21.310  0.00  0.00    +0.000 C 
ATOM      2  C   UNL     1      -2.922  13.132  20.070  0.00  0.00    +0.000 C 
ATOM      3  C   UNL     1      -2.330  12.205  19.126  0.00  0.00    +0.000 C 
ATOM      4  C   UNL     1      -1.019  12.087  19.860  0.00  0.00    +0.000 C 
ATOM      5  C   UNL     1      -0.157  13.392  19.782  0.00  0.00    +0.000 C 
ATOM      6  C   UNL     1      -0.320  14.177  18.492  0.00  0.00    +0.000 C 
ATOM      7  C   UNL     1       0.085  15.608  18.751  0.00  0.00    +0.000 C 
ATOM      8  C   UNL     1       1.443  15.744  19.350  0.00  0.00    +0.000 C 
ATOM      9  C   UNL     1       2.092  16.922  19.218  0.00  0.00    +0.000 C 
ATOM     10  C   UNL     1       2.320  17.223  17.776  0.00  0.00    +0.000 C 
ATOM     11  O   UNL     1       1.682  18.026  17.141  0.00  0.00    +0.000 OA
ATOM     12  N   UNL     1       3.426  16.503  17.335  0.00  0.00    +0.000 N 
ATOM     13  C   UNL     1       3.511  15.051  17.527  0.00  0.00    +0.000 C 
ATOM     14  C   UNL     1       3.525  14.448  18.998  0.00  0.00    +0.000 C 
ATOM     15  C   UNL     1       2.190  14.520  19.910  0.00  0.00    +0.000 C 
ATOM     16  C   UNL     1       2.529  14.894  21.372  0.00  0.00    +0.000 C 
ATOM     17  C   UNL     1       1.338  13.106  19.960  0.00  0.00    +0.000 C 
ATOM     18  C   UNL     1       1.407  12.188  21.232  0.00  0.00    +0.000 C 
ATOM     19  C   UNL     1       0.261  11.101  21.367  0.00  0.00    +0.000 C 
ATOM     20  C   UNL     1      -1.404  11.589  21.418  0.00  0.00    +0.000 C 
ATOM     21  C   UNL     1      -1.187  11.986  22.921  0.00  0.00    +0.000 C 
ATOM     22  H   UNL     1       4.282  17.009  17.533  0.00  0.00    +0.000 HD
ENDROOT
BRANCH   1  27
ATOM     23  C   UNL     1      -6.388  12.865  22.276  0.00  0.00    +0.000 A 
ATOM     24  C   UNL     1      -6.427  14.168  22.723  0.00  0.00    +0.000 A 
ATOM     25  N   UNL     1      -5.322  14.918  22.992  0.00  0.00    +0.000 NA
ATOM     26  C   UNL     1      -4.109  14.387  22.668  0.00  0.00    +0.000 A 
ATOM     27  C   UNL     1      -3.899  13.128  22.140  0.00  0.00    +0.000 A 
ATOM     28  C   UNL     1      -5.115  12.336  22.038  0.00  0.00    +0.000 A 
BRANCH  23  29
ATOM     29  O   UNL     1      -7.595  12.282  22.003  0.00  0.00    +0.000 OA
BRANCH  29  30
ATOM     30  C   UNL     1      -7.766  11.665  20.728  0.00  0.00    +0.000 C 
BRANCH  30  32
ATOM     31  C   UNL     1      -7.171   9.387  19.811  0.00  0.00    +0.000 C 
ATOM     32  C   UNL     1      -7.916  10.145  20.902  0.00  0.00    +0.000 C 
ENDBRANCH  30  32
ENDBRANCH  29  30
ENDBRANCH  23  29
ENDBRANCH   1  27
TORSDOF 4
ENDMDL
MODEL 9
REMARK VINA RESULT:      -6.2      4.153      6.958
REMARK  Name = 
REMARK  7 active torsions:
REMARK  status: ('A' for Active; 'I' for Inactive)
REMARK    1  A    between atoms: C_1  and  C_2
REMARK    2  A    between atoms: C_2  and  C_3
REMARK    3  A    between atoms: C_3  and  O_4
REMARK    4  A    between atoms: O_4  and  C_5
REMARK    5  A    between atoms: C_9  and  C_10
REMARK    6  A    between atoms: C_24  and  C_25
REMARK    7  A    between atoms: C_29  and  C_30
REMARK                            x       y       z     vdW  Elec       q    Type
REMARK                         _______ _______ _______ _____ _____    ______ ____
ROOT
ATOM      1  C   UNL     1      -1.758  11.376  19.372  0.00  0.00    +0.000 C 
ATOM      2  C   UNL     1      -0.637  10.806  18.922  0.00  0.00    +0.000 C 
ATOM      3  C   UNL     1       0.148  10.359  20.055  0.00  0.00    +0.000 C 
ATOM      4  C   UNL     1      -0.012  11.634  20.841  0.00  0.00    +0.000 C 
ATOM      5  C   UNL     1       0.775  12.837  20.219  0.00  0.00    +0.000 C 
ATOM      6  C   UNL     1       2.066  12.447  19.518  0.00  0.00    +0.000 C 
ATOM      7  C   UNL     1       2.417  13.533  18.530  0.00  0.00    +0.000 C 
ATOM      8  C   UNL     1       2.467  14.895  19.132  0.00  0.00    +0.000 C 
ATOM      9  C   UNL     1       3.180  15.855  18.504  0.00  0.00    +0.000 C 
ATOM     10  C   UNL     1       4.616  15.459  18.428  0.00  0.00    +0.000 C 
ATOM     11  O   UNL     1       5.155  15.046  17.430  0.00  0.00    +0.000 OA
ATOM     12  N   UNL     1       5.224  15.733  19.648  0.00  0.00    +0.000 N 
ATOM     13  C   UNL     1       4.665  15.221  20.905  0.00  0.00    +0.000 C 
ATOM     14  C   UNL     1       3.211  15.671  21.365  0.00  0.00    +0.000 C 
ATOM     15  C   UNL     1       1.913  15.160  20.545  0.00  0.00    +0.000 C 
ATOM     16  C   UNL     1       0.881  16.296  20.363  0.00  0.00    +0.000 C 
ATOM     17  C   UNL     1       1.123  13.901  21.265  0.00  0.00    +0.000 C 
ATOM     18  C   UNL     1      -0.228  14.150  22.026  0.00  0.00    +0.000 C 
ATOM     19  C   UNL     1      -1.113  12.865  22.309  0.00  0.00    +0.000 C 
ATOM     20  C   UNL     1      -1.668  11.879  20.992  0.00  0.00    +0.000 C 
ATOM     21  C   UNL     1      -2.778  12.956  20.723  0.00  0.00    +0.000 C 
ATOM     22  H   UNL     1       5.535  16.697  19.683  0.00  0.00    +0.000 HD
ENDROOT
BRANCH   1  27
ATOM     23  C   UNL     1      -3.108  10.765  15.849  0.00  0.00    +0.000 A 
ATOM     24  C   UNL     1      -4.333  11.385  15.982  0.00  0.00    +0.000 A 
ATOM     25  N   UNL     1      -4.878  11.752  17.175  0.00  0.00    +0.000 NA
ATOM     26  C   UNL     1      -4.102  11.619  18.288  0.00  0.00    +0.000 A 
ATOM     27  C   UNL     1      -2.826  11.090  18.319  0.00  0.00    +0.000 A 
ATOM     28  C   UNL     1      -2.386  10.574  17.031  0.00  0.00    +0.000 A 
BRANCH  23  29
ATOM     29  O   UNL     1      -2.690  10.518  14.570  0.00  0.00    +0.000 OA
BRANCH  29  30
ATOM     30  C   UNL     1      -3.288   9.429  13.870  0.00  0.00    +0.000 C 
BRANCH  30  32
ATOM     31  C   UNL     1      -5.290   9.509  12.330  0.00  0.00    +0.000 C 
ATOM     32  C   UNL     1      -3.834   9.916  12.519  0.00  0.00    +0.000 C 
ENDBRANCH  30  32
ENDBRANCH  29  30
ENDBRANCH  23  29
ENDBRANCH   1  27
TORSDOF 4
ENDMDL
