MODEL 1
REMARK VINA RESULT:      -8.8      0.000      0.000
REMARK  Name = 
REMARK  6 active torsions:
REMARK  status: ('A' for Active; 'I' for Inactive)
REMARK    1  A    between atoms: C_1  and  C_2
REMARK    2  A    between atoms: C_5  and  N_6
REMARK    3  A    between atoms: C_12  and  C_13
REMARK    4  A    between atoms: C_13  and  C_14
REMARK    5  A    between atoms: C_20  and  C_22
REMARK    6  A    between atoms: C_27  and  N_28
REMARK                            x       y       z     vdW  Elec       q    Type
REMARK                         _______ _______ _______ _____ _____    ______ ____
ROOT
ATOM      1  C   UNL     1       2.236   5.030  19.566  0.00  0.00    +0.000 C 
ATOM      2  C   UNL     1       1.485   4.481  20.834  0.00  0.00    +0.000 C 
ATOM      3  O   UNL     1       0.908   3.180  20.665  0.00  0.00    +0.000 OA
ATOM      4  C   UNL     1       1.873   2.258  20.152  0.00  0.00    +0.000 C 
ATOM      5  C   UNL     1       2.344   2.744  18.784  0.00  0.00    +0.000 C 
ATOM      6  N   UNL     1       3.110   4.006  18.925  0.00  0.00    +0.000 N 
ATOM      7  C   UNL     1       4.054   4.222  17.880  0.00  0.00    +0.000 C 
ATOM      8  O   UNL     1       4.107   3.447  16.915  0.00  0.00    +0.000 OA
ENDROOT
BRANCH   7   9
ATOM      9  C   UNL     1       5.323   5.017  18.053  0.00  0.00    +0.000 A 
ATOM     10  C   UNL     1       5.721   5.079  19.417  0.00  0.00    +0.000 A 
ATOM     11  C   UNL     1       7.017   5.442  19.822  0.00  0.00    +0.000 A 
ATOM     12  C   UNL     1       7.944   5.843  18.882  0.00  0.00    +0.000 A 
ATOM     13  C   UNL     1       7.571   5.858  17.549  0.00  0.00    +0.000 A 
ATOM     14  C   UNL     1       6.305   5.369  17.106  0.00  0.00    +0.000 A 
BRANCH  14  15
ATOM     15  N   UNL     1       6.246   5.145  15.713  0.00  0.00    +0.000 N 
ATOM     16  N   UNL     1       5.452   5.812  14.825  0.00  0.00    +0.000 NA
ATOM     17  C   UNL     1       5.534   5.029  13.737  0.00  0.00    +0.000 A 
ATOM     18  C   UNL     1       6.417   3.967  13.958  0.00  0.00    +0.000 A 
ATOM     19  N   UNL     1       6.947   4.087  15.167  0.00  0.00    +0.000 NA
ENDBRANCH  14  15
ENDBRANCH   7   9
BRANCH   1  20
ATOM     20  C   UNL     1       2.784   6.420  19.893  0.00  0.00    +0.000 C 
BRANCH  20  27
ATOM     21  C   UNL     1       3.110   7.782  17.231  0.00  0.00    +0.000 C 
ATOM     22  C   UNL     1       2.219   8.325  18.317  0.00  0.00    +0.000 A 
ATOM     23  C   UNL     1       1.643   9.591  18.099  0.00  0.00    +0.000 A 
ATOM     24  C   UNL     1       0.850  10.199  19.069  0.00  0.00    +0.000 A 
ATOM     25  C   UNL     1       0.605   9.542  20.279  0.00  0.00    +0.000 A 
ATOM     26  C   UNL     1       1.164   8.275  20.501  0.00  0.00    +0.000 A 
ATOM     27  C   UNL     1       2.012   7.672  19.555  0.00  0.00    +0.000 A 
BRANCH  25  28
ATOM     28  N   UNL     1      -0.154  10.176  21.297  0.00  0.00    +0.000 N 
ATOM     29  N   UNL     1      -0.400   9.581  22.502  0.00  0.00    +0.000 NA
ATOM     30  C   UNL     1      -1.030  10.546  23.171  0.00  0.00    +0.000 A 
ATOM     31  C   UNL     1      -1.156  11.680  22.367  0.00  0.00    +0.000 A 
ATOM     32  N   UNL     1      -0.640  11.444  21.161  0.00  0.00    +0.000 NA
ENDBRANCH  25  28
ENDBRANCH  20  27
ENDBRANCH   1  20
TORSDOF 5
ENDMDL
MODEL 2
REMARK VINA RESULT:      -8.1      1.591      8.256
REMARK  Name = 
REMARK  6 active torsions:
REMARK  status: ('A' for Active; 'I' for Inactive)
REMARK    1  A    between atoms: C_1  and  C_2
REMARK    2  A    between atoms: C_5  and  N_6
REMARK    3  A    between atoms: C_12  and  C_13
REMARK    4  A    between atoms: C_13  and  C_14
REMARK    5  A    between atoms: C_20  and  C_22
REMARK    6  A    between atoms: C_27  and  N_28
REMARK                            x       y       z     vdW  Elec       q    Type
REMARK                         _______ _______ _______ _____ _____    ______ ____
ROOT
ATOM      1  C   UNL     1       2.787   4.229  18.486  0.00  0.00    +0.000 C 
ATOM      2  C   UNL     1       2.133   3.053  17.673  0.00  0.00    +0.000 C 
ATOM      3  O   UNL     1       1.425   2.099  18.474  0.00  0.00    +0.000 OA
ATOM      4  C   UNL     1       0.497   2.753  19.342  0.00  0.00    +0.000 C 
ATOM      5  C   UNL     1       1.264   3.678  20.282  0.00  0.00    +0.000 C 
ATOM      6  N   UNL     1       1.871   4.795  19.519  0.00  0.00    +0.000 N 
ATOM      7  C   UNL     1       2.082   5.971  20.295  0.00  0.00    +0.000 C 
ATOM      8  O   UNL     1       1.858   5.964  21.513  0.00  0.00    +0.000 OA
ENDROOT
BRANCH   7   9
ATOM      9  C   UNL     1       2.087   7.362  19.716  0.00  0.00    +0.000 A 
ATOM     10  C   UNL     1       2.454   7.358  18.341  0.00  0.00    +0.000 A 
ATOM     11  C   UNL     1       2.207   8.439  17.478  0.00  0.00    +0.000 A 
ATOM     12  C   UNL     1       1.662   9.605  17.975  0.00  0.00    +0.000 A 
ATOM     13  C   UNL     1       1.352   9.669  19.322  0.00  0.00    +0.000 A 
ATOM     14  C   UNL     1       1.473   8.540  20.187  0.00  0.00    +0.000 A 
BRANCH  14  15
ATOM     15  N   UNL     1       0.793   8.698  21.416  0.00  0.00    +0.000 N 
ATOM     16  N   UNL     1      -0.534   8.466  21.634  0.00  0.00    +0.000 NA
ATOM     17  C   UNL     1      -0.726   9.055  22.825  0.00  0.00    +0.000 A 
ATOM     18  C   UNL     1       0.479   9.556  23.329  0.00  0.00    +0.000 A 
ATOM     19  N   UNL     1       1.460   9.248  22.493  0.00  0.00    +0.000 NA
ENDBRANCH  14  15
ENDBRANCH   7   9
BRANCH   1  20
ATOM     20  C   UNL     1       3.510   5.152  17.504  0.00  0.00    +0.000 C 
BRANCH  20  27
ATOM     21  C   UNL     1       5.843   5.177  19.403  0.00  0.00    +0.000 C 
ATOM     22  C   UNL     1       6.000   4.922  17.927  0.00  0.00    +0.000 A 
ATOM     23  C   UNL     1       7.314   4.836  17.428  0.00  0.00    +0.000 A 
ATOM     24  C   UNL     1       7.559   4.658  16.069  0.00  0.00    +0.000 A 
ATOM     25  C   UNL     1       6.487   4.548  15.178  0.00  0.00    +0.000 A 
ATOM     26  C   UNL     1       5.175   4.619  15.665  0.00  0.00    +0.000 A 
ATOM     27  C   UNL     1       4.911   4.854  17.027  0.00  0.00    +0.000 A 
BRANCH  25  28
ATOM     28  N   UNL     1       6.725   4.423  13.784  0.00  0.00    +0.000 N 
ATOM     29  N   UNL     1       7.583   5.246  13.113  0.00  0.00    +0.000 NA
ATOM     30  C   UNL     1       7.587   4.716  11.890  0.00  0.00    +0.000 A 
ATOM     31  C   UNL     1       6.738   3.608  11.847  0.00  0.00    +0.000 A 
ATOM     32  N   UNL     1       6.154   3.436  13.033  0.00  0.00    +0.000 NA
ENDBRANCH  25  28
ENDBRANCH  20  27
ENDBRANCH   1  20
TORSDOF 5
ENDMDL
MODEL 3
REMARK VINA RESULT:      -7.5      1.606      8.168
REMARK  Name = 
REMARK  6 active torsions:
REMARK  status: ('A' for Active; 'I' for Inactive)
REMARK    1  A    between atoms: C_1  and  C_2
REMARK    2  A    between atoms: C_5  and  N_6
REMARK    3  A    between atoms: C_12  and  C_13
REMARK    4  A    between atoms: C_13  and  C_14
REMARK    5  A    between atoms: C_20  and  C_22
REMARK    6  A    between atoms: C_27  and  N_28
REMARK                            x       y       z     vdW  Elec       q    Type
REMARK                         _______ _______ _______ _____ _____    ______ ____
ROOT
ATOM      1  C   UNL     1       2.691   4.346  18.619  0.00  0.00    +0.000 C 
ATOM      2  C   UNL     1       2.003   3.134  17.891  0.00  0.00    +0.000 C 
ATOM      3  O   UNL     1       1.275   2.256  18.758  0.00  0.00    +0.000 OA
ATOM      4  C   UNL     1       0.369   2.992  19.583  0.00  0.00    +0.000 C 
ATOM      5  C   UNL     1       1.165   3.958  20.454  0.00  0.00    +0.000 C 
ATOM      6  N   UNL     1       1.796   5.004  19.614  0.00  0.00    +0.000 N 
ATOM      7  C   UNL     1       2.041   6.225  20.307  0.00  0.00    +0.000 C 
ATOM      8  O   UNL     1       1.824   6.307  21.524  0.00  0.00    +0.000 OA
ENDROOT
BRANCH   7   9
ATOM      9  C   UNL     1       2.079   7.573  19.634  0.00  0.00    +0.000 A 
ATOM     10  C   UNL     1       2.427   7.464  18.259  0.00  0.00    +0.000 A 
ATOM     11  C   UNL     1       2.200   8.491  17.327  0.00  0.00    +0.000 A 
ATOM     12  C   UNL     1       1.696   9.703  17.749  0.00  0.00    +0.000 A 
ATOM     13  C   UNL     1       1.406   9.868  19.092  0.00  0.00    +0.000 A 
ATOM     14  C   UNL     1       1.506   8.798  20.031  0.00  0.00    +0.000 A 
BRANCH  14  15
ATOM     15  N   UNL     1       0.848   9.059  21.253  0.00  0.00    +0.000 N 
ATOM     16  N   UNL     1       1.426   9.559  22.385  0.00  0.00    +0.000 NA
ATOM     17  C   UNL     1       0.481   9.317  23.308  0.00  0.00    +0.000 A 
ATOM     18  C   UNL     1      -0.656   8.757  22.717  0.00  0.00    +0.000 A 
ATOM     19  N   UNL     1      -0.472   8.682  21.407  0.00  0.00    +0.000 NA
ENDBRANCH  14  15
ENDBRANCH   7   9
BRANCH   1  20
ATOM     20  C   UNL     1       3.432   5.181  17.573  0.00  0.00    +0.000 C 
BRANCH  20  27
ATOM     21  C   UNL     1       5.607   5.081  19.650  0.00  0.00    +0.000 C 
ATOM     22  C   UNL     1       5.877   4.891  18.181  0.00  0.00    +0.000 A 
ATOM     23  C   UNL     1       7.226   4.807  17.784  0.00  0.00    +0.000 A 
ATOM     24  C   UNL     1       7.577   4.686  16.441  0.00  0.00    +0.000 A 
ATOM     25  C   UNL     1       6.578   4.634  15.465  0.00  0.00    +0.000 A 
ATOM     26  C   UNL     1       5.232   4.704  15.849  0.00  0.00    +0.000 A 
ATOM     27  C   UNL     1       4.863   4.882  17.195  0.00  0.00    +0.000 A 
BRANCH  25  28
ATOM     28  N   UNL     1       6.924   4.569  14.089  0.00  0.00    +0.000 N 
ATOM     29  N   UNL     1       6.336   3.686  13.229  0.00  0.00    +0.000 NA
ATOM     30  C   UNL     1       6.862   4.039  12.056  0.00  0.00    +0.000 A 
ATOM     31  C   UNL     1       7.747   5.104  12.232  0.00  0.00    +0.000 A 
ATOM     32  N   UNL     1       7.826   5.423  13.524  0.00  0.00    +0.000 NA
ENDBRANCH  25  28
ENDBRANCH  20  27
ENDBRANCH   1  20
TORSDOF 5
ENDMDL
MODEL 4
REMARK VINA RESULT:      -7.3      3.715      9.342
REMARK  Name = 
REMARK  6 active torsions:
REMARK  status: ('A' for Active; 'I' for Inactive)
REMARK    1  A    between atoms: C_1  and  C_2
REMARK    2  A    between atoms: C_5  and  N_6
REMARK    3  A    between atoms: C_12  and  C_13
REMARK    4  A    between atoms: C_13  and  C_14
REMARK    5  A    between atoms: C_20  and  C_22
REMARK    6  A    between atoms: C_27  and  N_28
REMARK                            x       y       z     vdW  Elec       q    Type
REMARK                         _______ _______ _______ _____ _____    ______ ____
ROOT
ATOM      1  C   UNL     1      -0.009  10.121  20.951  0.00  0.00    +0.000 C 
ATOM      2  C   UNL     1      -0.082   9.381  22.336  0.00  0.00    +0.000 C 
ATOM      3  O   UNL     1      -0.068  10.250  23.476  0.00  0.00    +0.000 OA
ATOM      4  C   UNL     1      -1.056  11.276  23.344  0.00  0.00    +0.000 C 
ATOM      5  C   UNL     1      -0.739  12.115  22.110  0.00  0.00    +0.000 C 
ATOM      6  N   UNL     1      -0.915  11.304  20.881  0.00  0.00    +0.000 N 
ATOM      7  C   UNL     1      -1.221  12.077  19.724  0.00  0.00    +0.000 C 
ATOM      8  O   UNL     1      -1.221  13.314  19.781  0.00  0.00    +0.000 OA
ENDROOT
BRANCH   7   9
ATOM      9  C   UNL     1      -2.019  11.552  18.558  0.00  0.00    +0.000 A 
ATOM     10  C   UNL     1      -1.226  10.735  17.704  0.00  0.00    +0.000 A 
ATOM     11  C   UNL     1      -1.776   9.851  16.761  0.00  0.00    +0.000 A 
ATOM     12  C   UNL     1      -3.142   9.811  16.571  0.00  0.00    +0.000 A 
ATOM     13  C   UNL     1      -3.941  10.640  17.338  0.00  0.00    +0.000 A 
ATOM     14  C   UNL     1      -3.414  11.448  18.390  0.00  0.00    +0.000 A 
BRANCH  14  15
ATOM     15  N   UNL     1      -4.404  11.944  19.268  0.00  0.00    +0.000 N 
ATOM     16  N   UNL     1      -4.199  12.815  20.299  0.00  0.00    +0.000 NA
ATOM     17  C   UNL     1      -5.348  12.708  20.984  0.00  0.00    +0.000 A 
ATOM     18  C   UNL     1      -6.237  11.851  20.328  0.00  0.00    +0.000 A 
ATOM     19  N   UNL     1      -5.688  11.441  19.194  0.00  0.00    +0.000 NA
ENDBRANCH  14  15
ENDBRANCH   7   9
BRANCH   1  20
ATOM     20  C   UNL     1      -0.021   9.070  19.841  0.00  0.00    +0.000 C 
BRANCH  20  27
ATOM     21  C   UNL     1       1.912  10.023  17.742  0.00  0.00    +0.000 C 
ATOM     22  C   UNL     1       2.082   8.715  18.468  0.00  0.00    +0.000 A 
ATOM     23  C   UNL     1       3.114   7.867  18.025  0.00  0.00    +0.000 A 
ATOM     24  C   UNL     1       3.314   6.613  18.598  0.00  0.00    +0.000 A 
ATOM     25  C   UNL     1       2.487   6.187  19.642  0.00  0.00    +0.000 A 
ATOM     26  C   UNL     1       1.464   7.028  20.099  0.00  0.00    +0.000 A 
ATOM     27  C   UNL     1       1.214   8.274  19.494  0.00  0.00    +0.000 A 
BRANCH  25  28
ATOM     28  N   UNL     1       2.644   4.889  20.195  0.00  0.00    +0.000 N 
ATOM     29  N   UNL     1       2.051   4.519  21.368  0.00  0.00    +0.000 NA
ATOM     30  C   UNL     1       2.363   3.225  21.448  0.00  0.00    +0.000 A 
ATOM     31  C   UNL     1       3.132   2.851  20.345  0.00  0.00    +0.000 A 
ATOM     32  N   UNL     1       3.351   3.908  19.562  0.00  0.00    +0.000 NA
ENDBRANCH  25  28
ENDBRANCH  20  27
ENDBRANCH   1  20
TORSDOF 5
ENDMDL
MODEL 5
REMARK VINA RESULT:      -7.2      5.919     10.308
REMARK  Name = 
REMARK  6 active torsions:
REMARK  status: ('A' for Active; 'I' for Inactive)
REMARK    1  A    between atoms: C_1  and  C_2
REMARK    2  A    between atoms: C_5  and  N_6
REMARK    3  A    between atoms: C_12  and  C_13
REMARK    4  A    between atoms: C_13  and  C_14
REMARK    5  A    between atoms: C_20  and  C_22
REMARK    6  A    between atoms: C_27  and  N_28
REMARK                            x       y       z     vdW  Elec       q    Type
REMARK                         _______ _______ _______ _____ _____    ______ ____
ROOT
ATOM      1  C   UNL     1      -3.925  12.814  21.400  0.00  0.00    +0.000 C 
ATOM      2  C   UNL     1      -5.328  12.680  22.097  0.00  0.00    +0.000 C 
ATOM      3  O   UNL     1      -5.273  12.553  23.523  0.00  0.00    +0.000 OA
ATOM      4  C   UNL     1      -4.469  13.589  24.095  0.00  0.00    +0.000 C 
ATOM      5  C   UNL     1      -3.046  13.466  23.557  0.00  0.00    +0.000 C 
ATOM      6  N   UNL     1      -3.020  13.767  22.106  0.00  0.00    +0.000 N 
ATOM      7  C   UNL     1      -1.762  14.250  21.644  0.00  0.00    +0.000 C 
ATOM      8  O   UNL     1      -0.789  14.291  22.410  0.00  0.00    +0.000 OA
ENDROOT
BRANCH   7   9
ATOM      9  C   UNL     1      -1.604  15.170  20.461  0.00  0.00    +0.000 A 
ATOM     10  C   UNL     1      -2.526  16.253  20.512  0.00  0.00    +0.000 A 
ATOM     11  C   UNL     1      -2.376  17.424  19.750  0.00  0.00    +0.000 A 
ATOM     12  C   UNL     1      -1.345  17.525  18.839  0.00  0.00    +0.000 A 
ATOM     13  C   UNL     1      -0.466  16.463  18.715  0.00  0.00    +0.000 A 
ATOM     14  C   UNL     1      -0.523  15.322  19.570  0.00  0.00    +0.000 A 
BRANCH  14  15
ATOM     15  N   UNL     1       0.644  14.526  19.524  0.00  0.00    +0.000 N 
ATOM     16  N   UNL     1       0.685  13.171  19.362  0.00  0.00    +0.000 NA
ATOM     17  C   UNL     1       1.953  12.891  19.704  0.00  0.00    +0.000 A 
ATOM     18  C   UNL     1       2.660  14.063  19.987  0.00  0.00    +0.000 A 
ATOM     19  N   UNL     1       1.870  15.107  19.781  0.00  0.00    +0.000 NA
ENDBRANCH  14  15
ENDBRANCH   7   9
BRANCH   1  20
ATOM     20  C   UNL     1      -4.144  12.928  19.891  0.00  0.00    +0.000 C 
BRANCH  20  27
ATOM     21  C   UNL     1      -5.488  12.031  17.353  0.00  0.00    +0.000 C 
ATOM     22  C   UNL     1      -4.119  11.555  17.760  0.00  0.00    +0.000 A 
ATOM     23  C   UNL     1      -3.533  10.545  16.972  0.00  0.00    +0.000 A 
ATOM     24  C   UNL     1      -2.293  10.001  17.301  0.00  0.00    +0.000 A 
ATOM     25  C   UNL     1      -1.605  10.471  18.423  0.00  0.00    +0.000 A 
ATOM     26  C   UNL     1      -2.173  11.485  19.207  0.00  0.00    +0.000 A 
ATOM     27  C   UNL     1      -3.448  12.005  18.921  0.00  0.00    +0.000 A 
BRANCH  25  28
ATOM     28  N   UNL     1      -0.367   9.886  18.801  0.00  0.00    +0.000 N 
ATOM     29  N   UNL     1       0.615   9.605  17.895  0.00  0.00    +0.000 NA
ATOM     30  C   UNL     1       1.610   9.186  18.677  0.00  0.00    +0.000 A 
ATOM     31  C   UNL     1       1.211   9.214  20.014  0.00  0.00    +0.000 A 
ATOM     32  N   UNL     1      -0.056   9.619  20.103  0.00  0.00    +0.000 NA
ENDBRANCH  25  28
ENDBRANCH  20  27
ENDBRANCH   1  20
TORSDOF 5
ENDMDL
MODEL 6
REMARK VINA RESULT:      -7.1      7.661     10.491
REMARK  Name = 
REMARK  6 active torsions:
REMARK  status: ('A' for Active; 'I' for Inactive)
REMARK    1  A    between atoms: C_1  and  C_2
REMARK    2  A    between atoms: C_5  and  N_6
REMARK    3  A    between atoms: C_12  and  C_13
REMARK    4  A    between atoms: C_13  and  C_14
REMARK    5  A    between atoms: C_20  and  C_22
REMARK    6  A    between atoms: C_27  and  N_28
REMARK                            x       y       z     vdW  Elec       q    Type
REMARK                         _______ _______ _______ _____ _____    ______ ____
ROOT
ATOM      1  C   UNL     1      -3.794  14.204  21.916  0.00  0.00    +0.000 C 
ATOM      2  C   UNL     1      -4.548  15.050  20.826  0.00  0.00    +0.000 C 
ATOM      3  O   UNL     1      -4.328  16.463  20.915  0.00  0.00    +0.000 OA
ATOM      4  C   UNL     1      -2.930  16.758  20.973  0.00  0.00    +0.000 C 
ATOM      5  C   UNL     1      -2.339  16.112  22.222  0.00  0.00    +0.000 C 
ATOM      6  N   UNL     1      -2.378  14.634  22.101  0.00  0.00    +0.000 N 
ATOM      7  C   UNL     1      -1.377  13.971  22.869  0.00  0.00    +0.000 C 
ATOM      8  O   UNL     1      -0.643  14.616  23.629  0.00  0.00    +0.000 OA
ENDROOT
BRANCH   7   9
ATOM      9  C   UNL     1      -0.792  12.633  22.497  0.00  0.00    +0.000 A 
ATOM     10  C   UNL     1      -1.226  11.606  23.381  0.00  0.00    +0.000 A 
ATOM     11  C   UNL     1      -1.126  10.238  23.075  0.00  0.00    +0.000 A 
ATOM     12  C   UNL     1      -0.505   9.837  21.909  0.00  0.00    +0.000 A 
ATOM     13  C   UNL     1      -0.011  10.808  21.056  0.00  0.00    +0.000 A 
ATOM     14  C   UNL     1      -0.219  12.202  21.284  0.00  0.00    +0.000 A 
BRANCH  14  15
ATOM     15  N   UNL     1       0.046  13.002  20.150  0.00  0.00    +0.000 N 
ATOM     16  N   UNL     1      -0.847  13.325  19.170  0.00  0.00    +0.000 NA
ATOM     17  C   UNL     1      -0.041  13.804  18.208  0.00  0.00    +0.000 A 
ATOM     18  C   UNL     1       1.287  13.832  18.645  0.00  0.00    +0.000 A 
ATOM     19  N   UNL     1       1.339  13.421  19.903  0.00  0.00    +0.000 NA
ENDBRANCH  14  15
ENDBRANCH   7   9
BRANCH   1  20
ATOM     20  C   UNL     1      -4.132  12.728  21.701  0.00  0.00    +0.000 C 
BRANCH  20  27
ATOM     21  C   UNL     1      -7.126  12.440  21.653  0.00  0.00    +0.000 C 
ATOM     22  C   UNL     1      -6.257  12.079  20.478  0.00  0.00    +0.000 A 
ATOM     23  C   UNL     1      -6.886  11.455  19.384  0.00  0.00    +0.000 A 
ATOM     24  C   UNL     1      -6.156  11.034  18.275  0.00  0.00    +0.000 A 
ATOM     25  C   UNL     1      -4.775  11.244  18.233  0.00  0.00    +0.000 A 
ATOM     26  C   UNL     1      -4.139  11.876  19.311  0.00  0.00    +0.000 A 
ATOM     27  C   UNL     1      -4.854  12.257  20.461  0.00  0.00    +0.000 A 
BRANCH  25  28
ATOM     28  N   UNL     1      -4.011  10.769  17.134  0.00  0.00    +0.000 N 
ATOM     29  N   UNL     1      -4.167  11.262  15.870  0.00  0.00    +0.000 NA
ATOM     30  C   UNL     1      -3.201  10.632  15.200  0.00  0.00    +0.000 A 
ATOM     31  C   UNL     1      -2.502   9.782  16.057  0.00  0.00    +0.000 A 
ATOM     32  N   UNL     1      -3.032   9.830  17.279  0.00  0.00    +0.000 NA
ENDBRANCH  25  28
ENDBRANCH  20  27
ENDBRANCH   1  20
TORSDOF 5
ENDMDL
MODEL 7
REMARK VINA RESULT:      -7.1      4.302      9.494
REMARK  Name = 
REMARK  6 active torsions:
REMARK  status: ('A' for Active; 'I' for Inactive)
REMARK    1  A    between atoms: C_1  and  C_2
REMARK    2  A    between atoms: C_5  and  N_6
REMARK    3  A    between atoms: C_12  and  C_13
REMARK    4  A    between atoms: C_13  and  C_14
REMARK    5  A    between atoms: C_20  and  C_22
REMARK    6  A    between atoms: C_27  and  N_28
REMARK                            x       y       z     vdW  Elec       q    Type
REMARK                         _______ _______ _______ _____ _____    ______ ____
ROOT
ATOM      1  C   UNL     1       1.707  12.897  20.311  0.00  0.00    +0.000 C 
ATOM      2  C   UNL     1       2.857  13.804  20.882  0.00  0.00    +0.000 C 
ATOM      3  O   UNL     1       3.527  14.602  19.898  0.00  0.00    +0.000 OA
ATOM      4  C   UNL     1       2.585  15.335  19.111  0.00  0.00    +0.000 C 
ATOM      5  C   UNL     1       1.679  14.350  18.378  0.00  0.00    +0.000 C 
ATOM      6  N   UNL     1       0.827  13.619  19.347  0.00  0.00    +0.000 N 
ATOM      7  C   UNL     1      -0.398  13.150  18.793  0.00  0.00    +0.000 C 
ATOM      8  O   UNL     1      -0.625  13.278  17.582  0.00  0.00    +0.000 OA
ENDROOT
BRANCH   7   9
ATOM      9  C   UNL     1      -1.656  12.949  19.599  0.00  0.00    +0.000 A 
ATOM     10  C   UNL     1      -1.828  13.976  20.568  0.00  0.00    +0.000 A 
ATOM     11  C   UNL     1      -3.055  14.234  21.202  0.00  0.00    +0.000 A 
ATOM     12  C   UNL     1      -4.140  13.418  20.959  0.00  0.00    +0.000 A 
ATOM     13  C   UNL     1      -3.991  12.367  20.070  0.00  0.00    +0.000 A 
ATOM     14  C   UNL     1      -2.795  12.168  19.318  0.00  0.00    +0.000 A 
BRANCH  14  15
ATOM     15  N   UNL     1      -2.955  11.278  18.233  0.00  0.00    +0.000 N 
ATOM     16  N   UNL     1      -2.210  10.158  17.997  0.00  0.00    +0.000 NA
ATOM     17  C   UNL     1      -2.538   9.870  16.727  0.00  0.00    +0.000 A 
ATOM     18  C   UNL     1      -3.511  10.757  16.254  0.00  0.00    +0.000 A 
ATOM     19  N   UNL     1      -3.852  11.587  17.229  0.00  0.00    +0.000 NA
ENDBRANCH  14  15
ENDBRANCH   7   9
BRANCH   1  20
ATOM     20  C   UNL     1       1.099  12.102  21.468  0.00  0.00    +0.000 C 
BRANCH  20  27
ATOM     21  C   UNL     1      -1.127  10.904  23.099  0.00  0.00    +0.000 C 
ATOM     22  C   UNL     1      -0.311  10.099  22.123  0.00  0.00    +0.000 A 
ATOM     23  C   UNL     1      -0.530   8.708  22.100  0.00  0.00    +0.000 A 
ATOM     24  C   UNL     1       0.216   7.873  21.271  0.00  0.00    +0.000 A 
ATOM     25  C   UNL     1       1.191   8.420  20.432  0.00  0.00    +0.000 A 
ATOM     26  C   UNL     1       1.409   9.805  20.437  0.00  0.00    +0.000 A 
ATOM     27  C   UNL     1       0.704  10.654  21.309  0.00  0.00    +0.000 A 
BRANCH  25  28
ATOM     28  N   UNL     1       1.997   7.575  19.624  0.00  0.00    +0.000 N 
ATOM     29  N   UNL     1       2.514   7.984  18.428  0.00  0.00    +0.000 NA
ATOM     30  C   UNL     1       3.274   6.946  18.078  0.00  0.00    +0.000 A 
ATOM     31  C   UNL     1       3.192   5.946  19.049  0.00  0.00    +0.000 A 
ATOM     32  N   UNL     1       2.353   6.317  20.016  0.00  0.00    +0.000 NA
ENDBRANCH  25  28
ENDBRANCH  20  27
ENDBRANCH   1  20
TORSDOF 5
ENDMDL
MODEL 8
REMARK VINA RESULT:      -7.1      6.951     10.611
REMARK  Name = 
REMARK  6 active torsions:
REMARK  status: ('A' for Active; 'I' for Inactive)
REMARK    1  A    between atoms: C_1  and  C_2
REMARK    2  A    between atoms: C_5  and  N_6
REMARK    3  A    between atoms: C_12  and  C_13
REMARK    4  A    between atoms: C_13  and  C_14
REMARK    5  A    between atoms: C_20  and  C_22
REMARK    6  A    between atoms: C_27  and  N_28
REMARK                            x       y       z     vdW  Elec       q    Type
REMARK                         _______ _______ _______ _____ _____    ______ ____
ROOT
ATOM      1  C   UNL     1      -0.760  11.595  20.025  0.00  0.00    +0.000 C 
ATOM      2  C   UNL     1      -0.678  10.139  19.438  0.00  0.00    +0.000 C 
ATOM      3  O   UNL     1       0.190   9.256  20.159  0.00  0.00    +0.000 OA
ATOM      4  C   UNL     1      -0.116   9.273  21.556  0.00  0.00    +0.000 C 
ATOM      5  C   UNL     1       0.099  10.684  22.094  0.00  0.00    +0.000 C 
ATOM      6  N   UNL     1      -0.900  11.611  21.510  0.00  0.00    +0.000 N 
ATOM      7  C   UNL     1      -1.178  12.744  22.329  0.00  0.00    +0.000 C 
ATOM      8  O   UNL     1      -0.535  12.934  23.370  0.00  0.00    +0.000 OA
ENDROOT
BRANCH   7   9
ATOM      9  C   UNL     1      -2.496  13.475  22.321  0.00  0.00    +0.000 A 
ATOM     10  C   UNL     1      -3.479  12.794  23.091  0.00  0.00    +0.000 A 
ATOM     11  C   UNL     1      -4.662  13.407  23.540  0.00  0.00    +0.000 A 
ATOM     12  C   UNL     1      -4.951  14.701  23.162  0.00  0.00    +0.000 A 
ATOM     13  C   UNL     1      -4.048  15.374  22.358  0.00  0.00    +0.000 A 
ATOM     14  C   UNL     1      -2.783  14.817  22.001  0.00  0.00    +0.000 A 
BRANCH  14  15
ATOM     15  N   UNL     1      -1.876  15.769  21.484  0.00  0.00    +0.000 N 
ATOM     16  N   UNL     1      -1.518  15.907  20.173  0.00  0.00    +0.000 NA
ATOM     17  C   UNL     1      -0.437  16.698  20.264  0.00  0.00    +0.000 A 
ATOM     18  C   UNL     1      -0.212  17.078  21.591  0.00  0.00    +0.000 A 
ATOM     19  N   UNL     1      -1.172  16.577  22.354  0.00  0.00    +0.000 NA
ENDBRANCH  14  15
ENDBRANCH   7   9
BRANCH   1  20
ATOM     20  C   UNL     1      -1.708  12.417  19.149  0.00  0.00    +0.000 C 
BRANCH  20  27
ATOM     21  C   UNL     1      -2.411  11.146  16.515  0.00  0.00    +0.000 C 
ATOM     22  C   UNL     1      -3.433  11.403  17.591  0.00  0.00    +0.000 A 
ATOM     23  C   UNL     1      -4.781  11.157  17.266  0.00  0.00    +0.000 A 
ATOM     24  C   UNL     1      -5.802  11.418  18.177  0.00  0.00    +0.000 A 
ATOM     25  C   UNL     1      -5.490  11.919  19.444  0.00  0.00    +0.000 A 
ATOM     26  C   UNL     1      -4.151  12.156  19.783  0.00  0.00    +0.000 A 
ATOM     27  C   UNL     1      -3.113  11.950  18.856  0.00  0.00    +0.000 A 
BRANCH  25  28
ATOM     28  N   UNL     1      -6.526  12.242  20.361  0.00  0.00    +0.000 N 
ATOM     29  N   UNL     1      -6.952  11.368  21.319  0.00  0.00    +0.000 NA
ATOM     30  C   UNL     1      -7.827  12.104  22.005  0.00  0.00    +0.000 A 
ATOM     31  C   UNL     1      -7.915  13.381  21.450  0.00  0.00    +0.000 A 
ATOM     32  N   UNL     1      -7.123  13.469  20.381  0.00  0.00    +0.000 NA
ENDBRANCH  25  28
ENDBRANCH  20  27
ENDBRANCH   1  20
TORSDOF 5
ENDMDL
MODEL 9
REMARK VINA RESULT:      -7.1      4.801     11.498
REMARK  Name = 
REMARK  6 active torsions:
REMARK  status: ('A' for Active; 'I' for Inactive)
REMARK    1  A    between atoms: C_1  and  C_2
REMARK    2  A    between atoms: C_5  and  N_6
REMARK    3  A    between atoms: C_12  and  C_13
REMARK    4  A    between atoms: C_13  and  C_14
REMARK    5  A    between atoms: C_20  and  C_22
REMARK    6  A    between atoms: C_27  and  N_28
REMARK                            x       y       z     vdW  Elec       q    Type
REMARK                         _______ _______ _______ _____ _____    ______ ____
ROOT
ATOM      1  C   UNL     1      -2.893  11.482  19.064  0.00  0.00    +0.000 C 
ATOM      2  C   UNL     1      -2.494  11.386  17.547  0.00  0.00    +0.000 C 
ATOM      3  O   UNL     1      -3.572  11.038  16.669  0.00  0.00    +0.000 OA
ATOM      4  C   UNL     1      -4.702  11.887  16.891  0.00  0.00    +0.000 C 
ATOM      5  C   UNL     1      -5.186  11.704  18.326  0.00  0.00    +0.000 C 
ATOM      6  N   UNL     1      -4.173  12.219  19.278  0.00  0.00    +0.000 N 
ATOM      7  C   UNL     1      -4.719  12.636  20.526  0.00  0.00    +0.000 C 
ATOM      8  O   UNL     1      -5.920  12.460  20.772  0.00  0.00    +0.000 OA
ENDROOT
BRANCH   7   9
ATOM      9  C   UNL     1      -4.103  13.706  21.391  0.00  0.00    +0.000 A 
ATOM     10  C   UNL     1      -3.264  14.572  20.636  0.00  0.00    +0.000 A 
ATOM     11  C   UNL     1      -2.851  15.834  21.098  0.00  0.00    +0.000 A 
ATOM     12  C   UNL     1      -3.188  16.244  22.371  0.00  0.00    +0.000 A 
ATOM     13  C   UNL     1      -3.949  15.398  23.159  0.00  0.00    +0.000 A 
ATOM     14  C   UNL     1      -4.487  14.173  22.663  0.00  0.00    +0.000 A 
BRANCH  14  15
ATOM     15  N   UNL     1      -5.503  13.633  23.483  0.00  0.00    +0.000 N 
ATOM     16  N   UNL     1      -5.504  12.390  24.047  0.00  0.00    +0.000 NA
ATOM     17  C   UNL     1      -6.783  12.262  24.436  0.00  0.00    +0.000 A 
ATOM     18  C   UNL     1      -7.498  13.435  24.173  0.00  0.00    +0.000 A 
ATOM     19  N   UNL     1      -6.676  14.340  23.663  0.00  0.00    +0.000 NA
ENDBRANCH  14  15
ENDBRANCH   7   9
BRANCH   1  20
ATOM     20  C   UNL     1      -1.646  11.848  19.870  0.00  0.00    +0.000 C 
BRANCH  20  27
ATOM     21  C   UNL     1      -1.420  11.712  22.866  0.00  0.00    +0.000 C 
ATOM     22  C   UNL     1      -0.672  10.778  21.952  0.00  0.00    +0.000 A 
ATOM     23  C   UNL     1       0.267   9.914  22.549  0.00  0.00    +0.000 A 
ATOM     24  C   UNL     1       1.046   9.053  21.780  0.00  0.00    +0.000 A 
ATOM     25  C   UNL     1       0.891   9.030  20.391  0.00  0.00    +0.000 A 
ATOM     26  C   UNL     1      -0.050   9.877  19.787  0.00  0.00    +0.000 A 
ATOM     27  C   UNL     1      -0.805  10.791  20.544  0.00  0.00    +0.000 A 
BRANCH  25  28
ATOM     28  N   UNL     1       1.719   8.199  19.591  0.00  0.00    +0.000 N 
ATOM     29  N   UNL     1       2.141   8.570  18.347  0.00  0.00    +0.000 NA
ATOM     30  C   UNL     1       2.962   7.572  18.017  0.00  0.00    +0.000 A 
ATOM     31  C   UNL     1       3.010   6.633  19.049  0.00  0.00    +0.000 A 
ATOM     32  N   UNL     1       2.194   7.000  20.037  0.00  0.00    +0.000 NA
ENDBRANCH  25  28
ENDBRANCH  20  27
ENDBRANCH   1  20
TORSDOF 5
ENDMDL
