MODEL 1
REMARK VINA RESULT:      -8.2      0.000      0.000
REMARK  Name = 
REMARK  11 active torsions:
REMARK  status: ('A' for Active; 'I' for Inactive)
REMARK    1  A    between atoms: C_1  and  C_2
REMARK    2  A    between atoms: C_4  and  N_5
REMARK    3  A    between atoms: N_5  and  S_6
REMARK    4  A    between atoms: S_6  and  C_9
REMARK    5  A    between atoms: C_12  and  N_13
REMARK    6  A    between atoms: C_14  and  C_16
REMARK    7  A    between atoms: C_16  and  C_17
REMARK    8  A    between atoms: C_17  and  C_18
REMARK    9  A    between atoms: C_18  and  C_19
REMARK   10  A    between atoms: C_19  and  O_21
REMARK   11  A    between atoms: C_25  and  C_26
REMARK                            x       y       z     vdW  Elec       q    Type
REMARK                         _______ _______ _______ _____ _____    ______ ____
ROOT
ATOM      1  C   UNL     1       3.373   4.936  18.921  0.00  0.00    +0.000 A 
ATOM      2  C   UNL     1       3.060   5.705  17.804  0.00  0.00    +0.000 A 
ATOM      3  C   UNL     1       2.430   6.942  17.979  0.00  0.00    +0.000 A 
ATOM      4  C   UNL     1       2.109   7.426  19.254  0.00  0.00    +0.000 A 
ATOM      5  C   UNL     1       2.418   6.634  20.368  0.00  0.00    +0.000 A 
ATOM      6  C   UNL     1       3.027   5.383  20.200  0.00  0.00    +0.000 A 
ENDROOT
BRANCH   4   7
ATOM      7  N   UNL     1       1.490   8.683  19.471  0.00  0.00    +0.000 N 
ATOM      8  C   UNL     1       1.478   9.721  18.557  0.00  0.00    +0.000 C 
ATOM      9  O   UNL     1       1.983   9.690  17.439  0.00  0.00    +0.000 OA
ATOM     10  H   UNL     1       0.943   8.786  20.316  0.00  0.00    +0.000 HD
BRANCH   8  11
ATOM     11  C   UNL     1       0.748  10.971  19.012  0.00  0.00    +0.000 C 
BRANCH  11  12
ATOM     12  C   UNL     1      -0.774  10.789  18.856  0.00  0.00    +0.000 C 
BRANCH  12  13
ATOM     13  C   UNL     1      -1.427  11.838  17.945  0.00  0.00    +0.000 C 
BRANCH  13  14
ATOM     14  C   UNL     1      -2.645  11.293  17.240  0.00  0.00    +0.000 C 
ATOM     15  O   UNL     1      -3.592  10.764  17.801  0.00  0.00    +0.000 OA
BRANCH  14  16
ATOM     16  O   UNL     1      -2.595  11.445  15.898  0.00  0.00    +0.000 OA
ATOM     17  H   UNL     1      -3.138  12.183  15.559  0.00  0.00    +0.000 HD
ENDBRANCH  14  16
ENDBRANCH  13  14
ENDBRANCH  12  13
ENDBRANCH  11  12
ENDBRANCH   8  11
ENDBRANCH   4   7
BRANCH   1  18
ATOM     18  S   UNL     1       4.160   3.357  18.745  0.00  0.00    +0.000 S 
ATOM     19  O   UNL     1       3.937   2.898  17.388  0.00  0.00    +0.000 OA
ATOM     20  O   UNL     1       3.778   2.520  19.867  0.00  0.00    +0.000 OA
BRANCH  18  21
ATOM     21  N   UNL     1       5.787   3.701  18.859  0.00  0.00    +0.000 N 
ATOM     22  H   UNL     1       6.130   3.680  19.814  0.00  0.00    +0.000 HD
BRANCH  21  26
ATOM     23  C   UNL     1       7.988   8.003  17.874  0.00  0.00    +0.000 C 
ATOM     24  C   UNL     1       7.374   6.688  17.503  0.00  0.00    +0.000 A 
ATOM     25  C   UNL     1       6.817   5.864  18.455  0.00  0.00    +0.000 A 
ATOM     26  C   UNL     1       6.321   4.670  17.988  0.00  0.00    +0.000 A 
ATOM     27  N   UNL     1       6.335   4.293  16.705  0.00  0.00    +0.000 NA
ATOM     28  C   UNL     1       6.891   5.160  15.846  0.00  0.00    +0.000 A 
ATOM     29  C   UNL     1       6.948   4.787  14.397  0.00  0.00    +0.000 C 
ATOM     30  N   UNL     1       7.417   6.349  16.197  0.00  0.00    +0.000 NA
ENDBRANCH  21  26
ENDBRANCH  18  21
ENDBRANCH   1  18
TORSDOF 9
ENDMDL
MODEL 2
REMARK VINA RESULT:      -8.1      1.855      2.991
REMARK  Name = 
REMARK  11 active torsions:
REMARK  status: ('A' for Active; 'I' for Inactive)
REMARK    1  A    between atoms: C_1  and  C_2
REMARK    2  A    between atoms: C_4  and  N_5
REMARK    3  A    between atoms: N_5  and  S_6
REMARK    4  A    between atoms: S_6  and  C_9
REMARK    5  A    between atoms: C_12  and  N_13
REMARK    6  A    between atoms: C_14  and  C_16
REMARK    7  A    between atoms: C_16  and  C_17
REMARK    8  A    between atoms: C_17  and  C_18
REMARK    9  A    between atoms: C_18  and  C_19
REMARK   10  A    between atoms: C_19  and  O_21
REMARK   11  A    between atoms: C_25  and  C_26
REMARK                            x       y       z     vdW  Elec       q    Type
REMARK                         _______ _______ _______ _____ _____    ______ ____
ROOT
ATOM      1  C   UNL     1       3.291   5.050  19.005  0.00  0.00    +0.000 A 
ATOM      2  C   UNL     1       2.698   5.370  20.222  0.00  0.00    +0.000 A 
ATOM      3  C   UNL     1       2.098   6.625  20.383  0.00  0.00    +0.000 A 
ATOM      4  C   UNL     1       2.079   7.565  19.344  0.00  0.00    +0.000 A 
ATOM      5  C   UNL     1       2.693   7.233  18.130  0.00  0.00    +0.000 A 
ATOM      6  C   UNL     1       3.317   5.989  17.968  0.00  0.00    +0.000 A 
ENDROOT
BRANCH   4   7
ATOM      7  N   UNL     1       1.462   8.837  19.464  0.00  0.00    +0.000 N 
ATOM      8  C   UNL     1       1.484   9.815  18.487  0.00  0.00    +0.000 C 
ATOM      9  O   UNL     1       2.021   9.711  17.388  0.00  0.00    +0.000 OA
ATOM     10  H   UNL     1       0.892   8.995  20.284  0.00  0.00    +0.000 HD
BRANCH   8  11
ATOM     11  C   UNL     1       0.750  11.094  18.840  0.00  0.00    +0.000 C 
BRANCH  11  12
ATOM     12  C   UNL     1       0.957  11.438  20.328  0.00  0.00    +0.000 C 
BRANCH  12  13
ATOM     13  C   UNL     1      -0.320  11.309  21.171  0.00  0.00    +0.000 C 
BRANCH  13  14
ATOM     14  C   UNL     1      -0.086  10.518  22.434  0.00  0.00    +0.000 C 
ATOM     15  O   UNL     1      -0.810  10.550  23.416  0.00  0.00    +0.000 OA
BRANCH  14  16
ATOM     16  O   UNL     1       1.025   9.750  22.382  0.00  0.00    +0.000 OA
ATOM     17  H   UNL     1       1.075   9.072  23.083  0.00  0.00    +0.000 HD
ENDBRANCH  14  16
ENDBRANCH  13  14
ENDBRANCH  12  13
ENDBRANCH  11  12
ENDBRANCH   8  11
ENDBRANCH   4   7
BRANCH   1  18
ATOM     18  S   UNL     1       4.074   3.478  18.761  0.00  0.00    +0.000 S 
ATOM     19  O   UNL     1       3.850   3.078  17.385  0.00  0.00    +0.000 OA
ATOM     20  O   UNL     1       3.689   2.595  19.846  0.00  0.00    +0.000 OA
BRANCH  18  21
ATOM     21  N   UNL     1       5.702   3.813  18.889  0.00  0.00    +0.000 N 
ATOM     22  H   UNL     1       6.000   3.964  19.848  0.00  0.00    +0.000 HD
BRANCH  21  26
ATOM     23  C   UNL     1       6.949   4.777  14.217  0.00  0.00    +0.000 C 
ATOM     24  C   UNL     1       6.882   5.078  15.682  0.00  0.00    +0.000 A 
ATOM     25  C   UNL     1       6.333   4.182  16.573  0.00  0.00    +0.000 A 
ATOM     26  C   UNL     1       6.298   4.596  17.883  0.00  0.00    +0.000 A 
ATOM     27  N   UNL     1       6.769   5.769  18.321  0.00  0.00    +0.000 NA
ATOM     28  C   UNL     1       7.291   6.576  17.386  0.00  0.00    +0.000 A 
ATOM     29  C   UNL     1       7.822   7.909  17.814  0.00  0.00    +0.000 C 
ATOM     30  N   UNL     1       7.364   6.277  16.075  0.00  0.00    +0.000 NA
ENDBRANCH  21  26
ENDBRANCH  18  21
ENDBRANCH   1  18
TORSDOF 9
ENDMDL
MODEL 3
REMARK VINA RESULT:      -8.1      0.689      1.125
REMARK  Name = 
REMARK  11 active torsions:
REMARK  status: ('A' for Active; 'I' for Inactive)
REMARK    1  A    between atoms: C_1  and  C_2
REMARK    2  A    between atoms: C_4  and  N_5
REMARK    3  A    between atoms: N_5  and  S_6
REMARK    4  A    between atoms: S_6  and  C_9
REMARK    5  A    between atoms: C_12  and  N_13
REMARK    6  A    between atoms: C_14  and  C_16
REMARK    7  A    between atoms: C_16  and  C_17
REMARK    8  A    between atoms: C_17  and  C_18
REMARK    9  A    between atoms: C_18  and  C_19
REMARK   10  A    between atoms: C_19  and  O_21
REMARK   11  A    between atoms: C_25  and  C_26
REMARK                            x       y       z     vdW  Elec       q    Type
REMARK                         _______ _______ _______ _____ _____    ______ ____
ROOT
ATOM      1  C   UNL     1       3.286   4.947  19.101  0.00  0.00    +0.000 A 
ATOM      2  C   UNL     1       2.572   5.128  20.281  0.00  0.00    +0.000 A 
ATOM      3  C   UNL     1       1.991   6.374  20.544  0.00  0.00    +0.000 A 
ATOM      4  C   UNL     1       2.110   7.442  19.645  0.00  0.00    +0.000 A 
ATOM      5  C   UNL     1       2.845   7.248  18.469  0.00  0.00    +0.000 A 
ATOM      6  C   UNL     1       3.450   6.011  18.208  0.00  0.00    +0.000 A 
ENDROOT
BRANCH   4   7
ATOM      7  N   UNL     1       1.518   8.711  19.869  0.00  0.00    +0.000 N 
ATOM      8  C   UNL     1       1.110   9.575  18.869  0.00  0.00    +0.000 C 
ATOM      9  O   UNL     1       1.191   9.357  17.665  0.00  0.00    +0.000 OA
ATOM     10  H   UNL     1       1.297   8.952  20.826  0.00  0.00    +0.000 HD
BRANCH   8  11
ATOM     11  C   UNL     1       0.499  10.876  19.353  0.00  0.00    +0.000 C 
BRANCH  11  12
ATOM     12  C   UNL     1      -0.941  10.640  19.850  0.00  0.00    +0.000 C 
BRANCH  12  13
ATOM     13  C   UNL     1      -1.994  11.457  19.088  0.00  0.00    +0.000 C 
BRANCH  13  14
ATOM     14  C   UNL     1      -1.878  11.275  17.595  0.00  0.00    +0.000 C 
ATOM     15  O   UNL     1      -2.067  10.220  17.009  0.00  0.00    +0.000 OA
BRANCH  14  16
ATOM     16  O   UNL     1      -1.537  12.410  16.946  0.00  0.00    +0.000 OA
ATOM     17  H   UNL     1      -0.917  12.274  16.203  0.00  0.00    +0.000 HD
ENDBRANCH  14  16
ENDBRANCH  13  14
ENDBRANCH  12  13
ENDBRANCH  11  12
ENDBRANCH   8  11
ENDBRANCH   4   7
BRANCH   1  18
ATOM     18  S   UNL     1       4.050   3.389  18.732  0.00  0.00    +0.000 S 
ATOM     19  O   UNL     1       3.813   3.098  17.331  0.00  0.00    +0.000 OA
ATOM     20  O   UNL     1       3.662   2.430  19.748  0.00  0.00    +0.000 OA
BRANCH  18  21
ATOM     21  N   UNL     1       5.682   3.696  18.873  0.00  0.00    +0.000 N 
ATOM     22  H   UNL     1       6.009   3.666  19.834  0.00  0.00    +0.000 HD
BRANCH  21  26
ATOM     23  C   UNL     1       8.032   7.928  17.933  0.00  0.00    +0.000 C 
ATOM     24  C   UNL     1       7.375   6.638  17.548  0.00  0.00    +0.000 A 
ATOM     25  C   UNL     1       6.786   5.825  18.492  0.00  0.00    +0.000 A 
ATOM     26  C   UNL     1       6.253   4.653  18.013  0.00  0.00    +0.000 A 
ATOM     27  N   UNL     1       6.261   4.285  16.727  0.00  0.00    +0.000 NA
ATOM     28  C   UNL     1       6.850   5.140  15.878  0.00  0.00    +0.000 A 
ATOM     29  C   UNL     1       6.902   4.776  14.426  0.00  0.00    +0.000 C 
ATOM     30  N   UNL     1       7.414   6.307  16.240  0.00  0.00    +0.000 NA
ENDBRANCH  21  26
ENDBRANCH  18  21
ENDBRANCH   1  18
TORSDOF 9
ENDMDL
MODEL 4
REMARK VINA RESULT:      -7.9      1.960      2.172
REMARK  Name = 
REMARK  11 active torsions:
REMARK  status: ('A' for Active; 'I' for Inactive)
REMARK    1  A    between atoms: C_1  and  C_2
REMARK    2  A    between atoms: C_4  and  N_5
REMARK    3  A    between atoms: N_5  and  S_6
REMARK    4  A    between atoms: S_6  and  C_9
REMARK    5  A    between atoms: C_12  and  N_13
REMARK    6  A    between atoms: C_14  and  C_16
REMARK    7  A    between atoms: C_16  and  C_17
REMARK    8  A    between atoms: C_17  and  C_18
REMARK    9  A    between atoms: C_18  and  C_19
REMARK   10  A    between atoms: C_19  and  O_21
REMARK   11  A    between atoms: C_25  and  C_26
REMARK                            x       y       z     vdW  Elec       q    Type
REMARK                         _______ _______ _______ _____ _____    ______ ____
ROOT
ATOM      1  C   UNL     1       2.554   4.766  18.864  0.00  0.00    +0.000 A 
ATOM      2  C   UNL     1       2.558   6.012  18.245  0.00  0.00    +0.000 A 
ATOM      3  C   UNL     1       2.244   7.150  18.996  0.00  0.00    +0.000 A 
ATOM      4  C   UNL     1       1.928   7.064  20.358  0.00  0.00    +0.000 A 
ATOM      5  C   UNL     1       1.914   5.801  20.963  0.00  0.00    +0.000 A 
ATOM      6  C   UNL     1       2.203   4.653  20.213  0.00  0.00    +0.000 A 
ENDROOT
BRANCH   4   7
ATOM      7  N   UNL     1       1.625   8.197  21.156  0.00  0.00    +0.000 N 
ATOM      8  C   UNL     1       0.362   8.517  21.619  0.00  0.00    +0.000 C 
ATOM      9  O   UNL     1      -0.656   7.861  21.420  0.00  0.00    +0.000 OA
ATOM     10  H   UNL     1       2.406   8.752  21.480  0.00  0.00    +0.000 HD
BRANCH   8  11
ATOM     11  C   UNL     1       0.285   9.778  22.459  0.00  0.00    +0.000 C 
BRANCH  11  12
ATOM     12  C   UNL     1      -0.458  10.889  21.691  0.00  0.00    +0.000 C 
BRANCH  12  13
ATOM     13  C   UNL     1       0.313  11.410  20.470  0.00  0.00    +0.000 C 
BRANCH  13  14
ATOM     14  C   UNL     1      -0.432  11.157  19.183  0.00  0.00    +0.000 C 
ATOM     15  O   UNL     1      -1.259  10.273  19.023  0.00  0.00    +0.000 OA
BRANCH  14  16
ATOM     16  O   UNL     1      -0.095  12.017  18.196  0.00  0.00    +0.000 OA
ATOM     17  H   UNL     1       0.534  12.713  18.470  0.00  0.00    +0.000 HD
ENDBRANCH  14  16
ENDBRANCH  13  14
ENDBRANCH  12  13
ENDBRANCH  11  12
ENDBRANCH   8  11
ENDBRANCH   4   7
BRANCH   1  18
ATOM     18  S   UNL     1       2.933   3.295  17.948  0.00  0.00    +0.000 S 
ATOM     19  O   UNL     1       2.636   3.552  16.552  0.00  0.00    +0.000 OA
ATOM     20  O   UNL     1       2.331   2.160  18.621  0.00  0.00    +0.000 OA
BRANCH  18  21
ATOM     21  N   UNL     1       4.592   3.169  18.055  0.00  0.00    +0.000 N 
ATOM     22  H   UNL     1       4.910   2.919  18.985  0.00  0.00    +0.000 HD
BRANCH  21  26
ATOM     23  C   UNL     1       7.485   7.135  17.586  0.00  0.00    +0.000 C 
ATOM     24  C   UNL     1       6.754   5.933  17.072  0.00  0.00    +0.000 A 
ATOM     25  C   UNL     1       5.957   5.172  17.899  0.00  0.00    +0.000 A 
ATOM     26  C   UNL     1       5.374   4.075  17.313  0.00  0.00    +0.000 A 
ATOM     27  N   UNL     1       5.519   3.734  16.027  0.00  0.00    +0.000 NA
ATOM     28  C   UNL     1       6.307   4.535  15.295  0.00  0.00    +0.000 A 
ATOM     29  C   UNL     1       6.519   4.197  13.852  0.00  0.00    +0.000 C 
ATOM     30  N   UNL     1       6.937   5.626  15.770  0.00  0.00    +0.000 NA
ENDBRANCH  21  26
ENDBRANCH  18  21
ENDBRANCH   1  18
TORSDOF 9
ENDMDL
MODEL 5
REMARK VINA RESULT:      -7.9      1.200      1.954
REMARK  Name = 
REMARK  11 active torsions:
REMARK  status: ('A' for Active; 'I' for Inactive)
REMARK    1  A    between atoms: C_1  and  C_2
REMARK    2  A    between atoms: C_4  and  N_5
REMARK    3  A    between atoms: N_5  and  S_6
REMARK    4  A    between atoms: S_6  and  C_9
REMARK    5  A    between atoms: C_12  and  N_13
REMARK    6  A    between atoms: C_14  and  C_16
REMARK    7  A    between atoms: C_16  and  C_17
REMARK    8  A    between atoms: C_17  and  C_18
REMARK    9  A    between atoms: C_18  and  C_19
REMARK   10  A    between atoms: C_19  and  O_21
REMARK   11  A    between atoms: C_25  and  C_26
REMARK                            x       y       z     vdW  Elec       q    Type
REMARK                         _______ _______ _______ _____ _____    ______ ____
ROOT
ATOM      1  C   UNL     1       3.350   5.151  18.952  0.00  0.00    +0.000 A 
ATOM      2  C   UNL     1       3.383   6.021  17.866  0.00  0.00    +0.000 A 
ATOM      3  C   UNL     1       2.772   7.275  17.975  0.00  0.00    +0.000 A 
ATOM      4  C   UNL     1       2.129   7.676  19.154  0.00  0.00    +0.000 A 
ATOM      5  C   UNL     1       2.092   6.783  20.233  0.00  0.00    +0.000 A 
ATOM      6  C   UNL     1       2.681   5.517  20.124  0.00  0.00    +0.000 A 
ENDROOT
BRANCH   4   7
ATOM      7  N   UNL     1       1.517   8.946  19.308  0.00  0.00    +0.000 N 
ATOM      8  C   UNL     1       0.660   9.286  20.338  0.00  0.00    +0.000 C 
ATOM      9  O   UNL     1       0.328   8.547  21.260  0.00  0.00    +0.000 OA
ATOM     10  H   UNL     1       1.806   9.675  18.669  0.00  0.00    +0.000 HD
BRANCH   8  11
ATOM     11  C   UNL     1       0.133  10.707  20.296  0.00  0.00    +0.000 C 
BRANCH  11  12
ATOM     12  C   UNL     1      -0.348  11.058  18.874  0.00  0.00    +0.000 C 
BRANCH  12  13
ATOM     13  C   UNL     1      -1.846  11.389  18.797  0.00  0.00    +0.000 C 
BRANCH  13  14
ATOM     14  C   UNL     1      -2.418  11.101  17.432  0.00  0.00    +0.000 C 
ATOM     15  O   UNL     1      -2.017  10.223  16.684  0.00  0.00    +0.000 OA
BRANCH  14  16
ATOM     16  O   UNL     1      -3.439  11.921  17.100  0.00  0.00    +0.000 OA
ATOM     17  H   UNL     1      -3.311  12.849  17.374  0.00  0.00    +0.000 HD
ENDBRANCH  14  16
ENDBRANCH  13  14
ENDBRANCH  12  13
ENDBRANCH  11  12
ENDBRANCH   8  11
ENDBRANCH   4   7
BRANCH   1  18
ATOM     18  S   UNL     1       4.101   3.547  18.853  0.00  0.00    +0.000 S 
ATOM     19  O   UNL     1       3.872   3.030  17.518  0.00  0.00    +0.000 OA
ATOM     20  O   UNL     1       3.696   2.773  20.011  0.00  0.00    +0.000 OA
BRANCH  18  21
ATOM     21  N   UNL     1       5.735   3.859  18.957  0.00  0.00    +0.000 N 
ATOM     22  H   UNL     1       6.050   4.009  19.911  0.00  0.00    +0.000 HD
BRANCH  21  26
ATOM     23  C   UNL     1       6.955   4.775  14.268  0.00  0.00    +0.000 C 
ATOM     24  C   UNL     1       6.900   5.090  15.731  0.00  0.00    +0.000 A 
ATOM     25  C   UNL     1       6.352   4.205  16.634  0.00  0.00    +0.000 A 
ATOM     26  C   UNL     1       6.328   4.631  17.940  0.00  0.00    +0.000 A 
ATOM     27  N   UNL     1       6.808   5.805  18.365  0.00  0.00    +0.000 NA
ATOM     28  C   UNL     1       7.329   6.600  17.418  0.00  0.00    +0.000 A 
ATOM     29  C   UNL     1       7.869   7.935  17.830  0.00  0.00    +0.000 C 
ATOM     30  N   UNL     1       7.390   6.289  16.110  0.00  0.00    +0.000 NA
ENDBRANCH  21  26
ENDBRANCH  18  21
ENDBRANCH   1  18
TORSDOF 9
ENDMDL
MODEL 6
REMARK VINA RESULT:      -7.9      2.110      2.871
REMARK  Name = 
REMARK  11 active torsions:
REMARK  status: ('A' for Active; 'I' for Inactive)
REMARK    1  A    between atoms: C_1  and  C_2
REMARK    2  A    between atoms: C_4  and  N_5
REMARK    3  A    between atoms: N_5  and  S_6
REMARK    4  A    between atoms: S_6  and  C_9
REMARK    5  A    between atoms: C_12  and  N_13
REMARK    6  A    between atoms: C_14  and  C_16
REMARK    7  A    between atoms: C_16  and  C_17
REMARK    8  A    between atoms: C_17  and  C_18
REMARK    9  A    between atoms: C_18  and  C_19
REMARK   10  A    between atoms: C_19  and  O_21
REMARK   11  A    between atoms: C_25  and  C_26
REMARK                            x       y       z     vdW  Elec       q    Type
REMARK                         _______ _______ _______ _____ _____    ______ ____
ROOT
ATOM      1  C   UNL     1       3.289   5.165  19.101  0.00  0.00    +0.000 A 
ATOM      2  C   UNL     1       3.398   6.130  18.104  0.00  0.00    +0.000 A 
ATOM      3  C   UNL     1       2.782   7.373  18.285  0.00  0.00    +0.000 A 
ATOM      4  C   UNL     1       2.061   7.670  19.449  0.00  0.00    +0.000 A 
ATOM      5  C   UNL     1       1.949   6.683  20.436  0.00  0.00    +0.000 A 
ATOM      6  C   UNL     1       2.542   5.427  20.253  0.00  0.00    +0.000 A 
ENDROOT
BRANCH   4   7
ATOM      7  N   UNL     1       1.441   8.926  19.676  0.00  0.00    +0.000 N 
ATOM      8  C   UNL     1       0.782   9.663  18.710  0.00  0.00    +0.000 C 
ATOM      9  O   UNL     1       0.631   9.327  17.539  0.00  0.00    +0.000 OA
ATOM     10  H   UNL     1       1.403   9.252  20.633  0.00  0.00    +0.000 HD
BRANCH   8  11
ATOM     11  C   UNL     1       0.195  10.976  19.190  0.00  0.00    +0.000 C 
BRANCH  11  12
ATOM     12  C   UNL     1      -0.530  10.778  20.536  0.00  0.00    +0.000 C 
BRANCH  12  13
ATOM     13  C   UNL     1      -0.875  12.095  21.246  0.00  0.00    +0.000 C 
BRANCH  13  14
ATOM     14  C   UNL     1      -0.867  11.946  22.747  0.00  0.00    +0.000 C 
ATOM     15  O   UNL     1      -1.305  12.777  23.528  0.00  0.00    +0.000 OA
BRANCH  14  16
ATOM     16  O   UNL     1      -0.317  10.784  23.163  0.00  0.00    +0.000 OA
ATOM     17  H   UNL     1      -0.397  10.626  24.124  0.00  0.00    +0.000 HD
ENDBRANCH  14  16
ENDBRANCH  13  14
ENDBRANCH  12  13
ENDBRANCH  11  12
ENDBRANCH   8  11
ENDBRANCH   4   7
BRANCH   1  18
ATOM     18  S   UNL     1       4.043   3.571  18.908  0.00  0.00    +0.000 S 
ATOM     19  O   UNL     1       3.800   3.126  17.549  0.00  0.00    +0.000 OA
ATOM     20  O   UNL     1       3.653   2.734  20.026  0.00  0.00    +0.000 OA
BRANCH  18  21
ATOM     21  N   UNL     1       5.678   3.882  19.010  0.00  0.00    +0.000 N 
ATOM     22  H   UNL     1       5.987   4.065  19.960  0.00  0.00    +0.000 HD
BRANCH  21  26
ATOM     23  C   UNL     1       6.932   4.621  14.299  0.00  0.00    +0.000 C 
ATOM     24  C   UNL     1       6.868   4.990  15.749  0.00  0.00    +0.000 A 
ATOM     25  C   UNL     1       6.312   4.140  16.680  0.00  0.00    +0.000 A 
ATOM     26  C   UNL     1       6.279   4.614  17.969  0.00  0.00    +0.000 A 
ATOM     27  N   UNL     1       6.758   5.803  18.353  0.00  0.00    +0.000 NA
ATOM     28  C   UNL     1       7.286   6.562  17.382  0.00  0.00    +0.000 A 
ATOM     29  C   UNL     1       7.825   7.910  17.748  0.00  0.00    +0.000 C 
ATOM     30  N   UNL     1       7.357   6.202  16.086  0.00  0.00    +0.000 NA
ENDBRANCH  21  26
ENDBRANCH  18  21
ENDBRANCH   1  18
TORSDOF 9
ENDMDL
MODEL 7
REMARK VINA RESULT:      -7.8      3.185      9.096
REMARK  Name = 
REMARK  11 active torsions:
REMARK  status: ('A' for Active; 'I' for Inactive)
REMARK    1  A    between atoms: C_1  and  C_2
REMARK    2  A    between atoms: C_4  and  N_5
REMARK    3  A    between atoms: N_5  and  S_6
REMARK    4  A    between atoms: S_6  and  C_9
REMARK    5  A    between atoms: C_12  and  N_13
REMARK    6  A    between atoms: C_14  and  C_16
REMARK    7  A    between atoms: C_16  and  C_17
REMARK    8  A    between atoms: C_17  and  C_18
REMARK    9  A    between atoms: C_18  and  C_19
REMARK   10  A    between atoms: C_19  and  O_21
REMARK   11  A    between atoms: C_25  and  C_26
REMARK                            x       y       z     vdW  Elec       q    Type
REMARK                         _______ _______ _______ _____ _____    ______ ____
ROOT
ATOM      1  C   UNL     1       1.413   8.387  20.269  0.00  0.00    +0.000 A 
ATOM      2  C   UNL     1       1.868   8.689  18.989  0.00  0.00    +0.000 A 
ATOM      3  C   UNL     1       2.522   7.701  18.244  0.00  0.00    +0.000 A 
ATOM      4  C   UNL     1       2.725   6.413  18.756  0.00  0.00    +0.000 A 
ATOM      5  C   UNL     1       2.274   6.129  20.051  0.00  0.00    +0.000 A 
ATOM      6  C   UNL     1       1.640   7.119  20.814  0.00  0.00    +0.000 A 
ENDROOT
BRANCH   4   7
ATOM      7  N   UNL     1       3.364   5.381  18.023  0.00  0.00    +0.000 N 
ATOM      8  C   UNL     1       2.713   4.299  17.459  0.00  0.00    +0.000 C 
ATOM      9  O   UNL     1       1.504   4.095  17.503  0.00  0.00    +0.000 OA
ATOM     10  H   UNL     1       4.349   5.501  17.823  0.00  0.00    +0.000 HD
BRANCH   8  11
ATOM     11  C   UNL     1       3.607   3.325  16.716  0.00  0.00    +0.000 C 
BRANCH  11  12
ATOM     12  C   UNL     1       5.090   3.688  16.929  0.00  0.00    +0.000 C 
BRANCH  12  13
ATOM     13  C   UNL     1       5.867   3.886  15.620  0.00  0.00    +0.000 C 
BRANCH  13  14
ATOM     14  C   UNL     1       7.192   4.571  15.848  0.00  0.00    +0.000 C 
ATOM     15  O   UNL     1       7.919   4.372  16.808  0.00  0.00    +0.000 OA
BRANCH  14  16
ATOM     16  O   UNL     1       7.511   5.449  14.871  0.00  0.00    +0.000 OA
ATOM     17  H   UNL     1       8.231   6.065  15.108  0.00  0.00    +0.000 HD
ENDBRANCH  14  16
ENDBRANCH  13  14
ENDBRANCH  12  13
ENDBRANCH  11  12
ENDBRANCH   8  11
ENDBRANCH   4   7
BRANCH   1  18
ATOM     18  S   UNL     1       0.591   9.612  21.254  0.00  0.00    +0.000 S 
ATOM     19  O   UNL     1       1.503  10.024  22.303  0.00  0.00    +0.000 OA
ATOM     20  O   UNL     1      -0.733   9.125  21.592  0.00  0.00    +0.000 OA
BRANCH  18  21
ATOM     21  N   UNL     1       0.440  10.919  20.230  0.00  0.00    +0.000 N 
ATOM     22  H   UNL     1       0.977  11.725  20.535  0.00  0.00    +0.000 HD
BRANCH  21  26
ATOM     23  C   UNL     1      -3.088  10.020  16.903  0.00  0.00    +0.000 C 
ATOM     24  C   UNL     1      -2.498  10.732  18.082  0.00  0.00    +0.000 A 
ATOM     25  C   UNL     1      -1.221  10.456  18.519  0.00  0.00    +0.000 A 
ATOM     26  C   UNL     1      -0.813  11.151  19.632  0.00  0.00    +0.000 A 
ATOM     27  N   UNL     1      -1.557  12.058  20.275  0.00  0.00    +0.000 NA
ATOM     28  C   UNL     1      -2.784  12.268  19.776  0.00  0.00    +0.000 A 
ATOM     29  C   UNL     1      -3.669  13.262  20.462  0.00  0.00    +0.000 C 
ATOM     30  N   UNL     1      -3.289  11.634  18.701  0.00  0.00    +0.000 NA
ENDBRANCH  21  26
ENDBRANCH  18  21
ENDBRANCH   1  18
TORSDOF 9
ENDMDL
MODEL 8
REMARK VINA RESULT:      -7.8      3.323      8.984
REMARK  Name = 
REMARK  11 active torsions:
REMARK  status: ('A' for Active; 'I' for Inactive)
REMARK    1  A    between atoms: C_1  and  C_2
REMARK    2  A    between atoms: C_4  and  N_5
REMARK    3  A    between atoms: N_5  and  S_6
REMARK    4  A    between atoms: S_6  and  C_9
REMARK    5  A    between atoms: C_12  and  N_13
REMARK    6  A    between atoms: C_14  and  C_16
REMARK    7  A    between atoms: C_16  and  C_17
REMARK    8  A    between atoms: C_17  and  C_18
REMARK    9  A    between atoms: C_18  and  C_19
REMARK   10  A    between atoms: C_19  and  O_21
REMARK   11  A    between atoms: C_25  and  C_26
REMARK                            x       y       z     vdW  Elec       q    Type
REMARK                         _______ _______ _______ _____ _____    ______ ____
ROOT
ATOM      1  C   UNL     1       1.148   9.396  19.873  0.00  0.00    +0.000 A 
ATOM      2  C   UNL     1       1.533   9.378  18.536  0.00  0.00    +0.000 A 
ATOM      3  C   UNL     1       2.149   8.233  18.016  0.00  0.00    +0.000 A 
ATOM      4  C   UNL     1       2.384   7.104  18.812  0.00  0.00    +0.000 A 
ATOM      5  C   UNL     1       2.003   7.143  20.159  0.00  0.00    +0.000 A 
ATOM      6  C   UNL     1       1.408   8.293  20.694  0.00  0.00    +0.000 A 
ENDROOT
BRANCH   4   7
ATOM      7  N   UNL     1       2.986   5.920  18.314  0.00  0.00    +0.000 N 
ATOM      8  C   UNL     1       4.075   5.890  17.463  0.00  0.00    +0.000 C 
ATOM      9  O   UNL     1       4.674   6.874  17.040  0.00  0.00    +0.000 OA
ATOM     10  H   UNL     1       2.647   5.042  18.686  0.00  0.00    +0.000 HD
BRANCH   8  11
ATOM     11  C   UNL     1       4.546   4.503  17.069  0.00  0.00    +0.000 C 
BRANCH  11  12
ATOM     12  C   UNL     1       3.368   3.510  17.090  0.00  0.00    +0.000 C 
BRANCH  12  13
ATOM     13  C   UNL     1       3.614   2.285  17.983  0.00  0.00    +0.000 C 
BRANCH  13  14
ATOM     14  C   UNL     1       3.917   2.678  19.408  0.00  0.00    +0.000 C 
ATOM     15  O   UNL     1       3.222   3.419  20.085  0.00  0.00    +0.000 OA
BRANCH  14  16
ATOM     16  O   UNL     1       5.055   2.124  19.882  0.00  0.00    +0.000 OA
ATOM     17  H   UNL     1       5.805   2.747  19.947  0.00  0.00    +0.000 HD
ENDBRANCH  14  16
ENDBRANCH  13  14
ENDBRANCH  12  13
ENDBRANCH  11  12
ENDBRANCH   8  11
ENDBRANCH   4   7
BRANCH   1  18
ATOM     18  S   UNL     1       0.377  10.829  20.577  0.00  0.00    +0.000 S 
ATOM     19  O   UNL     1       1.410  11.623  21.215  0.00  0.00    +0.000 OA
ATOM     20  O   UNL     1      -0.786  10.407  21.335  0.00  0.00    +0.000 OA
BRANCH  18  21
ATOM     21  N   UNL     1      -0.132  11.705  19.253  0.00  0.00    +0.000 N 
ATOM     22  H   UNL     1       0.231  12.653  19.243  0.00  0.00    +0.000 HD
BRANCH  21  26
ATOM     23  C   UNL     1      -5.009  12.431  19.350  0.00  0.00    +0.000 C 
ATOM     24  C   UNL     1      -3.746  11.839  18.803  0.00  0.00    +0.000 A 
ATOM     25  C   UNL     1      -2.529  12.066  19.408  0.00  0.00    +0.000 A 
ATOM     26  C   UNL     1      -1.444  11.498  18.786  0.00  0.00    +0.000 A 
ATOM     27  N   UNL     1      -1.509  10.749  17.679  0.00  0.00    +0.000 NA
ATOM     28  C   UNL     1      -2.735  10.575  17.163  0.00  0.00    +0.000 A 
ATOM     29  C   UNL     1      -2.870   9.758  15.915  0.00  0.00    +0.000 C 
ATOM     30  N   UNL     1      -3.862  11.096  17.682  0.00  0.00    +0.000 NA
ENDBRANCH  21  26
ENDBRANCH  18  21
ENDBRANCH   1  18
TORSDOF 9
ENDMDL
MODEL 9
REMARK VINA RESULT:      -7.8      3.448      9.365
REMARK  Name = 
REMARK  11 active torsions:
REMARK  status: ('A' for Active; 'I' for Inactive)
REMARK    1  A    between atoms: C_1  and  C_2
REMARK    2  A    between atoms: C_4  and  N_5
REMARK    3  A    between atoms: N_5  and  S_6
REMARK    4  A    between atoms: S_6  and  C_9
REMARK    5  A    between atoms: C_12  and  N_13
REMARK    6  A    between atoms: C_14  and  C_16
REMARK    7  A    between atoms: C_16  and  C_17
REMARK    8  A    between atoms: C_17  and  C_18
REMARK    9  A    between atoms: C_18  and  C_19
REMARK   10  A    between atoms: C_19  and  O_21
REMARK   11  A    between atoms: C_25  and  C_26
REMARK                            x       y       z     vdW  Elec       q    Type
REMARK                         _______ _______ _______ _____ _____    ______ ____
ROOT
ATOM      1  C   UNL     1       0.804   9.664  19.162  0.00  0.00    +0.000 A 
ATOM      2  C   UNL     1       1.387   9.558  17.903  0.00  0.00    +0.000 A 
ATOM      3  C   UNL     1       2.291   8.519  17.652  0.00  0.00    +0.000 A 
ATOM      4  C   UNL     1       2.620   7.581  18.640  0.00  0.00    +0.000 A 
ATOM      5  C   UNL     1       2.036   7.710  19.906  0.00  0.00    +0.000 A 
ATOM      6  C   UNL     1       1.149   8.761  20.173  0.00  0.00    +0.000 A 
ENDROOT
BRANCH   4   7
ATOM      7  N   UNL     1       3.515   6.504  18.416  0.00  0.00    +0.000 N 
ATOM      8  C   UNL     1       3.140   5.252  17.964  0.00  0.00    +0.000 C 
ATOM      9  O   UNL     1       1.995   4.911  17.683  0.00  0.00    +0.000 OA
ATOM     10  H   UNL     1       4.503   6.702  18.505  0.00  0.00    +0.000 HD
BRANCH   8  11
ATOM     11  C   UNL     1       4.276   4.261  17.795  0.00  0.00    +0.000 C 
BRANCH  11  12
ATOM     12  C   UNL     1       4.720   4.201  16.321  0.00  0.00    +0.000 C 
BRANCH  12  13
ATOM     13  C   UNL     1       6.213   3.891  16.143  0.00  0.00    +0.000 C 
BRANCH  13  14
ATOM     14  C   UNL     1       6.903   4.912  15.273  0.00  0.00    +0.000 C 
ATOM     15  O   UNL     1       7.468   5.910  15.692  0.00  0.00    +0.000 OA
BRANCH  14  16
ATOM     16  O   UNL     1       6.837   4.620  13.956  0.00  0.00    +0.000 OA
ATOM     17  H   UNL     1       7.264   3.776  13.712  0.00  0.00    +0.000 HD
ENDBRANCH  14  16
ENDBRANCH  13  14
ENDBRANCH  12  13
ENDBRANCH  11  12
ENDBRANCH   8  11
ENDBRANCH   4   7
BRANCH   1  18
ATOM     18  S   UNL     1      -0.337  10.972  19.528  0.00  0.00    +0.000 S 
ATOM     19  O   UNL     1      -0.215  11.972  18.485  0.00  0.00    +0.000 OA
ATOM     20  O   UNL     1      -0.179  11.350  20.919  0.00  0.00    +0.000 OA
BRANCH  18  21
ATOM     21  N   UNL     1      -1.835  10.270  19.326  0.00  0.00    +0.000 N 
ATOM     22  H   UNL     1      -1.871   9.312  19.659  0.00  0.00    +0.000 HD
BRANCH  21  26
ATOM     23  C   UNL     1      -2.784   9.977  14.495  0.00  0.00    +0.000 C 
ATOM     24  C   UNL     1      -3.041  10.454  15.892  0.00  0.00    +0.000 A 
ATOM     25  C   UNL     1      -2.197  10.122  16.928  0.00  0.00    +0.000 A 
ATOM     26  C   UNL     1      -2.566  10.591  18.166  0.00  0.00    +0.000 A 
ATOM     27  N   UNL     1      -3.649  11.340  18.402  0.00  0.00    +0.000 NA
ATOM     28  C   UNL     1      -4.410  11.620  17.333  0.00  0.00    +0.000 A 
ATOM     29  C   UNL     1      -5.644  12.443  17.537  0.00  0.00    +0.000 C 
ATOM     30  N   UNL     1      -4.149  11.201  16.081  0.00  0.00    +0.000 NA
ENDBRANCH  21  26
ENDBRANCH  18  21
ENDBRANCH   1  18
TORSDOF 9
ENDMDL
