MODEL 1
REMARK VINA RESULT:      -7.5      0.000      0.000
REMARK  Name = 
REMARK  13 active torsions:
REMARK  status: ('A' for Active; 'I' for Inactive)
REMARK    1  A    between atoms: C_1  and  C_2
REMARK    2  A    between atoms: C_2  and  C_3
REMARK    3  A    between atoms: C_2  and  C_4
REMARK    4  A    between atoms: C_2  and  O_5
REMARK    5  A    between atoms: O_5  and  C_6
REMARK    6  A    between atoms: N_8  and  C_9
REMARK    7  A    between atoms: C_9  and  C_10
REMARK    8  A    between atoms: C_10  and  C_11
REMARK    9  A    between atoms: C_11  and  C_12
REMARK   10  A    between atoms: C_18  and  C_19
REMARK   11  A    between atoms: C_18  and  O_20
REMARK   12  A    between atoms: O_20  and  C_21
REMARK   13  A    between atoms: C_21  and  C_23
REMARK                            x       y       z     vdW  Elec       q    Type
REMARK                         _______ _______ _______ _____ _____    ______ ____
ROOT
ATOM      1  C   UNL     1       3.352   7.211  18.005  0.00  0.00    +0.000 C 
ATOM      2  C   UNL     1       2.651   8.263  17.535  0.00  0.00    +0.000 C 
ATOM      3  C   UNL     1       1.701   8.922  18.420  0.00  0.00    +0.000 C 
ATOM      4  C   UNL     1       1.056  10.026  18.014  0.00  0.00    +0.000 C 
ATOM      5  C   UNL     1       0.170  10.784  18.933  0.00  0.00    +0.000 C 
ATOM      6  O   UNL     1      -0.474  11.726  18.471  0.00  0.00    +0.000 OA
ATOM      7  C   UNL     1       0.190  10.437  20.430  0.00  0.00    +0.000 C 
ATOM      8  C   UNL     1       1.326  11.256  21.069  0.00  0.00    +0.000 C 
ATOM      9  C   UNL     1       0.539   8.971  20.701  0.00  0.00    +0.000 C 
ATOM     10  O   UNL     1       0.158   8.366  21.703  0.00  0.00    +0.000 OA
ATOM     11  C   UNL     1       1.484   8.351  19.738  0.00  0.00    +0.000 C 
ATOM     12  C   UNL     1       2.216   7.290  20.107  0.00  0.00    +0.000 C 
ATOM     13  O   UNL     1       3.173   6.707  19.296  0.00  0.00    +0.000 OA
ENDROOT
BRANCH   1  14
ATOM     14  C   UNL     1       4.361   6.462  17.184  0.00  0.00    +0.000 C 
BRANCH  14  15
ATOM     15  C   UNL     1       5.654   6.186  17.953  0.00  0.00    +0.000 C 
BRANCH  15  16
ATOM     16  C   UNL     1       5.799   4.711  18.326  0.00  0.00    +0.000 C 
BRANCH  16  19
ATOM     17  C   UNL     1       4.190   2.988  18.965  0.00  0.00    +0.000 C 
ATOM     18  O   UNL     1       4.828   2.656  19.954  0.00  0.00    +0.000 OA
ATOM     19  N   UNL     1       4.573   3.978  18.114  0.00  0.00    +0.000 N 
ATOM     20  H   UNL     1       3.955   4.196  17.347  0.00  0.00    +0.000 HD
BRANCH  17  21
ATOM     21  O   UNL     1       3.020   2.444  18.551  0.00  0.00    +0.000 OA
BRANCH  21  23
ATOM     22  C   UNL     1       1.462   4.190  17.800  0.00  0.00    +0.000 C 
ATOM     23  C   UNL     1       1.781   3.134  18.866  0.00  0.00    +0.000 C 
ATOM     24  C   UNL     1       1.820   3.720  20.283  0.00  0.00    +0.000 C 
ATOM     25  C   UNL     1       0.674   2.067  18.822  0.00  0.00    +0.000 C 
ENDBRANCH  21  23
ENDBRANCH  17  21
ENDBRANCH  16  19
ENDBRANCH  15  16
ENDBRANCH  14  15
ENDBRANCH   1  14
BRANCH   7  26
ATOM     26  O   UNL     1      -1.008  10.857  21.088  0.00  0.00    +0.000 OA
BRANCH  26  27
ATOM     27  C   UNL     1      -0.816  11.534  22.253  0.00  0.00    +0.000 C 
ATOM     28  O   UNL     1      -0.521  11.001  23.318  0.00  0.00    +0.000 OA
BRANCH  27  29
ATOM     29  C   UNL     1      -1.074  13.014  22.070  0.00  0.00    +0.000 C 
ATOM     30  C   UNL     1      -2.314  13.255  21.213  0.00  0.00    +0.000 C 
ATOM     31  C   UNL     1      -2.746  14.672  21.551  0.00  0.00    +0.000 C 
ATOM     32  C   UNL     1      -2.289  14.921  22.984  0.00  0.00    +0.000 C 
ATOM     33  C   UNL     1      -1.413  13.736  23.374  0.00  0.00    +0.000 C 
ENDBRANCH  27  29
ENDBRANCH  26  27
ENDBRANCH   7  26
TORSDOF 9
ENDMDL
MODEL 2
REMARK VINA RESULT:      -7.5      0.740      1.115
REMARK  Name = 
REMARK  13 active torsions:
REMARK  status: ('A' for Active; 'I' for Inactive)
REMARK    1  A    between atoms: C_1  and  C_2
REMARK    2  A    between atoms: C_2  and  C_3
REMARK    3  A    between atoms: C_2  and  C_4
REMARK    4  A    between atoms: C_2  and  O_5
REMARK    5  A    between atoms: O_5  and  C_6
REMARK    6  A    between atoms: N_8  and  C_9
REMARK    7  A    between atoms: C_9  and  C_10
REMARK    8  A    between atoms: C_10  and  C_11
REMARK    9  A    between atoms: C_11  and  C_12
REMARK   10  A    between atoms: C_18  and  C_19
REMARK   11  A    between atoms: C_18  and  O_20
REMARK   12  A    between atoms: O_20  and  C_21
REMARK   13  A    between atoms: C_21  and  C_23
REMARK                            x       y       z     vdW  Elec       q    Type
REMARK                         _______ _______ _______ _____ _____    ______ ____
ROOT
ATOM      1  C   UNL     1       3.336   7.312  18.067  0.00  0.00    +0.000 C 
ATOM      2  C   UNL     1       2.600   8.332  17.581  0.00  0.00    +0.000 C 
ATOM      3  C   UNL     1       1.616   8.961  18.450  0.00  0.00    +0.000 C 
ATOM      4  C   UNL     1       0.933  10.036  18.029  0.00  0.00    +0.000 C 
ATOM      5  C   UNL     1       0.009  10.766  18.932  0.00  0.00    +0.000 C 
ATOM      6  O   UNL     1      -0.666  11.679  18.456  0.00  0.00    +0.000 OA
ATOM      7  C   UNL     1       0.025  10.431  20.432  0.00  0.00    +0.000 C 
ATOM      8  C   UNL     1       1.122  11.299  21.077  0.00  0.00    +0.000 C 
ATOM      9  C   UNL     1       0.427   8.982  20.718  0.00  0.00    +0.000 C 
ATOM     10  O   UNL     1       0.060   8.370  21.721  0.00  0.00    +0.000 OA
ATOM     11  C   UNL     1       1.407   8.391  19.770  0.00  0.00    +0.000 C 
ATOM     12  C   UNL     1       2.175   7.362  20.156  0.00  0.00    +0.000 C 
ATOM     13  O   UNL     1       3.162   6.811  19.360  0.00  0.00    +0.000 OA
ENDROOT
BRANCH   1  14
ATOM     14  C   UNL     1       4.382   6.596  17.262  0.00  0.00    +0.000 C 
BRANCH  14  15
ATOM     15  C   UNL     1       5.628   6.262  18.085  0.00  0.00    +0.000 C 
BRANCH  15  16
ATOM     16  C   UNL     1       5.781   4.759  18.315  0.00  0.00    +0.000 C 
BRANCH  16  19
ATOM     17  C   UNL     1       3.889   3.225  18.504  0.00  0.00    +0.000 C 
ATOM     18  O   UNL     1       4.081   2.736  17.400  0.00  0.00    +0.000 OA
ATOM     19  N   UNL     1       4.662   4.208  19.042  0.00  0.00    +0.000 N 
ATOM     20  H   UNL     1       4.437   4.517  19.976  0.00  0.00    +0.000 HD
BRANCH  17  21
ATOM     21  O   UNL     1       2.900   2.886  19.366  0.00  0.00    +0.000 OA
BRANCH  21  23
ATOM     22  C   UNL     1       0.653   2.037  18.846  0.00  0.00    +0.000 C 
ATOM     23  C   UNL     1       1.537   3.274  19.050  0.00  0.00    +0.000 C 
ATOM     24  C   UNL     1       1.498   4.230  17.850  0.00  0.00    +0.000 C 
ATOM     25  C   UNL     1       1.011   4.032  20.280  0.00  0.00    +0.000 C 
ENDBRANCH  21  23
ENDBRANCH  17  21
ENDBRANCH  16  19
ENDBRANCH  15  16
ENDBRANCH  14  15
ENDBRANCH   1  14
BRANCH   7  26
ATOM     26  O   UNL     1      -1.194  10.810  21.073  0.00  0.00    +0.000 OA
BRANCH  26  27
ATOM     27  C   UNL     1      -1.044  11.417  22.282  0.00  0.00    +0.000 C 
ATOM     28  O   UNL     1      -0.372  10.961  23.203  0.00  0.00    +0.000 OA
BRANCH  27  29
ATOM     29  C   UNL     1      -1.858  12.691  22.356  0.00  0.00    +0.000 C 
ATOM     30  C   UNL     1      -2.633  12.923  21.062  0.00  0.00    +0.000 C 
ATOM     31  C   UNL     1      -3.758  13.868  21.452  0.00  0.00    +0.000 C 
ATOM     32  C   UNL     1      -4.056  13.584  22.919  0.00  0.00    +0.000 C 
ATOM     33  C   UNL     1      -2.961  12.646  23.413  0.00  0.00    +0.000 C 
ENDBRANCH  27  29
ENDBRANCH  26  27
ENDBRANCH   7  26
TORSDOF 9
ENDMDL
MODEL 3
REMARK VINA RESULT:      -7.2      1.521      2.581
REMARK  Name = 
REMARK  13 active torsions:
REMARK  status: ('A' for Active; 'I' for Inactive)
REMARK    1  A    between atoms: C_1  and  C_2
REMARK    2  A    between atoms: C_2  and  C_3
REMARK    3  A    between atoms: C_2  and  C_4
REMARK    4  A    between atoms: C_2  and  O_5
REMARK    5  A    between atoms: O_5  and  C_6
REMARK    6  A    between atoms: N_8  and  C_9
REMARK    7  A    between atoms: C_9  and  C_10
REMARK    8  A    between atoms: C_10  and  C_11
REMARK    9  A    between atoms: C_11  and  C_12
REMARK   10  A    between atoms: C_18  and  C_19
REMARK   11  A    between atoms: C_18  and  O_20
REMARK   12  A    between atoms: O_20  and  C_21
REMARK   13  A    between atoms: C_21  and  C_23
REMARK                            x       y       z     vdW  Elec       q    Type
REMARK                         _______ _______ _______ _____ _____    ______ ____
ROOT
ATOM      1  C   UNL     1       2.208   7.798  18.323  0.00  0.00    +0.000 C 
ATOM      2  C   UNL     1       1.856   7.779  19.625  0.00  0.00    +0.000 C 
ATOM      3  C   UNL     1       1.415   9.019  20.249  0.00  0.00    +0.000 C 
ATOM      4  C   UNL     1       0.971   9.016  21.514  0.00  0.00    +0.000 C 
ATOM      5  C   UNL     1       0.409  10.240  22.138  0.00  0.00    +0.000 C 
ATOM      6  O   UNL     1       0.116  10.200  23.333  0.00  0.00    +0.000 OA
ATOM      7  C   UNL     1       0.108  11.452  21.243  0.00  0.00    +0.000 C 
ATOM      8  C   UNL     1      -1.310  11.255  20.676  0.00  0.00    +0.000 C 
ATOM      9  C   UNL     1       1.028  11.540  20.023  0.00  0.00    +0.000 C 
ATOM     10  O   UNL     1       1.306  12.603  19.467  0.00  0.00    +0.000 OA
ATOM     11  C   UNL     1       1.470  10.238  19.460  0.00  0.00    +0.000 C 
ATOM     12  C   UNL     1       1.854  10.158  18.179  0.00  0.00    +0.000 C 
ATOM     13  O   UNL     1       2.203   8.970  17.562  0.00  0.00    +0.000 OA
ENDROOT
BRANCH   1  14
ATOM     14  C   UNL     1       2.671   6.580  17.579  0.00  0.00    +0.000 C 
BRANCH  14  15
ATOM     15  C   UNL     1       4.196   6.474  17.520  0.00  0.00    +0.000 C 
BRANCH  15  16
ATOM     16  C   UNL     1       4.669   5.024  17.411  0.00  0.00    +0.000 C 
BRANCH  16  19
ATOM     17  C   UNL     1       4.182   3.399  19.169  0.00  0.00    +0.000 C 
ATOM     18  O   UNL     1       5.302   3.477  19.653  0.00  0.00    +0.000 OA
ATOM     19  N   UNL     1       3.774   4.113  18.084  0.00  0.00    +0.000 N 
ATOM     20  H   UNL     1       2.816   3.999  17.787  0.00  0.00    +0.000 HD
BRANCH  17  21
ATOM     21  O   UNL     1       3.174   2.609  19.613  0.00  0.00    +0.000 OA
BRANCH  21  23
ATOM     22  C   UNL     1       0.775   3.142  19.612  0.00  0.00    +0.000 C 
ATOM     23  C   UNL     1       2.101   3.215  20.381  0.00  0.00    +0.000 C 
ATOM     24  C   UNL     1       2.461   4.646  20.801  0.00  0.00    +0.000 C 
ATOM     25  C   UNL     1       1.955   2.367  21.656  0.00  0.00    +0.000 C 
ENDBRANCH  21  23
ENDBRANCH  17  21
ENDBRANCH  16  19
ENDBRANCH  15  16
ENDBRANCH  14  15
ENDBRANCH   1  14
BRANCH   7  26
ATOM     26  O   UNL     1       0.058  12.668  21.993  0.00  0.00    +0.000 OA
BRANCH  26  27
ATOM     27  C   UNL     1      -1.116  13.350  21.906  0.00  0.00    +0.000 C 
ATOM     28  O   UNL     1      -1.477  13.974  20.911  0.00  0.00    +0.000 OA
BRANCH  27  29
ATOM     29  C   UNL     1      -1.882  13.287  23.209  0.00  0.00    +0.000 C 
ATOM     30  C   UNL     1      -1.665  14.553  24.035  0.00  0.00    +0.000 C 
ATOM     31  C   UNL     1      -2.846  14.595  24.990  0.00  0.00    +0.000 C 
ATOM     32  C   UNL     1      -3.991  13.887  24.276  0.00  0.00    +0.000 C 
ATOM     33  C   UNL     1      -3.398  13.256  23.021  0.00  0.00    +0.000 C 
ENDBRANCH  27  29
ENDBRANCH  26  27
ENDBRANCH   7  26
TORSDOF 9
ENDMDL
MODEL 4
REMARK VINA RESULT:      -7.2      1.621      3.526
REMARK  Name = 
REMARK  13 active torsions:
REMARK  status: ('A' for Active; 'I' for Inactive)
REMARK    1  A    between atoms: C_1  and  C_2
REMARK    2  A    between atoms: C_2  and  C_3
REMARK    3  A    between atoms: C_2  and  C_4
REMARK    4  A    between atoms: C_2  and  O_5
REMARK    5  A    between atoms: O_5  and  C_6
REMARK    6  A    between atoms: N_8  and  C_9
REMARK    7  A    between atoms: C_9  and  C_10
REMARK    8  A    between atoms: C_10  and  C_11
REMARK    9  A    between atoms: C_11  and  C_12
REMARK   10  A    between atoms: C_18  and  C_19
REMARK   11  A    between atoms: C_18  and  O_20
REMARK   12  A    between atoms: O_20  and  C_21
REMARK   13  A    between atoms: C_21  and  C_23
REMARK                            x       y       z     vdW  Elec       q    Type
REMARK                         _______ _______ _______ _____ _____    ______ ____
ROOT
ATOM      1  C   UNL     1       1.905   5.962  20.106  0.00  0.00    +0.000 C 
ATOM      2  C   UNL     1       1.552   6.900  21.008  0.00  0.00    +0.000 C 
ATOM      3  C   UNL     1       1.421   8.282  20.566  0.00  0.00    +0.000 C 
ATOM      4  C   UNL     1       0.984   9.222  21.416  0.00  0.00    +0.000 C 
ATOM      5  C   UNL     1       0.732  10.613  20.964  0.00  0.00    +0.000 C 
ATOM      6  O   UNL     1       0.432  11.454  21.813  0.00  0.00    +0.000 OA
ATOM      7  C   UNL     1       0.738  10.912  19.457  0.00  0.00    +0.000 C 
ATOM      8  C   UNL     1      -0.682  10.630  18.933  0.00  0.00    +0.000 C 
ATOM      9  C   UNL     1       1.660   9.980  18.665  0.00  0.00    +0.000 C 
ATOM     10  O   UNL     1       2.190  10.305  17.602  0.00  0.00    +0.000 OA
ATOM     11  C   UNL     1       1.776   8.597  19.193  0.00  0.00    +0.000 C 
ATOM     12  C   UNL     1       2.135   7.596  18.376  0.00  0.00    +0.000 C 
ATOM     13  O   UNL     1       2.189   6.273  18.773  0.00  0.00    +0.000 OA
ENDROOT
BRANCH   1  14
ATOM     14  C   UNL     1       2.063   4.509  20.449  0.00  0.00    +0.000 C 
BRANCH  14  15
ATOM     15  C   UNL     1       0.945   3.645  19.864  0.00  0.00    +0.000 C 
BRANCH  15  16
ATOM     16  C   UNL     1       1.440   2.758  18.720  0.00  0.00    +0.000 C 
BRANCH  16  19
ATOM     17  C   UNL     1       3.512   3.225  17.514  0.00  0.00    +0.000 C 
ATOM     18  O   UNL     1       4.128   2.333  18.080  0.00  0.00    +0.000 OA
ATOM     19  N   UNL     1       2.202   3.507  17.749  0.00  0.00    +0.000 N 
ATOM     20  H   UNL     1       1.779   4.242  17.201  0.00  0.00    +0.000 HD
BRANCH  17  21
ATOM     21  O   UNL     1       4.009   4.067  16.576  0.00  0.00    +0.000 OA
BRANCH  21  23
ATOM     22  C   UNL     1       6.444   4.250  16.296  0.00  0.00    +0.000 C 
ATOM     23  C   UNL     1       5.177   4.865  16.905  0.00  0.00    +0.000 C 
ATOM     24  C   UNL     1       5.294   5.075  18.420  0.00  0.00    +0.000 C 
ATOM     25  C   UNL     1       4.957   6.239  16.250  0.00  0.00    +0.000 C 
ENDBRANCH  21  23
ENDBRANCH  17  21
ENDBRANCH  16  19
ENDBRANCH  15  16
ENDBRANCH  14  15
ENDBRANCH   1  14
BRANCH   7  26
ATOM     26  O   UNL     1       0.981  12.295  19.191  0.00  0.00    +0.000 OA
BRANCH  26  27
ATOM     27  C   UNL     1      -0.119  13.014  18.835  0.00  0.00    +0.000 C 
ATOM     28  O   UNL     1      -0.676  12.925  17.745  0.00  0.00    +0.000 OA
BRANCH  27  29
ATOM     29  C   UNL     1      -0.521  13.973  19.935  0.00  0.00    +0.000 C 
ATOM     30  C   UNL     1      -0.555  15.411  19.424  0.00  0.00    +0.000 C 
ATOM     31  C   UNL     1      -1.450  16.147  20.408  0.00  0.00    +0.000 C 
ATOM     32  C   UNL     1      -2.427  15.109  20.946  0.00  0.00    +0.000 C 
ATOM     33  C   UNL     1      -1.947  13.755  20.439  0.00  0.00    +0.000 C 
ENDBRANCH  27  29
ENDBRANCH  26  27
ENDBRANCH   7  26
TORSDOF 9
ENDMDL
MODEL 5
REMARK VINA RESULT:      -7.1      3.132     10.138
REMARK  Name = 
REMARK  13 active torsions:
REMARK  status: ('A' for Active; 'I' for Inactive)
REMARK    1  A    between atoms: C_1  and  C_2
REMARK    2  A    between atoms: C_2  and  C_3
REMARK    3  A    between atoms: C_2  and  C_4
REMARK    4  A    between atoms: C_2  and  O_5
REMARK    5  A    between atoms: O_5  and  C_6
REMARK    6  A    between atoms: N_8  and  C_9
REMARK    7  A    between atoms: C_9  and  C_10
REMARK    8  A    between atoms: C_10  and  C_11
REMARK    9  A    between atoms: C_11  and  C_12
REMARK   10  A    between atoms: C_18  and  C_19
REMARK   11  A    between atoms: C_18  and  O_20
REMARK   12  A    between atoms: O_20  and  C_21
REMARK   13  A    between atoms: C_21  and  C_23
REMARK                            x       y       z     vdW  Elec       q    Type
REMARK                         _______ _______ _______ _____ _____    ______ ____
ROOT
ATOM      1  C   UNL     1       1.774   8.228  19.702  0.00  0.00    +0.000 C 
ATOM      2  C   UNL     1       2.097   6.975  20.082  0.00  0.00    +0.000 C 
ATOM      3  C   UNL     1       3.010   6.205  19.251  0.00  0.00    +0.000 C 
ATOM      4  C   UNL     1       3.423   4.992  19.647  0.00  0.00    +0.000 C 
ATOM      5  C   UNL     1       4.441   4.233  18.878  0.00  0.00    +0.000 C 
ATOM      6  O   UNL     1       4.700   3.084  19.236  0.00  0.00    +0.000 OA
ATOM      7  C   UNL     1       5.205   4.952  17.756  0.00  0.00    +0.000 C 
ATOM      8  C   UNL     1       6.414   5.649  18.406  0.00  0.00    +0.000 C 
ATOM      9  C   UNL     1       4.392   6.071  17.099  0.00  0.00    +0.000 C 
ATOM     10  O   UNL     1       4.569   6.435  15.936  0.00  0.00    +0.000 OA
ATOM     11  C   UNL     1       3.452   6.791  17.996  0.00  0.00    +0.000 C 
ATOM     12  C   UNL     1       3.060   8.037  17.696  0.00  0.00    +0.000 C 
ATOM     13  O   UNL     1       2.253   8.799  18.519  0.00  0.00    +0.000 OA
ENDROOT
BRANCH   1  14
ATOM     14  C   UNL     1       0.848   9.113  20.485  0.00  0.00    +0.000 C 
BRANCH  14  15
ATOM     15  C   UNL     1       0.330   8.438  21.756  0.00  0.00    +0.000 C 
BRANCH  15  16
ATOM     16  C   UNL     1       0.428   9.354  22.976  0.00  0.00    +0.000 C 
BRANCH  16  19
ATOM     17  C   UNL     1      -1.095  11.264  22.950  0.00  0.00    +0.000 C 
ATOM     18  O   UNL     1      -0.302  11.981  22.358  0.00  0.00    +0.000 OA
ATOM     19  N   UNL     1      -0.839   9.971  23.291  0.00  0.00    +0.000 N 
ATOM     20  H   UNL     1      -1.576   9.456  23.747  0.00  0.00    +0.000 HD
BRANCH  17  21
ATOM     21  O   UNL     1      -2.337  11.616  23.362  0.00  0.00    +0.000 OA
BRANCH  21  23
ATOM     22  C   UNL     1      -3.122  13.369  21.829  0.00  0.00    +0.000 C 
ATOM     23  C   UNL     1      -2.734  13.010  23.269  0.00  0.00    +0.000 C 
ATOM     24  C   UNL     1      -1.645  13.933  23.832  0.00  0.00    +0.000 C 
ATOM     25  C   UNL     1      -3.986  13.159  24.148  0.00  0.00    +0.000 C 
ENDBRANCH  21  23
ENDBRANCH  17  21
ENDBRANCH  16  19
ENDBRANCH  15  16
ENDBRANCH  14  15
ENDBRANCH   1  14
BRANCH   7  26
ATOM     26  O   UNL     1       5.752   4.030  16.810  0.00  0.00    +0.000 OA
BRANCH  26  27
ATOM     27  C   UNL     1       6.864   4.467  16.159  0.00  0.00    +0.000 C 
ATOM     28  O   UNL     1       7.955   4.633  16.696  0.00  0.00    +0.000 OA
BRANCH  27  29
ATOM     29  C   UNL     1       6.561   4.774  14.708  0.00  0.00    +0.000 C 
ATOM     30  C   UNL     1       7.839   5.087  13.934  0.00  0.00    +0.000 C 
ATOM     31  C   UNL     1       7.475   4.845  12.479  0.00  0.00    +0.000 C 
ATOM     32  C   UNL     1       6.385   3.780  12.488  0.00  0.00    +0.000 C 
ATOM     33  C   UNL     1       5.981   3.584  13.945  0.00  0.00    +0.000 C 
ENDBRANCH  27  29
ENDBRANCH  26  27
ENDBRANCH   7  26
TORSDOF 9
ENDMDL
MODEL 6
REMARK VINA RESULT:      -7.1      0.582      1.017
REMARK  Name = 
REMARK  13 active torsions:
REMARK  status: ('A' for Active; 'I' for Inactive)
REMARK    1  A    between atoms: C_1  and  C_2
REMARK    2  A    between atoms: C_2  and  C_3
REMARK    3  A    between atoms: C_2  and  C_4
REMARK    4  A    between atoms: C_2  and  O_5
REMARK    5  A    between atoms: O_5  and  C_6
REMARK    6  A    between atoms: N_8  and  C_9
REMARK    7  A    between atoms: C_9  and  C_10
REMARK    8  A    between atoms: C_10  and  C_11
REMARK    9  A    between atoms: C_11  and  C_12
REMARK   10  A    between atoms: C_18  and  C_19
REMARK   11  A    between atoms: C_18  and  O_20
REMARK   12  A    between atoms: O_20  and  C_21
REMARK   13  A    between atoms: C_21  and  C_23
REMARK                            x       y       z     vdW  Elec       q    Type
REMARK                         _______ _______ _______ _____ _____    ______ ____
ROOT
ATOM      1  C   UNL     1       3.362   7.299  18.006  0.00  0.00    +0.000 C 
ATOM      2  C   UNL     1       2.630   8.337  17.551  0.00  0.00    +0.000 C 
ATOM      3  C   UNL     1       1.652   8.946  18.440  0.00  0.00    +0.000 C 
ATOM      4  C   UNL     1       0.974  10.036  18.050  0.00  0.00    +0.000 C 
ATOM      5  C   UNL     1       0.056  10.746  18.975  0.00  0.00    +0.000 C 
ATOM      6  O   UNL     1      -0.616  11.675  18.527  0.00  0.00    +0.000 OA
ATOM      7  C   UNL     1       0.074  10.370  20.465  0.00  0.00    +0.000 C 
ATOM      8  C   UNL     1       1.177  11.213  21.131  0.00  0.00    +0.000 C 
ATOM      9  C   UNL     1       0.469   8.911  20.710  0.00  0.00    +0.000 C 
ATOM     10  O   UNL     1       0.100   8.273  21.697  0.00  0.00    +0.000 OA
ATOM     11  C   UNL     1       1.442   8.341  19.744  0.00  0.00    +0.000 C 
ATOM     12  C   UNL     1       2.206   7.298  20.098  0.00  0.00    +0.000 C 
ATOM     13  O   UNL     1       3.188   6.763  19.285  0.00  0.00    +0.000 OA
ENDROOT
BRANCH   1  14
ATOM     14  C   UNL     1       4.402   6.600  17.179  0.00  0.00    +0.000 C 
BRANCH  14  15
ATOM     15  C   UNL     1       5.696   6.349  17.956  0.00  0.00    +0.000 C 
BRANCH  15  16
ATOM     16  C   UNL     1       5.634   5.060  18.776  0.00  0.00    +0.000 C 
BRANCH  16  19
ATOM     17  C   UNL     1       4.237   3.076  19.063  0.00  0.00    +0.000 C 
ATOM     18  O   UNL     1       4.938   2.622  19.956  0.00  0.00    +0.000 OA
ATOM     19  N   UNL     1       4.486   4.256  18.431  0.00  0.00    +0.000 N 
ATOM     20  H   UNL     1       3.824   4.556  17.730  0.00  0.00    +0.000 HD
BRANCH  17  21
ATOM     21  O   UNL     1       3.119   2.503  18.557  0.00  0.00    +0.000 OA
BRANCH  21  23
ATOM     22  C   UNL     1       1.882   3.683  20.323  0.00  0.00    +0.000 C 
ATOM     23  C   UNL     1       1.826   3.052  18.926  0.00  0.00    +0.000 C 
ATOM     24  C   UNL     1       0.721   1.995  18.802  0.00  0.00    +0.000 C 
ATOM     25  C   UNL     1       1.530   4.171  17.914  0.00  0.00    +0.000 C 
ENDBRANCH  21  23
ENDBRANCH  17  21
ENDBRANCH  16  19
ENDBRANCH  15  16
ENDBRANCH  14  15
ENDBRANCH   1  14
BRANCH   7  26
ATOM     26  O   UNL     1      -1.142  10.736  21.121  0.00  0.00    +0.000 OA
BRANCH  26  27
ATOM     27  C   UNL     1      -0.986  11.294  22.352  0.00  0.00    +0.000 C 
ATOM     28  O   UNL     1      -0.372  10.765  23.274  0.00  0.00    +0.000 OA
BRANCH  27  29
ATOM     29  C   UNL     1      -1.717  12.616  22.448  0.00  0.00    +0.000 C 
ATOM     30  C   UNL     1      -2.974  12.488  23.305  0.00  0.00    +0.000 C 
ATOM     31  C   UNL     1      -3.285  13.908  23.746  0.00  0.00    +0.000 C 
ATOM     32  C   UNL     1      -1.947  14.637  23.793  0.00  0.00    +0.000 C 
ATOM     33  C   UNL     1      -0.918  13.699  23.172  0.00  0.00    +0.000 C 
ENDBRANCH  27  29
ENDBRANCH  26  27
ENDBRANCH   7  26
TORSDOF 9
ENDMDL
MODEL 7
REMARK VINA RESULT:      -7.1      1.655      3.678
REMARK  Name = 
REMARK  13 active torsions:
REMARK  status: ('A' for Active; 'I' for Inactive)
REMARK    1  A    between atoms: C_1  and  C_2
REMARK    2  A    between atoms: C_2  and  C_3
REMARK    3  A    between atoms: C_2  and  C_4
REMARK    4  A    between atoms: C_2  and  O_5
REMARK    5  A    between atoms: O_5  and  C_6
REMARK    6  A    between atoms: N_8  and  C_9
REMARK    7  A    between atoms: C_9  and  C_10
REMARK    8  A    between atoms: C_10  and  C_11
REMARK    9  A    between atoms: C_11  and  C_12
REMARK   10  A    between atoms: C_18  and  C_19
REMARK   11  A    between atoms: C_18  and  O_20
REMARK   12  A    between atoms: O_20  and  C_21
REMARK   13  A    between atoms: C_21  and  C_23
REMARK                            x       y       z     vdW  Elec       q    Type
REMARK                         _______ _______ _______ _____ _____    ______ ____
ROOT
ATOM      1  C   UNL     1       2.075   5.555  19.758  0.00  0.00    +0.000 C 
ATOM      2  C   UNL     1       1.741   6.348  20.797  0.00  0.00    +0.000 C 
ATOM      3  C   UNL     1       1.530   7.768  20.553  0.00  0.00    +0.000 C 
ATOM      4  C   UNL     1       1.109   8.566  21.545  0.00  0.00    +0.000 C 
ATOM      5  C   UNL     1       0.776   9.991  21.300  0.00  0.00    +0.000 C 
ATOM      6  O   UNL     1       0.496  10.697  22.270  0.00  0.00    +0.000 OA
ATOM      7  C   UNL     1       0.679  10.488  19.849  0.00  0.00    +0.000 C 
ATOM      8  C   UNL     1      -0.758  10.211  19.371  0.00  0.00    +0.000 C 
ATOM      9  C   UNL     1       1.586   9.713  18.889  0.00  0.00    +0.000 C 
ATOM     10  O   UNL     1       2.037  10.199  17.852  0.00  0.00    +0.000 OA
ATOM     11  C   UNL     1       1.787   8.278  19.217  0.00  0.00    +0.000 C 
ATOM     12  C   UNL     1       2.135   7.412  18.255  0.00  0.00    +0.000 C 
ATOM     13  O   UNL     1       2.264   6.052  18.466  0.00  0.00    +0.000 OA
ENDROOT
BRANCH   1  14
ATOM     14  C   UNL     1       2.309   4.078  19.892  0.00  0.00    +0.000 C 
BRANCH  14  15
ATOM     15  C   UNL     1       3.085   3.498  18.708  0.00  0.00    +0.000 C 
BRANCH  15  16
ATOM     16  C   UNL     1       4.445   2.940  19.128  0.00  0.00    +0.000 C 
BRANCH  16  19
ATOM     17  C   UNL     1       6.189   4.624  18.826  0.00  0.00    +0.000 C 
ATOM     18  O   UNL     1       5.940   5.178  19.886  0.00  0.00    +0.000 OA
ATOM     19  N   UNL     1       5.525   3.526  18.370  0.00  0.00    +0.000 N 
ATOM     20  H   UNL     1       5.834   3.125  17.497  0.00  0.00    +0.000 HD
BRANCH  17  21
ATOM     21  O   UNL     1       7.144   4.992  17.938  0.00  0.00    +0.000 OA
BRANCH  21  23
ATOM     22  C   UNL     1       5.289   6.238  16.916  0.00  0.00    +0.000 C 
ATOM     23  C   UNL     1       6.778   5.878  16.847  0.00  0.00    +0.000 C 
ATOM     24  C   UNL     1       7.177   5.280  15.492  0.00  0.00    +0.000 C 
ATOM     25  C   UNL     1       7.587   7.169  17.054  0.00  0.00    +0.000 C 
ENDBRANCH  21  23
ENDBRANCH  17  21
ENDBRANCH  16  19
ENDBRANCH  15  16
ENDBRANCH  14  15
ENDBRANCH   1  14
BRANCH   7  26
ATOM     26  O   UNL     1       0.851  11.903  19.759  0.00  0.00    +0.000 OA
BRANCH  26  27
ATOM     27  C   UNL     1      -0.229  12.585  19.289  0.00  0.00    +0.000 C 
ATOM     28  O   UNL     1      -0.687  12.454  18.158  0.00  0.00    +0.000 OA
BRANCH  27  29
ATOM     29  C   UNL     1      -0.747  13.563  20.322  0.00  0.00    +0.000 C 
ATOM     30  C   UNL     1      -1.904  12.961  21.115  0.00  0.00    +0.000 C 
ATOM     31  C   UNL     1      -1.956  13.776  22.397  0.00  0.00    +0.000 C 
ATOM     32  C   UNL     1      -0.532  14.253  22.651  0.00  0.00    +0.000 C 
ATOM     33  C   UNL     1       0.275  13.897  21.407  0.00  0.00    +0.000 C 
ENDBRANCH  27  29
ENDBRANCH  26  27
ENDBRANCH   7  26
TORSDOF 9
ENDMDL
MODEL 8
REMARK VINA RESULT:      -7.0      2.135      3.653
REMARK  Name = 
REMARK  13 active torsions:
REMARK  status: ('A' for Active; 'I' for Inactive)
REMARK    1  A    between atoms: C_1  and  C_2
REMARK    2  A    between atoms: C_2  and  C_3
REMARK    3  A    between atoms: C_2  and  C_4
REMARK    4  A    between atoms: C_2  and  O_5
REMARK    5  A    between atoms: O_5  and  C_6
REMARK    6  A    between atoms: N_8  and  C_9
REMARK    7  A    between atoms: C_9  and  C_10
REMARK    8  A    between atoms: C_10  and  C_11
REMARK    9  A    between atoms: C_11  and  C_12
REMARK   10  A    between atoms: C_18  and  C_19
REMARK   11  A    between atoms: C_18  and  O_20
REMARK   12  A    between atoms: O_20  and  C_21
REMARK   13  A    between atoms: C_21  and  C_23
REMARK                            x       y       z     vdW  Elec       q    Type
REMARK                         _______ _______ _______ _____ _____    ______ ____
ROOT
ATOM      1  C   UNL     1       2.878   6.349  18.602  0.00  0.00    +0.000 C 
ATOM      2  C   UNL     1       2.275   6.653  19.769  0.00  0.00    +0.000 C 
ATOM      3  C   UNL     1       1.718   7.987  19.942  0.00  0.00    +0.000 C 
ATOM      4  C   UNL     1       1.032   8.292  21.053  0.00  0.00    +0.000 C 
ATOM      5  C   UNL     1       0.356   9.604  21.207  0.00  0.00    +0.000 C 
ATOM      6  O   UNL     1      -0.167   9.864  22.291  0.00  0.00    +0.000 OA
ATOM      7  C   UNL     1       0.237  10.521  19.979  0.00  0.00    +0.000 C 
ATOM      8  C   UNL     1      -1.040  10.105  19.227  0.00  0.00    +0.000 C 
ATOM      9  C   UNL     1       1.381  10.336  18.979  0.00  0.00    +0.000 C 
ATOM     10  O   UNL     1       1.761  11.228  18.222  0.00  0.00    +0.000 OA
ATOM     11  C   UNL     1       1.927   8.958  18.881  0.00  0.00    +0.000 C 
ATOM     12  C   UNL     1       2.557   8.564  17.765  0.00  0.00    +0.000 C 
ATOM     13  O   UNL     1       3.022   7.277  17.568  0.00  0.00    +0.000 OA
ENDROOT
BRANCH   1  14
ATOM     14  C   UNL     1       3.481   5.004  18.314  0.00  0.00    +0.000 C 
BRANCH  14  15
ATOM     15  C   UNL     1       4.501   4.581  19.372  0.00  0.00    +0.000 C 
BRANCH  15  16
ATOM     16  C   UNL     1       5.784   5.409  19.299  0.00  0.00    +0.000 C 
BRANCH  16  19
ATOM     17  C   UNL     1       7.317   5.024  17.436  0.00  0.00    +0.000 C 
ATOM     18  O   UNL     1       8.021   4.257  18.078  0.00  0.00    +0.000 OA
ATOM     19  N   UNL     1       6.206   5.630  17.936  0.00  0.00    +0.000 N 
ATOM     20  H   UNL     1       5.676   6.218  17.310  0.00  0.00    +0.000 HD
BRANCH  17  21
ATOM     21  O   UNL     1       7.512   5.397  16.149  0.00  0.00    +0.000 OA
BRANCH  21  23
ATOM     22  C   UNL     1       7.164   4.908  13.766  0.00  0.00    +0.000 C 
ATOM     23  C   UNL     1       6.523   5.018  15.155  0.00  0.00    +0.000 C 
ATOM     24  C   UNL     1       5.324   5.974  15.176  0.00  0.00    +0.000 C 
ATOM     25  C   UNL     1       6.025   3.620  15.558  0.00  0.00    +0.000 C 
ENDBRANCH  21  23
ENDBRANCH  17  21
ENDBRANCH  16  19
ENDBRANCH  15  16
ENDBRANCH  14  15
ENDBRANCH   1  14
BRANCH   7  26
ATOM     26  O   UNL     1       0.038  11.886  20.353  0.00  0.00    +0.000 OA
BRANCH  26  27
ATOM     27  C   UNL     1      -1.044  12.486  19.786  0.00  0.00    +0.000 C 
ATOM     28  O   UNL     1      -1.055  12.953  18.650  0.00  0.00    +0.000 OA
BRANCH  27  29
ATOM     29  C   UNL     1      -2.202  12.553  20.758  0.00  0.00    +0.000 C 
ATOM     30  C   UNL     1      -2.160  13.842  21.575  0.00  0.00    +0.000 C 
ATOM     31  C   UNL     1      -3.583  14.025  22.076  0.00  0.00    +0.000 C 
ATOM     32  C   UNL     1      -4.483  13.368  21.038  0.00  0.00    +0.000 C 
ATOM     33  C   UNL     1      -3.566  12.626  20.072  0.00  0.00    +0.000 C 
ENDBRANCH  27  29
ENDBRANCH  26  27
ENDBRANCH   7  26
TORSDOF 9
ENDMDL
MODEL 9
REMARK VINA RESULT:      -7.0      2.271      3.870
REMARK  Name = 
REMARK  13 active torsions:
REMARK  status: ('A' for Active; 'I' for Inactive)
REMARK    1  A    between atoms: C_1  and  C_2
REMARK    2  A    between atoms: C_2  and  C_3
REMARK    3  A    between atoms: C_2  and  C_4
REMARK    4  A    between atoms: C_2  and  O_5
REMARK    5  A    between atoms: O_5  and  C_6
REMARK    6  A    between atoms: N_8  and  C_9
REMARK    7  A    between atoms: C_9  and  C_10
REMARK    8  A    between atoms: C_10  and  C_11
REMARK    9  A    between atoms: C_11  and  C_12
REMARK   10  A    between atoms: C_18  and  C_19
REMARK   11  A    between atoms: C_18  and  O_20
REMARK   12  A    between atoms: O_20  and  C_21
REMARK   13  A    between atoms: C_21  and  C_23
REMARK                            x       y       z     vdW  Elec       q    Type
REMARK                         _______ _______ _______ _____ _____    ______ ____
ROOT
ATOM      1  C   UNL     1       2.021   6.738  19.964  0.00  0.00    +0.000 C 
ATOM      2  C   UNL     1       1.538   7.371  21.052  0.00  0.00    +0.000 C 
ATOM      3  C   UNL     1       1.129   8.763  20.927  0.00  0.00    +0.000 C 
ATOM      4  C   UNL     1       0.560   9.394  21.965  0.00  0.00    +0.000 C 
ATOM      5  C   UNL     1       0.030  10.773  21.833  0.00  0.00    +0.000 C 
ATOM      6  O   UNL     1      -0.385  11.335  22.847  0.00  0.00    +0.000 OA
ATOM      7  C   UNL     1      -0.088  11.388  20.429  0.00  0.00    +0.000 C 
ATOM      8  C   UNL     1      -1.451  10.955  19.859  0.00  0.00    +0.000 C 
ATOM      9  C   UNL     1       0.956  10.847  19.449  0.00  0.00    +0.000 C 
ATOM     10  O   UNL     1       1.367  11.490  18.484  0.00  0.00    +0.000 OA
ATOM     11  C   UNL     1       1.355   9.431  19.657  0.00  0.00    +0.000 C 
ATOM     12  C   UNL     1       1.861   8.721  18.639  0.00  0.00    +0.000 C 
ATOM     13  O   UNL     1       2.181   7.379  18.732  0.00  0.00    +0.000 OA
ENDROOT
BRANCH   1  14
ATOM     14  C   UNL     1       2.466   5.304  19.977  0.00  0.00    +0.000 C 
BRANCH  14  15
ATOM     15  C   UNL     1       1.605   4.416  19.076  0.00  0.00    +0.000 C 
BRANCH  15  16
ATOM     16  C   UNL     1       2.321   4.049  17.776  0.00  0.00    +0.000 C 
BRANCH  16  19
ATOM     17  C   UNL     1       4.595   4.496  17.003  0.00  0.00    +0.000 C 
ATOM     18  O   UNL     1       4.827   3.318  16.774  0.00  0.00    +0.000 OA
ATOM     19  N   UNL     1       3.407   4.954  17.484  0.00  0.00    +0.000 N 
ATOM     20  H   UNL     1       3.308   5.951  17.604  0.00  0.00    +0.000 HD
BRANCH  17  21
ATOM     21  O   UNL     1       5.453   5.528  16.822  0.00  0.00    +0.000 OA
BRANCH  21  23
ATOM     22  C   UNL     1       6.189   5.348  19.160  0.00  0.00    +0.000 C 
ATOM     23  C   UNL     1       6.595   5.650  17.712  0.00  0.00    +0.000 C 
ATOM     24  C   UNL     1       7.268   7.020  17.562  0.00  0.00    +0.000 C 
ATOM     25  C   UNL     1       7.600   4.574  17.268  0.00  0.00    +0.000 C 
ENDBRANCH  21  23
ENDBRANCH  17  21
ENDBRANCH  16  19
ENDBRANCH  15  16
ENDBRANCH  14  15
ENDBRANCH   1  14
BRANCH   7  26
ATOM     26  O   UNL     1      -0.123  12.816  20.475  0.00  0.00    +0.000 OA
BRANCH  26  27
ATOM     27  C   UNL     1       1.091  13.417  20.606  0.00  0.00    +0.000 C 
ATOM     28  O   UNL     1       1.971  13.032  21.371  0.00  0.00    +0.000 OA
BRANCH  27  29
ATOM     29  C   UNL     1       1.186  14.649  19.732  0.00  0.00    +0.000 C 
ATOM     30  C   UNL     1      -0.088  14.840  18.913  0.00  0.00    +0.000 C 
ATOM     31  C   UNL     1      -0.081  16.311  18.530  0.00  0.00    +0.000 C 
ATOM     32  C   UNL     1       0.676  17.031  19.639  0.00  0.00    +0.000 C 
ATOM     33  C   UNL     1       1.282  15.950  20.526  0.00  0.00    +0.000 C 
ENDBRANCH  27  29
ENDBRANCH  26  27
ENDBRANCH   7  26
TORSDOF 9
ENDMDL
