MODEL 1
REMARK VINA RESULT:      -6.6      0.000      0.000
REMARK  Name = 
REMARK  3 active torsions:
REMARK  status: ('A' for Active; 'I' for Inactive)
REMARK    1  A    between atoms: C_1  and  N_2
REMARK    2  A    between atoms: N_5  and  C_6
REMARK    3  A    between atoms: C_6  and  C_7
REMARK                            x       y       z     vdW  Elec       q    Type
REMARK                         _______ _______ _______ _____ _____    ______ ____
ROOT
ATOM      1  C   UNL     1       1.700   7.217  20.736  0.00  0.00    +0.000 C 
ATOM      2  N   UNL     1       2.202   6.184  19.859  0.00  0.00    +0.000 N 
ATOM      3  C   UNL     1       3.460   6.395  19.139  0.00  0.00    +0.000 C 
ATOM      4  C   UNL     1       3.250   6.124  17.629  0.00  0.00    +0.000 C 
ATOM      5  N   UNL     1       2.914   4.742  17.219  0.00  0.00    +0.000 NA
ATOM      6  C   UNL     1       1.632   4.316  17.819  0.00  0.00    +0.000 C 
ATOM      7  C   UNL     1       1.702   3.911  19.270  0.00  0.00    +0.000 A 
ATOM      8  C   UNL     1       1.510   2.576  19.651  0.00  0.00    +0.000 A 
ATOM      9  C   UNL     1       1.672   2.214  20.978  0.00  0.00    +0.000 A 
ATOM     10  C   UNL     1       1.991   3.210  21.882  0.00  0.00    +0.000 A 
ATOM     11  N   UNL     1       2.128   4.516  21.556  0.00  0.00    +0.000 NA
ATOM     12  C   UNL     1       1.997   4.863  20.255  0.00  0.00    +0.000 A 
ENDROOT
BRANCH   5  13
ATOM     13  C   UNL     1       3.982   3.770  17.515  0.00  0.00    +0.000 C 
BRANCH  13  14
ATOM     14  C   UNL     1       5.286   4.098  16.880  0.00  0.00    +0.000 A 
ATOM     15  C   UNL     1       5.725   4.165  15.577  0.00  0.00    +0.000 A 
ATOM     16  C   UNL     1       7.092   4.513  15.633  0.00  0.00    +0.000 A 
ATOM     17  C   UNL     1       7.394   4.636  16.963  0.00  0.00    +0.000 A 
ATOM     18  O   UNL     1       6.314   4.396  17.737  0.00  0.00    +0.000 OA
ENDBRANCH  13  14
ENDBRANCH   5  13
TORSDOF 2
ENDMDL
MODEL 2
REMARK VINA RESULT:      -6.5      1.507      3.103
REMARK  Name = 
REMARK  3 active torsions:
REMARK  status: ('A' for Active; 'I' for Inactive)
REMARK    1  A    between atoms: C_1  and  N_2
REMARK    2  A    between atoms: N_5  and  C_6
REMARK    3  A    between atoms: C_6  and  C_7
REMARK                            x       y       z     vdW  Elec       q    Type
REMARK                         _______ _______ _______ _____ _____    ______ ____
ROOT
ATOM      1  C   UNL     1       1.540   2.516  21.706  0.00  0.00    +0.000 C 
ATOM      2  N   UNL     1       2.240   2.887  20.496  0.00  0.00    +0.000 N 
ATOM      3  C   UNL     1       2.048   2.097  19.278  0.00  0.00    +0.000 C 
ATOM      4  C   UNL     1       3.423   1.676  18.705  0.00  0.00    +0.000 C 
ATOM      5  N   UNL     1       4.320   2.747  18.213  0.00  0.00    +0.000 NA
ATOM      6  C   UNL     1       4.679   3.672  19.309  0.00  0.00    +0.000 C 
ATOM      7  C   UNL     1       3.617   4.676  19.680  0.00  0.00    +0.000 A 
ATOM      8  C   UNL     1       3.799   6.041  19.419  0.00  0.00    +0.000 A 
ATOM      9  C   UNL     1       2.771   6.931  19.685  0.00  0.00    +0.000 A 
ATOM     10  C   UNL     1       1.606   6.424  20.229  0.00  0.00    +0.000 A 
ATOM     11  N   UNL     1       1.419   5.121  20.544  0.00  0.00    +0.000 NA
ATOM     12  C   UNL     1       2.414   4.250  20.259  0.00  0.00    +0.000 A 
ENDROOT
BRANCH   5  13
ATOM     13  C   UNL     1       3.769   3.484  17.062  0.00  0.00    +0.000 C 
BRANCH  13  14
ATOM     14  C   UNL     1       4.798   4.178  16.244  0.00  0.00    +0.000 A 
ATOM     15  C   UNL     1       5.028   5.495  15.914  0.00  0.00    +0.000 A 
ATOM     16  C   UNL     1       6.166   5.504  15.077  0.00  0.00    +0.000 A 
ATOM     17  C   UNL     1       6.553   4.196  14.955  0.00  0.00    +0.000 A 
ATOM     18  O   UNL     1       5.743   3.376  15.658  0.00  0.00    +0.000 OA
ENDBRANCH  13  14
ENDBRANCH   5  13
TORSDOF 2
ENDMDL
MODEL 3
REMARK VINA RESULT:      -6.4      2.834      5.385
REMARK  Name = 
REMARK  3 active torsions:
REMARK  status: ('A' for Active; 'I' for Inactive)
REMARK    1  A    between atoms: C_1  and  N_2
REMARK    2  A    between atoms: N_5  and  C_6
REMARK    3  A    between atoms: C_6  and  C_7
REMARK                            x       y       z     vdW  Elec       q    Type
REMARK                         _______ _______ _______ _____ _____    ______ ____
ROOT
ATOM      1  C   UNL     1       4.417   2.077  19.714  0.00  0.00    +0.000 C 
ATOM      2  N   UNL     1       3.939   3.431  19.543  0.00  0.00    +0.000 N 
ATOM      3  C   UNL     1       3.075   4.027  20.564  0.00  0.00    +0.000 C 
ATOM      4  C   UNL     1       1.799   4.601  19.899  0.00  0.00    +0.000 C 
ATOM      5  N   UNL     1       1.963   5.736  18.964  0.00  0.00    +0.000 NA
ATOM      6  C   UNL     1       2.800   5.346  17.809  0.00  0.00    +0.000 C 
ATOM      7  C   UNL     1       4.283   5.297  18.073  0.00  0.00    +0.000 A 
ATOM      8  C   UNL     1       5.148   6.229  17.481  0.00  0.00    +0.000 A 
ATOM      9  C   UNL     1       6.492   6.221  17.813  0.00  0.00    +0.000 A 
ATOM     10  C   UNL     1       6.928   5.260  18.706  0.00  0.00    +0.000 A 
ATOM     11  N   UNL     1       6.131   4.313  19.253  0.00  0.00    +0.000 NA
ATOM     12  C   UNL     1       4.813   4.339  18.948  0.00  0.00    +0.000 A 
ENDROOT
BRANCH   5  13
ATOM     13  C   UNL     1       2.493   6.951  19.610  0.00  0.00    +0.000 C 
BRANCH  13  14
ATOM     14  C   UNL     1       1.930   8.215  19.066  0.00  0.00    +0.000 A 
ATOM     15  C   UNL     1       2.021   8.858  17.852  0.00  0.00    +0.000 A 
ATOM     16  C   UNL     1       1.268  10.046  17.971  0.00  0.00    +0.000 A 
ATOM     17  C   UNL     1       0.768  10.048  19.246  0.00  0.00    +0.000 A 
ATOM     18  O   UNL     1       1.151   8.945  19.925  0.00  0.00    +0.000 OA
ENDBRANCH  13  14
ENDBRANCH   5  13
TORSDOF 2
ENDMDL
MODEL 4
REMARK VINA RESULT:      -6.3      2.685      3.998
REMARK  Name = 
REMARK  3 active torsions:
REMARK  status: ('A' for Active; 'I' for Inactive)
REMARK    1  A    between atoms: C_1  and  N_2
REMARK    2  A    between atoms: N_5  and  C_6
REMARK    3  A    between atoms: C_6  and  C_7
REMARK                            x       y       z     vdW  Elec       q    Type
REMARK                         _______ _______ _______ _____ _____    ______ ____
ROOT
ATOM      1  C   UNL     1       7.400   5.496  19.766  0.00  0.00    +0.000 C 
ATOM      2  N   UNL     1       6.724   5.256  18.511  0.00  0.00    +0.000 N 
ATOM      3  C   UNL     1       7.488   4.767  17.361  0.00  0.00    +0.000 C 
ATOM      4  C   UNL     1       7.225   5.674  16.134  0.00  0.00    +0.000 C 
ATOM      5  N   UNL     1       5.853   5.698  15.579  0.00  0.00    +0.000 NA
ATOM      6  C   UNL     1       4.891   6.200  16.582  0.00  0.00    +0.000 C 
ATOM      7  C   UNL     1       4.487   5.207  17.643  0.00  0.00    +0.000 A 
ATOM      8  C   UNL     1       3.182   4.696  17.687  0.00  0.00    +0.000 A 
ATOM      9  C   UNL     1       2.863   3.716  18.611  0.00  0.00    +0.000 A 
ATOM     10  C   UNL     1       3.856   3.303  19.480  0.00  0.00    +0.000 A 
ATOM     11  N   UNL     1       5.109   3.815  19.500  0.00  0.00    +0.000 NA
ATOM     12  C   UNL     1       5.426   4.752  18.578  0.00  0.00    +0.000 A 
ENDROOT
BRANCH   5  13
ATOM     13  C   UNL     1       5.420   4.396  15.040  0.00  0.00    +0.000 C 
BRANCH  13  14
ATOM     14  C   UNL     1       5.966   4.091  13.692  0.00  0.00    +0.000 A 
ATOM     15  C   UNL     1       5.606   3.219  12.689  0.00  0.00    +0.000 A 
ATOM     16  C   UNL     1       6.549   3.391  11.652  0.00  0.00    +0.000 A 
ATOM     17  C   UNL     1       7.418   4.354  12.090  0.00  0.00    +0.000 A 
ATOM     18  O   UNL     1       7.081   4.797  13.320  0.00  0.00    +0.000 OA
ENDBRANCH  13  14
ENDBRANCH   5  13
TORSDOF 2
ENDMDL
MODEL 5
REMARK VINA RESULT:      -6.1      2.877      5.639
REMARK  Name = 
REMARK  3 active torsions:
REMARK  status: ('A' for Active; 'I' for Inactive)
REMARK    1  A    between atoms: C_1  and  N_2
REMARK    2  A    between atoms: N_5  and  C_6
REMARK    3  A    between atoms: C_6  and  C_7
REMARK                            x       y       z     vdW  Elec       q    Type
REMARK                         _______ _______ _______ _____ _____    ______ ____
ROOT
ATOM      1  C   UNL     1       4.652   2.924  19.813  0.00  0.00    +0.000 C 
ATOM      2  N   UNL     1       4.420   4.223  19.221  0.00  0.00    +0.000 N 
ATOM      3  C   UNL     1       3.285   5.030  19.673  0.00  0.00    +0.000 C 
ATOM      4  C   UNL     1       2.444   5.478  18.452  0.00  0.00    +0.000 C 
ATOM      5  N   UNL     1       3.079   6.396  17.479  0.00  0.00    +0.000 NA
ATOM      6  C   UNL     1       4.263   5.763  16.860  0.00  0.00    +0.000 C 
ATOM      7  C   UNL     1       5.506   5.743  17.714  0.00  0.00    +0.000 A 
ATOM      8  C   UNL     1       6.623   6.518  17.372  0.00  0.00    +0.000 A 
ATOM      9  C   UNL     1       7.715   6.554  18.223  0.00  0.00    +0.000 A 
ATOM     10  C   UNL     1       7.662   5.789  19.372  0.00  0.00    +0.000 A 
ATOM     11  N   UNL     1       6.622   4.987  19.703  0.00  0.00    +0.000 NA
ATOM     12  C   UNL     1       5.545   4.975  18.885  0.00  0.00    +0.000 A 
ENDROOT
BRANCH   5  13
ATOM     13  C   UNL     1       3.426   7.707  18.057  0.00  0.00    +0.000 C 
BRANCH  13  14
ATOM     14  C   UNL     1       2.246   8.518  18.458  0.00  0.00    +0.000 A 
ATOM     15  C   UNL     1       1.587   8.722  19.650  0.00  0.00    +0.000 A 
ATOM     16  C   UNL     1       0.513   9.595  19.368  0.00  0.00    +0.000 A 
ATOM     17  C   UNL     1       0.590   9.865  18.027  0.00  0.00    +0.000 A 
ATOM     18  O   UNL     1       1.636   9.229  17.457  0.00  0.00    +0.000 OA
ENDBRANCH  13  14
ENDBRANCH   5  13
TORSDOF 2
ENDMDL
MODEL 6
REMARK VINA RESULT:      -6.1      2.604      5.780
REMARK  Name = 
REMARK  3 active torsions:
REMARK  status: ('A' for Active; 'I' for Inactive)
REMARK    1  A    between atoms: C_1  and  N_2
REMARK    2  A    between atoms: N_5  and  C_6
REMARK    3  A    between atoms: C_6  and  C_7
REMARK                            x       y       z     vdW  Elec       q    Type
REMARK                         _______ _______ _______ _____ _____    ______ ____
ROOT
ATOM      1  C   UNL     1       4.226   2.216  19.780  0.00  0.00    +0.000 C 
ATOM      2  N   UNL     1       3.814   3.589  19.596  0.00  0.00    +0.000 N 
ATOM      3  C   UNL     1       3.011   4.248  20.628  0.00  0.00    +0.000 C 
ATOM      4  C   UNL     1       1.748   4.875  19.989  0.00  0.00    +0.000 C 
ATOM      5  N   UNL     1       1.943   5.983  19.026  0.00  0.00    +0.000 NA
ATOM      6  C   UNL     1       2.724   5.529  17.857  0.00  0.00    +0.000 C 
ATOM      7  C   UNL     1       4.211   5.408  18.081  0.00  0.00    +0.000 A 
ATOM      8  C   UNL     1       5.104   6.283  17.446  0.00  0.00    +0.000 A 
ATOM      9  C   UNL     1       6.455   6.211  17.741  0.00  0.00    +0.000 A 
ATOM     10  C   UNL     1       6.868   5.246  18.640  0.00  0.00    +0.000 A 
ATOM     11  N   UNL     1       6.039   4.351  19.227  0.00  0.00    +0.000 NA
ATOM     12  C   UNL     1       4.716   4.440  18.959  0.00  0.00    +0.000 A 
ENDROOT
BRANCH   5  13
ATOM     13  C   UNL     1       2.552   7.180  19.633  0.00  0.00    +0.000 C 
BRANCH  13  14
ATOM     14  C   UNL     1       1.563   8.169  20.136  0.00  0.00    +0.000 A 
ATOM     15  C   UNL     1       0.876   8.317  21.321  0.00  0.00    +0.000 A 
ATOM     16  C   UNL     1       0.058   9.457  21.168  0.00  0.00    +0.000 A 
ATOM     17  C   UNL     1       0.301   9.928  19.905  0.00  0.00    +0.000 A 
ATOM     18  O   UNL     1       1.214   9.167  19.265  0.00  0.00    +0.000 OA
ENDBRANCH  13  14
ENDBRANCH   5  13
TORSDOF 2
ENDMDL
MODEL 7
REMARK VINA RESULT:      -5.9      1.087      1.323
REMARK  Name = 
REMARK  3 active torsions:
REMARK  status: ('A' for Active; 'I' for Inactive)
REMARK    1  A    between atoms: C_1  and  N_2
REMARK    2  A    between atoms: N_5  and  C_6
REMARK    3  A    between atoms: C_6  and  C_7
REMARK                            x       y       z     vdW  Elec       q    Type
REMARK                         _______ _______ _______ _____ _____    ______ ____
ROOT
ATOM      1  C   UNL     1       1.343   7.052  20.712  0.00  0.00    +0.000 C 
ATOM      2  N   UNL     1       2.142   6.176  19.885  0.00  0.00    +0.000 N 
ATOM      3  C   UNL     1       3.462   6.618  19.429  0.00  0.00    +0.000 C 
ATOM      4  C   UNL     1       3.567   6.452  17.893  0.00  0.00    +0.000 C 
ATOM      5  N   UNL     1       3.519   5.078  17.345  0.00  0.00    +0.000 NA
ATOM      6  C   UNL     1       2.230   4.430  17.667  0.00  0.00    +0.000 C 
ATOM      7  C   UNL     1       2.101   3.915  19.078  0.00  0.00    +0.000 A 
ATOM      8  C   UNL     1       2.047   2.539  19.337  0.00  0.00    +0.000 A 
ATOM      9  C   UNL     1       2.023   2.090  20.647  0.00  0.00    +0.000 A 
ATOM     10  C   UNL     1       2.024   3.038  21.652  0.00  0.00    +0.000 A 
ATOM     11  N   UNL     1       2.019   4.374  21.436  0.00  0.00    +0.000 NA
ATOM     12  C   UNL     1       2.070   4.810  20.156  0.00  0.00    +0.000 A 
ENDROOT
BRANCH   5  13
ATOM     13  C   UNL     1       4.652   4.238  17.778  0.00  0.00    +0.000 C 
BRANCH  13  14
ATOM     14  C   UNL     1       5.896   5.004  18.052  0.00  0.00    +0.000 A 
ATOM     15  C   UNL     1       6.707   5.815  17.290  0.00  0.00    +0.000 A 
ATOM     16  C   UNL     1       7.762   6.230  18.132  0.00  0.00    +0.000 A 
ATOM     17  C   UNL     1       7.524   5.647  19.348  0.00  0.00    +0.000 A 
ATOM     18  O   UNL     1       6.396   4.905  19.325  0.00  0.00    +0.000 OA
ENDBRANCH  13  14
ENDBRANCH   5  13
TORSDOF 2
ENDMDL
MODEL 8
REMARK VINA RESULT:      -5.8      2.122      5.277
REMARK  Name = 
REMARK  3 active torsions:
REMARK  status: ('A' for Active; 'I' for Inactive)
REMARK    1  A    between atoms: C_1  and  N_2
REMARK    2  A    between atoms: N_5  and  C_6
REMARK    3  A    between atoms: C_6  and  C_7
REMARK                            x       y       z     vdW  Elec       q    Type
REMARK                         _______ _______ _______ _____ _____    ______ ____
ROOT
ATOM      1  C   UNL     1       3.923   8.168  17.106  0.00  0.00    +0.000 C 
ATOM      2  N   UNL     1       4.226   6.844  17.602  0.00  0.00    +0.000 N 
ATOM      3  C   UNL     1       3.157   6.028  18.182  0.00  0.00    +0.000 C 
ATOM      4  C   UNL     1       3.588   5.517  19.578  0.00  0.00    +0.000 C 
ATOM      5  N   UNL     1       4.732   4.580  19.644  0.00  0.00    +0.000 NA
ATOM      6  C   UNL     1       5.961   5.216  19.123  0.00  0.00    +0.000 C 
ATOM      7  C   UNL     1       6.060   5.295  17.620  0.00  0.00    +0.000 A 
ATOM      8  C   UNL     1       7.008   4.534  16.924  0.00  0.00    +0.000 A 
ATOM      9  C   UNL     1       7.017   4.554  15.539  0.00  0.00    +0.000 A 
ATOM     10  C   UNL     1       6.092   5.358  14.901  0.00  0.00    +0.000 A 
ATOM     11  N   UNL     1       5.200   6.148  15.544  0.00  0.00    +0.000 NA
ATOM     12  C   UNL     1       5.175   6.106  16.896  0.00  0.00    +0.000 A 
ENDROOT
BRANCH   5  13
ATOM     13  C   UNL     1       4.475   3.298  18.962  0.00  0.00    +0.000 C 
BRANCH  13  14
ATOM     14  C   UNL     1       3.063   2.841  19.054  0.00  0.00    +0.000 A 
ATOM     15  C   UNL     1       2.096   2.530  18.124  0.00  0.00    +0.000 A 
ATOM     16  C   UNL     1       0.939   2.180  18.853  0.00  0.00    +0.000 A 
ATOM     17  C   UNL     1       1.277   2.299  20.175  0.00  0.00    +0.000 A 
ATOM     18  O   UNL     1       2.561   2.692  20.321  0.00  0.00    +0.000 OA
ENDBRANCH  13  14
ENDBRANCH   5  13
TORSDOF 2
ENDMDL
MODEL 9
REMARK VINA RESULT:      -5.8      2.049      5.644
REMARK  Name = 
REMARK  3 active torsions:
REMARK  status: ('A' for Active; 'I' for Inactive)
REMARK    1  A    between atoms: C_1  and  N_2
REMARK    2  A    between atoms: N_5  and  C_6
REMARK    3  A    between atoms: C_6  and  C_7
REMARK                            x       y       z     vdW  Elec       q    Type
REMARK                         _______ _______ _______ _____ _____    ______ ____
ROOT
ATOM      1  C   UNL     1       5.624   3.456  15.165  0.00  0.00    +0.000 C 
ATOM      2  N   UNL     1       5.122   4.106  16.355  0.00  0.00    +0.000 N 
ATOM      3  C   UNL     1       4.084   3.450  17.153  0.00  0.00    +0.000 C 
ATOM      4  C   UNL     1       2.905   4.427  17.382  0.00  0.00    +0.000 C 
ATOM      5  N   UNL     1       3.164   5.640  18.190  0.00  0.00    +0.000 NA
ATOM      6  C   UNL     1       4.187   6.490  17.545  0.00  0.00    +0.000 C 
ATOM      7  C   UNL     1       5.612   6.025  17.711  0.00  0.00    +0.000 A 
ATOM      8  C   UNL     1       6.517   6.756  18.492  0.00  0.00    +0.000 A 
ATOM      9  C   UNL     1       7.792   6.259  18.705  0.00  0.00    +0.000 A 
ATOM     10  C   UNL     1       8.124   5.060  18.103  0.00  0.00    +0.000 A 
ATOM     11  N   UNL     1       7.293   4.358  17.299  0.00  0.00    +0.000 NA
ATOM     12  C   UNL     1       6.039   4.831  17.114  0.00  0.00    +0.000 A 
ENDROOT
BRANCH   5  13
ATOM     13  C   UNL     1       3.534   5.341  19.586  0.00  0.00    +0.000 C 
BRANCH  13  14
ATOM     14  C   UNL     1       2.653   4.338  20.240  0.00  0.00    +0.000 A 
ATOM     15  C   UNL     1       1.315   4.309  20.566  0.00  0.00    +0.000 A 
ATOM     16  C   UNL     1       1.085   3.068  21.200  0.00  0.00    +0.000 A 
ATOM     17  C   UNL     1       2.294   2.425  21.216  0.00  0.00    +0.000 A 
ATOM     18  O   UNL     1       3.256   3.172  20.634  0.00  0.00    +0.000 OA
ENDBRANCH  13  14
ENDBRANCH   5  13
TORSDOF 2
ENDMDL
