MODEL 1
REMARK VINA RESULT:      -7.1      0.000      0.000
REMARK  Name = 
REMARK  9 active torsions:
REMARK  status: ('A' for Active; 'I' for Inactive)
REMARK    1  A    between atoms: C_1  and  C_2
REMARK    2  A    between atoms: C_2  and  C_3
REMARK    3  A    between atoms: C_3  and  N_4
REMARK    4  A    between atoms: C_3  and  C_18
REMARK    5  A    between atoms: N_7  and  C_8
REMARK    6  A    between atoms: C_8  and  C_9
REMARK    7  A    between atoms: C_19  and  C_20
REMARK    8  A    between atoms: N_22  and  C_23
REMARK    9  A    between atoms: C_24  and  C_25
REMARK                            x       y       z     vdW  Elec       q    Type
REMARK                         _______ _______ _______ _____ _____    ______ ____
ROOT
ATOM      1  N   UNL     1       1.634   8.917  18.592  0.00  0.00    +0.000 N 
ATOM      2  C   UNL     1       2.055   7.817  19.271  0.00  0.00    +0.000 C 
ATOM      3  O   UNL     1       1.494   7.387  20.281  0.00  0.00    +0.000 OA
ATOM      4  N   UNL     1       3.153   7.214  18.703  0.00  0.00    +0.000 N 
ATOM      5  H   UNL     1       2.397   9.492  18.268  0.00  0.00    +0.000 HD
ATOM      6  H   UNL     1       3.141   7.221  17.686  0.00  0.00    +0.000 HD
ENDROOT
BRANCH   1   7
ATOM      7  C   UNL     1       0.439   9.617  19.053  0.00  0.00    +0.000 C 
BRANCH   7   8
ATOM      8  C   UNL     1       0.890  10.849  19.793  0.00  0.00    +0.000 A 
ATOM      9  C   UNL     1       0.603  11.220  21.140  0.00  0.00    +0.000 A 
ATOM     10  C   UNL     1      -0.156  10.491  22.191  0.00  0.00    +0.000 C 
ATOM     11  N   UNL     1       1.143  12.404  21.451  0.00  0.00    +0.000 NA
ATOM     12  N   UNL     1       1.784  12.786  20.336  0.00  0.00    +0.000 N 
ATOM     13  C   UNL     1       2.500  14.040  20.336  0.00  0.00    +0.000 C 
ATOM     14  C   UNL     1       1.697  11.877  19.317  0.00  0.00    +0.000 A 
ATOM     15  C   UNL     1       2.378  12.037  18.005  0.00  0.00    +0.000 C 
ENDBRANCH   7   8
BRANCH   7  17
ATOM     16  C   UNL     1      -1.844  10.611  18.300  0.00  0.00    +0.000 C 
ATOM     17  C   UNL     1      -0.514   9.996  17.894  0.00  0.00    +0.000 C 
ENDBRANCH   7  17
ENDBRANCH   1   7
BRANCH   4  18
ATOM     18  C   UNL     1       3.508   5.960  19.329  0.00  0.00    +0.000 C 
BRANCH  18  19
ATOM     19  C   UNL     1       4.079   4.856  18.438  0.00  0.00    +0.000 C 
ATOM     20  C   UNL     1       4.360   3.603  19.301  0.00  0.00    +0.000 C 
ATOM     21  N   UNL     1       3.168   2.907  19.791  0.00  0.00    +0.000 NA
ATOM     22  C   UNL     1       2.745   3.221  21.149  0.00  0.00    +0.000 C 
ATOM     23  C   UNL     1       1.279   2.833  21.195  0.00  0.00    +0.000 C 
ATOM     24  C   UNL     1       0.777   2.996  19.770  0.00  0.00    +0.000 C 
ATOM     25  C   UNL     1       2.020   2.925  18.875  0.00  0.00    +0.000 C 
ATOM     26  C   UNL     1       1.961   3.996  17.755  0.00  0.00    +0.000 C 
ATOM     27  O   UNL     1       3.230   4.501  17.335  0.00  0.00    +0.000 OA
ENDBRANCH  18  19
ENDBRANCH   4  18
TORSDOF 5
ENDMDL
MODEL 2
REMARK VINA RESULT:      -6.9      1.893      7.585
REMARK  Name = 
REMARK  9 active torsions:
REMARK  status: ('A' for Active; 'I' for Inactive)
REMARK    1  A    between atoms: C_1  and  C_2
REMARK    2  A    between atoms: C_2  and  C_3
REMARK    3  A    between atoms: C_3  and  N_4
REMARK    4  A    between atoms: C_3  and  C_18
REMARK    5  A    between atoms: N_7  and  C_8
REMARK    6  A    between atoms: C_8  and  C_9
REMARK    7  A    between atoms: C_19  and  C_20
REMARK    8  A    between atoms: N_22  and  C_23
REMARK    9  A    between atoms: C_24  and  C_25
REMARK                            x       y       z     vdW  Elec       q    Type
REMARK                         _______ _______ _______ _____ _____    ______ ____
ROOT
ATOM      1  N   UNL     1       2.205   5.994  19.941  0.00  0.00    +0.000 N 
ATOM      2  C   UNL     1       2.039   7.342  19.890  0.00  0.00    +0.000 C 
ATOM      3  O   UNL     1       2.111   7.996  18.848  0.00  0.00    +0.000 OA
ATOM      4  N   UNL     1       1.756   7.902  21.114  0.00  0.00    +0.000 N 
ATOM      5  H   UNL     1       2.727   5.694  20.751  0.00  0.00    +0.000 HD
ATOM      6  H   UNL     1       1.148   7.328  21.694  0.00  0.00    +0.000 HD
ENDROOT
BRANCH   1   7
ATOM      7  C   UNL     1       2.450   5.265  18.701  0.00  0.00    +0.000 C 
BRANCH   7   8
ATOM      8  C   UNL     1       3.927   4.980  18.624  0.00  0.00    +0.000 A 
ATOM      9  C   UNL     1       4.655   3.933  19.263  0.00  0.00    +0.000 A 
ATOM     10  C   UNL     1       4.171   2.818  20.121  0.00  0.00    +0.000 C 
ATOM     11  N   UNL     1       5.964   4.009  18.997  0.00  0.00    +0.000 NA
ATOM     12  N   UNL     1       6.082   5.071  18.186  0.00  0.00    +0.000 N 
ATOM     13  C   UNL     1       7.390   5.428  17.690  0.00  0.00    +0.000 C 
ATOM     14  C   UNL     1       4.889   5.674  17.898  0.00  0.00    +0.000 A 
ATOM     15  C   UNL     1       4.747   6.827  16.969  0.00  0.00    +0.000 C 
ENDBRANCH   7   8
BRANCH   7  17
ATOM     16  C   UNL     1       0.763   3.626  19.811  0.00  0.00    +0.000 C 
ATOM     17  C   UNL     1       1.635   3.952  18.610  0.00  0.00    +0.000 C 
ENDBRANCH   7  17
ENDBRANCH   1   7
BRANCH   4  18
ATOM     18  C   UNL     1       1.425   9.308  21.040  0.00  0.00    +0.000 C 
BRANCH  18  19
ATOM     19  C   UNL     1      -0.046   9.702  21.181  0.00  0.00    +0.000 C 
ATOM     20  C   UNL     1      -0.133  11.152  21.713  0.00  0.00    +0.000 C 
ATOM     21  N   UNL     1       0.291  12.187  20.768  0.00  0.00    +0.000 NA
ATOM     22  C   UNL     1       1.658  12.673  20.907  0.00  0.00    +0.000 C 
ATOM     23  C   UNL     1       1.994  13.269  19.554  0.00  0.00    +0.000 C 
ATOM     24  C   UNL     1       1.147  12.499  18.555  0.00  0.00    +0.000 C 
ATOM     25  C   UNL     1      -0.014  11.903  19.360  0.00  0.00    +0.000 C 
ATOM     26  C   UNL     1      -0.299  10.441  18.926  0.00  0.00    +0.000 C 
ATOM     27  O   UNL     1      -0.796   9.590  19.961  0.00  0.00    +0.000 OA
ENDBRANCH  18  19
ENDBRANCH   4  18
TORSDOF 5
ENDMDL
MODEL 3
REMARK VINA RESULT:      -6.8      1.013      1.894
REMARK  Name = 
REMARK  9 active torsions:
REMARK  status: ('A' for Active; 'I' for Inactive)
REMARK    1  A    between atoms: C_1  and  C_2
REMARK    2  A    between atoms: C_2  and  C_3
REMARK    3  A    between atoms: C_3  and  N_4
REMARK    4  A    between atoms: C_3  and  C_18
REMARK    5  A    between atoms: N_7  and  C_8
REMARK    6  A    between atoms: C_8  and  C_9
REMARK    7  A    between atoms: C_19  and  C_20
REMARK    8  A    between atoms: N_22  and  C_23
REMARK    9  A    between atoms: C_24  and  C_25
REMARK                            x       y       z     vdW  Elec       q    Type
REMARK                         _______ _______ _______ _____ _____    ______ ____
ROOT
ATOM      1  N   UNL     1       0.960   9.651  19.098  0.00  0.00    +0.000 N 
ATOM      2  C   UNL     1       1.433   8.532  19.707  0.00  0.00    +0.000 C 
ATOM      3  O   UNL     1       1.099   8.184  20.842  0.00  0.00    +0.000 OA
ATOM      4  N   UNL     1       2.302   7.810  18.922  0.00  0.00    +0.000 N 
ATOM      5  H   UNL     1       1.670  10.139  18.572  0.00  0.00    +0.000 HD
ATOM      6  H   UNL     1       2.043   7.793  17.938  0.00  0.00    +0.000 HD
ENDROOT
BRANCH   1   7
ATOM      7  C   UNL     1      -0.020  10.475  19.798  0.00  0.00    +0.000 C 
BRANCH   7   8
ATOM      8  C   UNL     1       0.639  11.793  20.115  0.00  0.00    +0.000 A 
ATOM      9  C   UNL     1       1.662  12.463  19.382  0.00  0.00    +0.000 A 
ATOM     10  C   UNL     1       2.317  12.093  18.099  0.00  0.00    +0.000 C 
ATOM     11  N   UNL     1       2.033  13.601  19.981  0.00  0.00    +0.000 NA
ATOM     12  N   UNL     1       1.254  13.678  21.070  0.00  0.00    +0.000 N 
ATOM     13  C   UNL     1       1.390  14.817  21.947  0.00  0.00    +0.000 C 
ATOM     14  C   UNL     1       0.372  12.639  21.186  0.00  0.00    +0.000 A 
ATOM     15  C   UNL     1      -0.643  12.532  22.268  0.00  0.00    +0.000 C 
ENDBRANCH   7   8
BRANCH   7  17
ATOM     16  C   UNL     1      -1.337  10.059  17.594  0.00  0.00    +0.000 C 
ATOM     17  C   UNL     1      -1.311  10.696  18.974  0.00  0.00    +0.000 C 
ENDBRANCH   7  17
ENDBRANCH   1   7
BRANCH   4  18
ATOM     18  C   UNL     1       2.684   6.542  19.503  0.00  0.00    +0.000 C 
BRANCH  18  19
ATOM     19  C   UNL     1       3.627   5.645  18.700  0.00  0.00    +0.000 C 
ATOM     20  C   UNL     1       4.142   4.506  19.611  0.00  0.00    +0.000 C 
ATOM     21  N   UNL     1       3.139   3.507  19.984  0.00  0.00    +0.000 NA
ATOM     22  C   UNL     1       2.502   3.679  21.283  0.00  0.00    +0.000 C 
ATOM     23  C   UNL     1       1.201   2.907  21.178  0.00  0.00    +0.000 C 
ATOM     24  C   UNL     1       0.830   2.943  19.705  0.00  0.00    +0.000 C 
ATOM     25  C   UNL     1       2.135   3.223  18.950  0.00  0.00    +0.000 C 
ATOM     26  C   UNL     1       1.909   4.250  17.810  0.00  0.00    +0.000 C 
ATOM     27  O   UNL     1       3.031   5.086  17.519  0.00  0.00    +0.000 OA
ENDBRANCH  18  19
ENDBRANCH   4  18
TORSDOF 5
ENDMDL
MODEL 4
REMARK VINA RESULT:      -6.7      1.861      2.762
REMARK  Name = 
REMARK  9 active torsions:
REMARK  status: ('A' for Active; 'I' for Inactive)
REMARK    1  A    between atoms: C_1  and  C_2
REMARK    2  A    between atoms: C_2  and  C_3
REMARK    3  A    between atoms: C_3  and  N_4
REMARK    4  A    between atoms: C_3  and  C_18
REMARK    5  A    between atoms: N_7  and  C_8
REMARK    6  A    between atoms: C_8  and  C_9
REMARK    7  A    between atoms: C_19  and  C_20
REMARK    8  A    between atoms: N_22  and  C_23
REMARK    9  A    between atoms: C_24  and  C_25
REMARK                            x       y       z     vdW  Elec       q    Type
REMARK                         _______ _______ _______ _____ _____    ______ ____
ROOT
ATOM      1  N   UNL     1       1.224   9.657  20.156  0.00  0.00    +0.000 N 
ATOM      2  C   UNL     1       1.449   8.887  19.059  0.00  0.00    +0.000 C 
ATOM      3  O   UNL     1       1.099   9.206  17.921  0.00  0.00    +0.000 OA
ATOM      4  N   UNL     1       2.133   7.727  19.340  0.00  0.00    +0.000 N 
ATOM      5  H   UNL     1       0.962   9.117  20.966  0.00  0.00    +0.000 HD
ATOM      6  H   UNL     1       2.854   7.841  20.050  0.00  0.00    +0.000 HD
ENDROOT
BRANCH   1   7
ATOM      7  C   UNL     1       0.561  10.947  19.988  0.00  0.00    +0.000 C 
BRANCH   7   8
ATOM      8  C   UNL     1      -0.374  11.132  21.154  0.00  0.00    +0.000 A 
ATOM      9  C   UNL     1      -0.365  10.450  22.407  0.00  0.00    +0.000 A 
ATOM     10  C   UNL     1       0.580   9.427  22.930  0.00  0.00    +0.000 C 
ATOM     11  N   UNL     1      -1.371  10.849  23.194  0.00  0.00    +0.000 NA
ATOM     12  N   UNL     1      -2.010  11.784  22.475  0.00  0.00    +0.000 N 
ATOM     13  C   UNL     1      -3.160  12.442  23.051  0.00  0.00    +0.000 C 
ATOM     14  C   UNL     1      -1.438  12.024  21.256  0.00  0.00    +0.000 A 
ATOM     15  C   UNL     1      -1.919  13.061  20.305  0.00  0.00    +0.000 C 
ENDBRANCH   7   8
BRANCH   7  17
ATOM     16  C   UNL     1       1.813  12.680  18.507  0.00  0.00    +0.000 C 
ATOM     17  C   UNL     1       1.562  12.125  19.899  0.00  0.00    +0.000 C 
ENDBRANCH   7  17
ENDBRANCH   1   7
BRANCH   4  18
ATOM     18  C   UNL     1       2.512   6.982  18.160  0.00  0.00    +0.000 C 
BRANCH  18  19
ATOM     19  C   UNL     1       3.827   6.203  18.200  0.00  0.00    +0.000 C 
ATOM     20  C   UNL     1       4.001   5.571  19.601  0.00  0.00    +0.000 C 
ATOM     21  N   UNL     1       3.078   4.476  19.906  0.00  0.00    +0.000 NA
ATOM     22  C   UNL     1       1.893   4.822  20.680  0.00  0.00    +0.000 C 
ATOM     23  C   UNL     1       0.902   3.713  20.383  0.00  0.00    +0.000 C 
ATOM     24  C   UNL     1       1.260   3.217  18.992  0.00  0.00    +0.000 C 
ATOM     25  C   UNL     1       2.718   3.632  18.760  0.00  0.00    +0.000 C 
ATOM     26  C   UNL     1       2.919   4.179  17.323  0.00  0.00    +0.000 C 
ATOM     27  O   UNL     1       3.928   5.182  17.194  0.00  0.00    +0.000 OA
ENDBRANCH  18  19
ENDBRANCH   4  18
TORSDOF 5
ENDMDL
MODEL 5
REMARK VINA RESULT:      -6.6      1.101      1.327
REMARK  Name = 
REMARK  9 active torsions:
REMARK  status: ('A' for Active; 'I' for Inactive)
REMARK    1  A    between atoms: C_1  and  C_2
REMARK    2  A    between atoms: C_2  and  C_3
REMARK    3  A    between atoms: C_3  and  N_4
REMARK    4  A    between atoms: C_3  and  C_18
REMARK    5  A    between atoms: N_7  and  C_8
REMARK    6  A    between atoms: C_8  and  C_9
REMARK    7  A    between atoms: C_19  and  C_20
REMARK    8  A    between atoms: N_22  and  C_23
REMARK    9  A    between atoms: C_24  and  C_25
REMARK                            x       y       z     vdW  Elec       q    Type
REMARK                         _______ _______ _______ _____ _____    ______ ____
ROOT
ATOM      1  N   UNL     1       1.444   9.333  18.209  0.00  0.00    +0.000 N 
ATOM      2  C   UNL     1       1.964   8.214  18.781  0.00  0.00    +0.000 C 
ATOM      3  O   UNL     1       1.547   7.735  19.837  0.00  0.00    +0.000 OA
ATOM      4  N   UNL     1       2.984   7.653  18.048  0.00  0.00    +0.000 N 
ATOM      5  H   UNL     1       2.151   9.933  17.811  0.00  0.00    +0.000 HD
ATOM      6  H   UNL     1       2.837   7.699  17.043  0.00  0.00    +0.000 HD
ENDROOT
BRANCH   1   7
ATOM      7  C   UNL     1       0.312   9.993  18.852  0.00  0.00    +0.000 C 
BRANCH   7   8
ATOM      8  C   UNL     1       0.860  11.120  19.689  0.00  0.00    +0.000 A 
ATOM      9  C   UNL     1       0.591  11.409  21.059  0.00  0.00    +0.000 A 
ATOM     10  C   UNL     1      -0.240  10.669  22.047  0.00  0.00    +0.000 C 
ATOM     11  N   UNL     1       1.227  12.515  21.465  0.00  0.00    +0.000 NA
ATOM     12  N   UNL     1       1.910  12.925  20.386  0.00  0.00    +0.000 N 
ATOM     13  C   UNL     1       2.732  14.108  20.487  0.00  0.00    +0.000 C 
ATOM     14  C   UNL     1       1.758  12.109  19.298  0.00  0.00    +0.000 A 
ATOM     15  C   UNL     1       2.465  12.310  18.006  0.00  0.00    +0.000 C 
ENDBRANCH   7   8
BRANCH   7  17
ATOM     16  C   UNL     1      -2.166  10.102  18.072  0.00  0.00    +0.000 C 
ATOM     17  C   UNL     1      -0.726  10.524  17.834  0.00  0.00    +0.000 C 
ENDBRANCH   7  17
ENDBRANCH   1   7
BRANCH   4  18
ATOM     18  C   UNL     1       3.433   6.381  18.570  0.00  0.00    +0.000 C 
BRANCH  18  19
ATOM     19  C   UNL     1       4.843   5.918  18.201  0.00  0.00    +0.000 C 
ATOM     20  C   UNL     1       5.287   4.811  19.187  0.00  0.00    +0.000 C 
ATOM     21  N   UNL     1       4.584   3.535  19.046  0.00  0.00    +0.000 NA
ATOM     22  C   UNL     1       3.470   3.303  19.957  0.00  0.00    +0.000 C 
ATOM     23  C   UNL     1       2.625   2.248  19.270  0.00  0.00    +0.000 C 
ATOM     24  C   UNL     1       2.869   2.444  17.783  0.00  0.00    +0.000 C 
ATOM     25  C   UNL     1       4.208   3.184  17.671  0.00  0.00    +0.000 C 
ATOM     26  C   UNL     1       4.138   4.299  16.596  0.00  0.00    +0.000 C 
ATOM     27  O   UNL     1       4.963   5.438  16.853  0.00  0.00    +0.000 OA
ENDBRANCH  18  19
ENDBRANCH   4  18
TORSDOF 5
ENDMDL
MODEL 6
REMARK VINA RESULT:      -6.6      2.293      3.309
REMARK  Name = 
REMARK  9 active torsions:
REMARK  status: ('A' for Active; 'I' for Inactive)
REMARK    1  A    between atoms: C_1  and  C_2
REMARK    2  A    between atoms: C_2  and  C_3
REMARK    3  A    between atoms: C_3  and  N_4
REMARK    4  A    between atoms: C_3  and  C_18
REMARK    5  A    between atoms: N_7  and  C_8
REMARK    6  A    between atoms: C_8  and  C_9
REMARK    7  A    between atoms: C_19  and  C_20
REMARK    8  A    between atoms: N_22  and  C_23
REMARK    9  A    between atoms: C_24  and  C_25
REMARK                            x       y       z     vdW  Elec       q    Type
REMARK                         _______ _______ _______ _____ _____    ______ ____
ROOT
ATOM      1  N   UNL     1       1.007   9.670  17.952  0.00  0.00    +0.000 N 
ATOM      2  C   UNL     1       1.855   8.731  18.450  0.00  0.00    +0.000 C 
ATOM      3  O   UNL     1       1.639   8.105  19.489  0.00  0.00    +0.000 OA
ATOM      4  N   UNL     1       2.966   8.530  17.665  0.00  0.00    +0.000 N 
ATOM      5  H   UNL     1       1.489  10.469  17.569  0.00  0.00    +0.000 HD
ATOM      6  H   UNL     1       2.773   8.575  16.667  0.00  0.00    +0.000 HD
ENDROOT
BRANCH   1   7
ATOM      7  C   UNL     1      -0.243   9.936  18.656  0.00  0.00    +0.000 C 
BRANCH   7   8
ATOM      8  C   UNL     1       0.061  10.901  19.772  0.00  0.00    +0.000 A 
ATOM      9  C   UNL     1      -0.006  10.668  21.178  0.00  0.00    +0.000 A 
ATOM     10  C   UNL     1      -0.332   9.425  21.926  0.00  0.00    +0.000 C 
ATOM     11  N   UNL     1       0.300  11.769  21.875  0.00  0.00    +0.000 NA
ATOM     12  N   UNL     1       0.579  12.692  20.942  0.00  0.00    +0.000 N 
ATOM     13  C   UNL     1       0.970  14.016  21.366  0.00  0.00    +0.000 C 
ATOM     14  C   UNL     1       0.487  12.221  19.662  0.00  0.00    +0.000 A 
ATOM     15  C   UNL     1       0.813  13.029  18.457  0.00  0.00    +0.000 C 
ENDBRANCH   7   8
BRANCH   7  17
ATOM     16  C   UNL     1      -2.704   9.840  17.818  0.00  0.00    +0.000 C 
ATOM     17  C   UNL     1      -1.341  10.507  17.726  0.00  0.00    +0.000 C 
ENDBRANCH   7  17
ENDBRANCH   1   7
BRANCH   4  18
ATOM     18  C   UNL     1       3.790   7.427  18.107  0.00  0.00    +0.000 C 
BRANCH  18  19
ATOM     19  C   UNL     1       3.792   6.154  17.259  0.00  0.00    +0.000 C 
ATOM     20  C   UNL     1       5.047   6.150  16.354  0.00  0.00    +0.000 C 
ATOM     21  N   UNL     1       6.318   5.960  17.055  0.00  0.00    +0.000 NA
ATOM     22  C   UNL     1       7.074   7.165  17.368  0.00  0.00    +0.000 C 
ATOM     23  C   UNL     1       7.987   6.760  18.509  0.00  0.00    +0.000 C 
ATOM     24  C   UNL     1       7.253   5.646  19.235  0.00  0.00    +0.000 C 
ATOM     25  C   UNL     1       6.254   5.072  18.223  0.00  0.00    +0.000 C 
ATOM     26  C   UNL     1       4.882   4.797  18.891  0.00  0.00    +0.000 C 
ATOM     27  O   UNL     1       3.750   4.943  18.030  0.00  0.00    +0.000 OA
ENDBRANCH  18  19
ENDBRANCH   4  18
TORSDOF 5
ENDMDL
MODEL 7
REMARK VINA RESULT:      -6.6      1.419      2.233
REMARK  Name = 
REMARK  9 active torsions:
REMARK  status: ('A' for Active; 'I' for Inactive)
REMARK    1  A    between atoms: C_1  and  C_2
REMARK    2  A    between atoms: C_2  and  C_3
REMARK    3  A    between atoms: C_3  and  N_4
REMARK    4  A    between atoms: C_3  and  C_18
REMARK    5  A    between atoms: N_7  and  C_8
REMARK    6  A    between atoms: C_8  and  C_9
REMARK    7  A    between atoms: C_19  and  C_20
REMARK    8  A    between atoms: N_22  and  C_23
REMARK    9  A    between atoms: C_24  and  C_25
REMARK                            x       y       z     vdW  Elec       q    Type
REMARK                         _______ _______ _______ _____ _____    ______ ____
ROOT
ATOM      1  N   UNL     1       1.112   9.465  19.604  0.00  0.00    +0.000 N 
ATOM      2  C   UNL     1       1.769   8.378  20.090  0.00  0.00    +0.000 C 
ATOM      3  O   UNL     1       1.926   8.162  21.293  0.00  0.00    +0.000 OA
ATOM      4  N   UNL     1       2.217   7.528  19.105  0.00  0.00    +0.000 N 
ATOM      5  H   UNL     1       1.551   9.852  18.782  0.00  0.00    +0.000 HD
ATOM      6  H   UNL     1       1.573   7.437  18.323  0.00  0.00    +0.000 HD
ENDROOT
BRANCH   1   7
ATOM      7  C   UNL     1       0.530  10.417  20.545  0.00  0.00    +0.000 C 
BRANCH   7   8
ATOM      8  C   UNL     1       0.084  11.620  19.756  0.00  0.00    +0.000 A 
ATOM      9  C   UNL     1      -0.762  11.656  18.609  0.00  0.00    +0.000 A 
ATOM     10  C   UNL     1      -1.475  10.552  17.912  0.00  0.00    +0.000 C 
ATOM     11  N   UNL     1      -0.914  12.903  18.147  0.00  0.00    +0.000 NA
ATOM     12  N   UNL     1      -0.198  13.664  18.988  0.00  0.00    +0.000 N 
ATOM     13  C   UNL     1      -0.161  15.092  18.778  0.00  0.00    +0.000 C 
ATOM     14  C   UNL     1       0.397  12.955  19.995  0.00  0.00    +0.000 A 
ATOM     15  C   UNL     1       1.186  13.577  21.091  0.00  0.00    +0.000 C 
ENDBRANCH   7   8
BRANCH   7  17
ATOM     16  C   UNL     1      -0.594   9.990  22.851  0.00  0.00    +0.000 C 
ATOM     17  C   UNL     1      -0.654   9.819  21.342  0.00  0.00    +0.000 C 
ENDBRANCH   7  17
ENDBRANCH   1   7
BRANCH   4  18
ATOM     18  C   UNL     1       2.776   6.298  19.619  0.00  0.00    +0.000 C 
BRANCH  18  19
ATOM     19  C   UNL     1       3.556   5.409  18.649  0.00  0.00    +0.000 C 
ATOM     20  C   UNL     1       4.107   4.184  19.415  0.00  0.00    +0.000 C 
ATOM     21  N   UNL     1       3.097   3.217  19.849  0.00  0.00    +0.000 NA
ATOM     22  C   UNL     1       2.636   3.332  21.226  0.00  0.00    +0.000 C 
ATOM     23  C   UNL     1       1.286   2.640  21.239  0.00  0.00    +0.000 C 
ATOM     24  C   UNL     1       0.740   2.798  19.830  0.00  0.00    +0.000 C 
ATOM     25  C   UNL     1       1.958   3.059  18.935  0.00  0.00    +0.000 C 
ATOM     26  C   UNL     1       1.658   4.173  17.899  0.00  0.00    +0.000 C 
ATOM     27  O   UNL     1       2.785   4.966  17.521  0.00  0.00    +0.000 OA
ENDBRANCH  18  19
ENDBRANCH   4  18
TORSDOF 5
ENDMDL
MODEL 8
REMARK VINA RESULT:      -6.6      1.515      2.345
REMARK  Name = 
REMARK  9 active torsions:
REMARK  status: ('A' for Active; 'I' for Inactive)
REMARK    1  A    between atoms: C_1  and  C_2
REMARK    2  A    between atoms: C_2  and  C_3
REMARK    3  A    between atoms: C_3  and  N_4
REMARK    4  A    between atoms: C_3  and  C_18
REMARK    5  A    between atoms: N_7  and  C_8
REMARK    6  A    between atoms: C_8  and  C_9
REMARK    7  A    between atoms: C_19  and  C_20
REMARK    8  A    between atoms: N_22  and  C_23
REMARK    9  A    between atoms: C_24  and  C_25
REMARK                            x       y       z     vdW  Elec       q    Type
REMARK                         _______ _______ _______ _____ _____    ______ ____
ROOT
ATOM      1  N   UNL     1       1.362   9.415  18.863  0.00  0.00    +0.000 N 
ATOM      2  C   UNL     1       1.917   8.197  19.099  0.00  0.00    +0.000 C 
ATOM      3  O   UNL     1       2.074   7.729  20.228  0.00  0.00    +0.000 OA
ATOM      4  N   UNL     1       2.263   7.526  17.949  0.00  0.00    +0.000 N 
ATOM      5  H   UNL     1       1.823   9.918  18.120  0.00  0.00    +0.000 HD
ATOM      6  H   UNL     1       1.601   7.654  17.188  0.00  0.00    +0.000 HD
ENDROOT
BRANCH   1   7
ATOM      7  C   UNL     1       0.892  10.208  19.995  0.00  0.00    +0.000 C 
BRANCH   7   8
ATOM      8  C   UNL     1       0.391  11.521  19.454  0.00  0.00    +0.000 A 
ATOM      9  C   UNL     1      -0.682  11.744  18.541  0.00  0.00    +0.000 A 
ATOM     10  C   UNL     1      -1.627  10.776  17.922  0.00  0.00    +0.000 C 
ATOM     11  N   UNL     1      -0.823  13.044  18.253  0.00  0.00    +0.000 NA
ATOM     12  N   UNL     1       0.127  13.654  18.978  0.00  0.00    +0.000 N 
ATOM     13  C   UNL     1       0.242  15.092  18.908  0.00  0.00    +0.000 C 
ATOM     14  C   UNL     1       0.865  12.797  19.746  0.00  0.00    +0.000 A 
ATOM     15  C   UNL     1       1.929  13.235  20.687  0.00  0.00    +0.000 C 
ENDBRANCH   7   8
BRANCH   7  17
ATOM     16  C   UNL     1      -0.136   9.637  22.315  0.00  0.00    +0.000 C 
ATOM     17  C   UNL     1      -0.217   9.493  20.804  0.00  0.00    +0.000 C 
ENDBRANCH   7  17
ENDBRANCH   1   7
BRANCH   4  18
ATOM     18  C   UNL     1       2.708   6.171  18.187  0.00  0.00    +0.000 C 
BRANCH  18  19
ATOM     19  C   UNL     1       4.215   5.907  18.201  0.00  0.00    +0.000 C 
ATOM     20  C   UNL     1       4.561   5.006  19.409  0.00  0.00    +0.000 C 
ATOM     21  N   UNL     1       4.089   3.624  19.309  0.00  0.00    +0.000 NA
ATOM     22  C   UNL     1       2.835   3.315  19.984  0.00  0.00    +0.000 C 
ATOM     23  C   UNL     1       2.323   2.065  19.293  0.00  0.00    +0.000 C 
ATOM     24  C   UNL     1       2.880   2.131  17.881  0.00  0.00    +0.000 C 
ATOM     25  C   UNL     1       4.095   3.064  17.951  0.00  0.00    +0.000 C 
ATOM     26  C   UNL     1       4.129   4.026  16.735  0.00  0.00    +0.000 C 
ATOM     27  O   UNL     1       4.710   5.306  16.994  0.00  0.00    +0.000 OA
ENDBRANCH  18  19
ENDBRANCH   4  18
TORSDOF 5
ENDMDL
MODEL 9
REMARK VINA RESULT:      -6.5      2.123      7.516
REMARK  Name = 
REMARK  9 active torsions:
REMARK  status: ('A' for Active; 'I' for Inactive)
REMARK    1  A    between atoms: C_1  and  C_2
REMARK    2  A    between atoms: C_2  and  C_3
REMARK    3  A    between atoms: C_3  and  N_4
REMARK    4  A    between atoms: C_3  and  C_18
REMARK    5  A    between atoms: N_7  and  C_8
REMARK    6  A    between atoms: C_8  and  C_9
REMARK    7  A    between atoms: C_19  and  C_20
REMARK    8  A    between atoms: N_22  and  C_23
REMARK    9  A    between atoms: C_24  and  C_25
REMARK                            x       y       z     vdW  Elec       q    Type
REMARK                         _______ _______ _______ _____ _____    ______ ____
ROOT
ATOM      1  N   UNL     1       2.158   5.589  19.677  0.00  0.00    +0.000 N 
ATOM      2  C   UNL     1       1.774   6.877  19.883  0.00  0.00    +0.000 C 
ATOM      3  O   UNL     1       1.850   7.755  19.021  0.00  0.00    +0.000 OA
ATOM      4  N   UNL     1       1.265   7.097  21.142  0.00  0.00    +0.000 N 
ATOM      5  H   UNL     1       2.629   5.189  20.474  0.00  0.00    +0.000 HD
ATOM      6  H   UNL     1       0.702   6.326  21.494  0.00  0.00    +0.000 HD
ENDROOT
BRANCH   1   7
ATOM      7  C   UNL     1       2.659   5.205  18.361  0.00  0.00    +0.000 C 
BRANCH   7   8
ATOM      8  C   UNL     1       4.155   5.057  18.469  0.00  0.00    +0.000 A 
ATOM      9  C   UNL     1       4.892   4.036  19.138  0.00  0.00    +0.000 A 
ATOM     10  C   UNL     1       4.411   2.823  19.853  0.00  0.00    +0.000 C 
ATOM     11  N   UNL     1       6.211   4.245  19.057  0.00  0.00    +0.000 NA
ATOM     12  N   UNL     1       6.330   5.369  18.335  0.00  0.00    +0.000 N 
ATOM     13  C   UNL     1       7.650   5.876  18.043  0.00  0.00    +0.000 C 
ATOM     14  C   UNL     1       5.131   5.885  17.923  0.00  0.00    +0.000 A 
ATOM     15  C   UNL     1       5.000   7.084  17.054  0.00  0.00    +0.000 C 
ENDBRANCH   7   8
BRANCH   7  17
ATOM     16  C   UNL     1       1.013   3.232  18.763  0.00  0.00    +0.000 C 
ATOM     17  C   UNL     1       2.019   3.897  17.837  0.00  0.00    +0.000 C 
ENDBRANCH   7  17
ENDBRANCH   1   7
BRANCH   4  18
ATOM     18  C   UNL     1       0.712   8.422  21.314  0.00  0.00    +0.000 C 
BRANCH  18  19
ATOM     19  C   UNL     1       1.342   9.325  22.375  0.00  0.00    +0.000 C 
ATOM     20  C   UNL     1       1.815  10.638  21.708  0.00  0.00    +0.000 C 
ATOM     21  N   UNL     1       0.743  11.528  21.259  0.00  0.00    +0.000 NA
ATOM     22  C   UNL     1       0.378  11.446  19.851  0.00  0.00    +0.000 C 
ATOM     23  C   UNL     1      -1.030  12.007  19.785  0.00  0.00    +0.000 C 
ATOM     24  C   UNL     1      -1.640  11.720  21.147  0.00  0.00    +0.000 C 
ATOM     25  C   UNL     1      -0.458  11.526  22.105  0.00  0.00    +0.000 C 
ATOM     26  C   UNL     1      -0.709  10.333  23.063  0.00  0.00    +0.000 C 
ATOM     27  O   UNL     1       0.467   9.630  23.473  0.00  0.00    +0.000 OA
ENDBRANCH  18  19
ENDBRANCH   4  18
TORSDOF 5
ENDMDL
