MODEL 1
REMARK VINA RESULT:      -7.3      0.000      0.000
REMARK  Name = 
REMARK  3 active torsions:
REMARK  status: ('A' for Active; 'I' for Inactive)
REMARK    1  A    between atoms: C_2  and  C_5
REMARK    2  A    between atoms: N_12  and  C_13
REMARK    3  A    between atoms: C_13  and  C_14
REMARK                            x       y       z     vdW  Elec       q    Type
REMARK                         _______ _______ _______ _____ _____    ______ ____
ROOT
ATOM      1  C   UNL     1       6.909   4.527  13.185  0.00  0.00    +0.000 A 
ATOM      2  N   UNL     1       7.620   5.470  13.769  0.00  0.00    +0.000 NA
ATOM      3  N   UNL     1       7.249   5.656  15.083  0.00  0.00    +0.000 NA
ATOM      4  C   UNL     1       6.284   4.849  15.489  0.00  0.00    +0.000 A 
ATOM      5  N   UNL     1       5.802   4.803  16.764  0.00  0.00    +0.000 N 
ATOM      6  C   UNL     1       4.705   3.931  17.189  0.00  0.00    +0.000 C 
ATOM      7  C   UNL     1       4.970   3.384  18.616  0.00  0.00    +0.000 C 
ATOM      8  N   UNL     1       5.302   4.404  19.637  0.00  0.00    +0.000 NA
ATOM      9  C   UNL     1       6.428   5.220  19.116  0.00  0.00    +0.000 C 
ATOM     10  C   UNL     1       6.199   5.843  17.722  0.00  0.00    +0.000 C 
ATOM     11  S   UNL     1       5.725   3.827  14.208  0.00  0.00    +0.000 S 
ENDROOT
BRANCH   1  13
ATOM     12  F   UNL     1       7.537   4.999  10.941  0.00  0.00    +0.000 F 
ATOM     13  C   UNL     1       7.047   4.052  11.782  0.00  0.00    +0.000 C 
ATOM     14  F   UNL     1       5.855   3.652  11.259  0.00  0.00    +0.000 F 
ATOM     15  F   UNL     1       7.884   2.982  11.685  0.00  0.00    +0.000 F 
ENDBRANCH   1  13
BRANCH   8  16
ATOM     16  C   UNL     1       4.108   5.203  19.963  0.00  0.00    +0.000 C 
BRANCH  16  17
ATOM     17  C   UNL     1       2.856   4.394  20.221  0.00  0.00    +0.000 A 
ATOM     18  C   UNL     1       1.811   4.396  19.284  0.00  0.00    +0.000 A 
ATOM     19  C   UNL     1       0.665   3.629  19.497  0.00  0.00    +0.000 A 
ATOM     20  C   UNL     1       0.553   2.851  20.648  0.00  0.00    +0.000 A 
ATOM     21  C   UNL     1       1.582   2.841  21.587  0.00  0.00    +0.000 A 
ATOM     22  C   UNL     1       2.730   3.609  21.376  0.00  0.00    +0.000 A 
ENDBRANCH  16  17
ENDBRANCH   8  16
TORSDOF 3
ENDMDL
MODEL 2
REMARK VINA RESULT:      -7.2      0.069      1.305
REMARK  Name = 
REMARK  3 active torsions:
REMARK  status: ('A' for Active; 'I' for Inactive)
REMARK    1  A    between atoms: C_2  and  C_5
REMARK    2  A    between atoms: N_12  and  C_13
REMARK    3  A    between atoms: C_13  and  C_14
REMARK                            x       y       z     vdW  Elec       q    Type
REMARK                         _______ _______ _______ _____ _____    ______ ____
ROOT
ATOM      1  C   UNL     1       6.874   4.501  13.124  0.00  0.00    +0.000 A 
ATOM      2  N   UNL     1       7.582   5.455  13.693  0.00  0.00    +0.000 NA
ATOM      3  N   UNL     1       7.226   5.645  15.010  0.00  0.00    +0.000 NA
ATOM      4  C   UNL     1       6.275   4.830  15.434  0.00  0.00    +0.000 A 
ATOM      5  N   UNL     1       5.810   4.787  16.715  0.00  0.00    +0.000 N 
ATOM      6  C   UNL     1       4.728   3.906  17.160  0.00  0.00    +0.000 C 
ATOM      7  C   UNL     1       5.017   3.371  18.586  0.00  0.00    +0.000 C 
ATOM      8  N   UNL     1       5.350   4.402  19.597  0.00  0.00    +0.000 NA
ATOM      9  C   UNL     1       6.460   5.227  19.055  0.00  0.00    +0.000 C 
ATOM     10  C   UNL     1       6.207   5.838  17.661  0.00  0.00    +0.000 C 
ATOM     11  S   UNL     1       5.711   3.794  14.166  0.00  0.00    +0.000 S 
ENDROOT
BRANCH   1  13
ATOM     12  F   UNL     1       7.854   2.969  11.591  0.00  0.00    +0.000 F 
ATOM     13  C   UNL     1       7.000   4.017  11.722  0.00  0.00    +0.000 C 
ATOM     14  F   UNL     1       7.455   4.991  10.886  0.00  0.00    +0.000 F 
ATOM     15  F   UNL     1       5.806   3.606  11.214  0.00  0.00    +0.000 F 
ENDBRANCH   1  13
BRANCH   8  16
ATOM     16  C   UNL     1       4.152   5.190  19.932  0.00  0.00    +0.000 C 
BRANCH  16  17
ATOM     17  C   UNL     1       2.905   4.371  20.181  0.00  0.00    +0.000 A 
ATOM     18  C   UNL     1       2.797   3.588  21.341  0.00  0.00    +0.000 A 
ATOM     19  C   UNL     1       1.638   2.854  21.596  0.00  0.00    +0.000 A 
ATOM     20  C   UNL     1       0.576   2.896  20.696  0.00  0.00    +0.000 A 
ATOM     21  C   UNL     1       0.670   3.667  19.539  0.00  0.00    +0.000 A 
ATOM     22  C   UNL     1       1.830   4.403  19.282  0.00  0.00    +0.000 A 
ENDBRANCH  16  17
ENDBRANCH   8  16
TORSDOF 3
ENDMDL
MODEL 3
REMARK VINA RESULT:      -6.8      5.500      8.480
REMARK  Name = 
REMARK  3 active torsions:
REMARK  status: ('A' for Active; 'I' for Inactive)
REMARK    1  A    between atoms: C_2  and  C_5
REMARK    2  A    between atoms: N_12  and  C_13
REMARK    3  A    between atoms: C_13  and  C_14
REMARK                            x       y       z     vdW  Elec       q    Type
REMARK                         _______ _______ _______ _____ _____    ______ ____
ROOT
ATOM      1  C   UNL     1       1.269   8.005  20.480  0.00  0.00    +0.000 A 
ATOM      2  N   UNL     1       1.464   6.842  21.067  0.00  0.00    +0.000 NA
ATOM      3  N   UNL     1       2.273   6.016  20.317  0.00  0.00    +0.000 NA
ATOM      4  C   UNL     1       2.698   6.559  19.189  0.00  0.00    +0.000 A 
ATOM      5  N   UNL     1       3.562   5.959  18.322  0.00  0.00    +0.000 N 
ATOM      6  C   UNL     1       3.992   6.556  17.056  0.00  0.00    +0.000 C 
ATOM      7  C   UNL     1       5.486   6.237  16.786  0.00  0.00    +0.000 C 
ATOM      8  N   UNL     1       5.858   4.807  16.884  0.00  0.00    +0.000 NA
ATOM      9  C   UNL     1       5.391   4.304  18.201  0.00  0.00    +0.000 C 
ATOM     10  C   UNL     1       3.896   4.540  18.503  0.00  0.00    +0.000 C 
ATOM     11  S   UNL     1       2.048   8.147  18.961  0.00  0.00    +0.000 S 
ENDROOT
BRANCH   1  13
ATOM     12  F   UNL     1       1.222  10.106  21.593  0.00  0.00    +0.000 F 
ATOM     13  C   UNL     1       0.465   9.141  21.008  0.00  0.00    +0.000 C 
ATOM     14  F   UNL     1      -0.436   8.737  21.945  0.00  0.00    +0.000 F 
ATOM     15  F   UNL     1      -0.253   9.757  20.029  0.00  0.00    +0.000 F 
ENDBRANCH   1  13
BRANCH   8  16
ATOM     16  C   UNL     1       5.298   4.057  15.746  0.00  0.00    +0.000 C 
BRANCH  16  17
ATOM     17  C   UNL     1       6.069   4.202  14.452  0.00  0.00    +0.000 A 
ATOM     18  C   UNL     1       5.645   3.521  13.301  0.00  0.00    +0.000 A 
ATOM     19  C   UNL     1       6.329   3.671  12.094  0.00  0.00    +0.000 A 
ATOM     20  C   UNL     1       7.443   4.505  12.027  0.00  0.00    +0.000 A 
ATOM     21  C   UNL     1       7.877   5.186  13.163  0.00  0.00    +0.000 A 
ATOM     22  C   UNL     1       7.193   5.036  14.372  0.00  0.00    +0.000 A 
ENDBRANCH  16  17
ENDBRANCH   8  16
TORSDOF 3
ENDMDL
MODEL 4
REMARK VINA RESULT:      -6.8      5.399      8.309
REMARK  Name = 
REMARK  3 active torsions:
REMARK  status: ('A' for Active; 'I' for Inactive)
REMARK    1  A    between atoms: C_2  and  C_5
REMARK    2  A    between atoms: N_12  and  C_13
REMARK    3  A    between atoms: C_13  and  C_14
REMARK                            x       y       z     vdW  Elec       q    Type
REMARK                         _______ _______ _______ _____ _____    ______ ____
ROOT
ATOM      1  C   UNL     1       1.428   8.629  19.775  0.00  0.00    +0.000 A 
ATOM      2  N   UNL     1       1.599   7.570  20.540  0.00  0.00    +0.000 NA
ATOM      3  N   UNL     1       2.425   6.637  19.951  0.00  0.00    +0.000 NA
ATOM      4  C   UNL     1       2.887   6.999  18.766  0.00  0.00    +0.000 A 
ATOM      5  N   UNL     1       3.773   6.271  18.028  0.00  0.00    +0.000 N 
ATOM      6  C   UNL     1       4.245   6.666  16.699  0.00  0.00    +0.000 C 
ATOM      7  C   UNL     1       5.743   6.306  16.528  0.00  0.00    +0.000 C 
ATOM      8  N   UNL     1       6.103   4.908  16.856  0.00  0.00    +0.000 NA
ATOM      9  C   UNL     1       5.594   4.615  18.220  0.00  0.00    +0.000 C 
ATOM     10  C   UNL     1       4.092   4.897  18.436  0.00  0.00    +0.000 C 
ATOM     11  S   UNL     1       2.253   8.534  18.276  0.00  0.00    +0.000 S 
ENDROOT
BRANCH   1  13
ATOM     12  F   UNL     1      -0.699   9.558  20.291  0.00  0.00    +0.000 F 
ATOM     13  C   UNL     1       0.617   9.834  20.097  0.00  0.00    +0.000 C 
ATOM     14  F   UNL     1       0.672  10.766  19.105  0.00  0.00    +0.000 F 
ATOM     15  F   UNL     1       1.050  10.456  21.228  0.00  0.00    +0.000 F 
ENDBRANCH   1  13
BRANCH   8  16
ATOM     16  C   UNL     1       5.573   3.993  15.831  0.00  0.00    +0.000 C 
BRANCH  16  17
ATOM     17  C   UNL     1       6.206   4.139  14.464  0.00  0.00    +0.000 A 
ATOM     18  C   UNL     1       5.670   3.453  13.364  0.00  0.00    +0.000 A 
ATOM     19  C   UNL     1       6.226   3.605  12.093  0.00  0.00    +0.000 A 
ATOM     20  C   UNL     1       7.322   4.445  11.910  0.00  0.00    +0.000 A 
ATOM     21  C   UNL     1       7.866   5.131  12.994  0.00  0.00    +0.000 A 
ATOM     22  C   UNL     1       7.310   4.980  14.267  0.00  0.00    +0.000 A 
ENDBRANCH  16  17
ENDBRANCH   8  16
TORSDOF 3
ENDMDL
MODEL 5
REMARK VINA RESULT:      -6.8      5.584      8.544
REMARK  Name = 
REMARK  3 active torsions:
REMARK  status: ('A' for Active; 'I' for Inactive)
REMARK    1  A    between atoms: C_2  and  C_5
REMARK    2  A    between atoms: N_12  and  C_13
REMARK    3  A    between atoms: C_13  and  C_14
REMARK                            x       y       z     vdW  Elec       q    Type
REMARK                         _______ _______ _______ _____ _____    ______ ____
ROOT
ATOM      1  C   UNL     1       1.205   8.188  20.493  0.00  0.00    +0.000 A 
ATOM      2  N   UNL     1       1.390   7.027  21.088  0.00  0.00    +0.000 NA
ATOM      3  N   UNL     1       2.184   6.186  20.339  0.00  0.00    +0.000 NA
ATOM      4  C   UNL     1       2.608   6.715  19.204  0.00  0.00    +0.000 A 
ATOM      5  N   UNL     1       3.459   6.097  18.336  0.00  0.00    +0.000 N 
ATOM      6  C   UNL     1       3.889   6.680  17.063  0.00  0.00    +0.000 C 
ATOM      7  C   UNL     1       5.376   6.340  16.786  0.00  0.00    +0.000 C 
ATOM      8  N   UNL     1       5.731   4.906  16.892  0.00  0.00    +0.000 NA
ATOM      9  C   UNL     1       5.267   4.420  18.217  0.00  0.00    +0.000 C 
ATOM     10  C   UNL     1       3.777   4.676  18.526  0.00  0.00    +0.000 C 
ATOM     11  S   UNL     1       1.975   8.309  18.967  0.00  0.00    +0.000 S 
ENDROOT
BRANCH   1  13
ATOM     12  F   UNL     1       1.182  10.426  21.297  0.00  0.00    +0.000 F 
ATOM     13  C   UNL     1       0.419   9.338  21.017  0.00  0.00    +0.000 C 
ATOM     14  F   UNL     1      -0.241   9.024  22.166  0.00  0.00    +0.000 F 
ATOM     15  F   UNL     1      -0.531   9.752  20.134  0.00  0.00    +0.000 F 
ENDBRANCH   1  13
BRANCH   8  16
ATOM     16  C   UNL     1       5.155   4.155  15.765  0.00  0.00    +0.000 C 
BRANCH  16  17
ATOM     17  C   UNL     1       5.934   4.259  14.471  0.00  0.00    +0.000 A 
ATOM     18  C   UNL     1       7.109   5.023  14.417  0.00  0.00    +0.000 A 
ATOM     19  C   UNL     1       7.851   5.101  13.238  0.00  0.00    +0.000 A 
ATOM     20  C   UNL     1       7.428   4.413  12.103  0.00  0.00    +0.000 A 
ATOM     21  C   UNL     1       6.261   3.651  12.142  0.00  0.00    +0.000 A 
ATOM     22  C   UNL     1       5.516   3.573  13.322  0.00  0.00    +0.000 A 
ENDBRANCH  16  17
ENDBRANCH   8  16
TORSDOF 3
ENDMDL
MODEL 6
REMARK VINA RESULT:      -6.7      6.927      8.915
REMARK  Name = 
REMARK  3 active torsions:
REMARK  status: ('A' for Active; 'I' for Inactive)
REMARK    1  A    between atoms: C_2  and  C_5
REMARK    2  A    between atoms: N_12  and  C_13
REMARK    3  A    between atoms: C_13  and  C_14
REMARK                            x       y       z     vdW  Elec       q    Type
REMARK                         _______ _______ _______ _____ _____    ______ ____
ROOT
ATOM      1  C   UNL     1       0.338  10.322  21.093  0.00  0.00    +0.000 A 
ATOM      2  N   UNL     1       0.816  10.559  19.889  0.00  0.00    +0.000 NA
ATOM      3  N   UNL     1       1.471   9.464  19.369  0.00  0.00    +0.000 NA
ATOM      4  C   UNL     1       1.469   8.409  20.165  0.00  0.00    +0.000 A 
ATOM      5  N   UNL     1       1.994   7.194  19.836  0.00  0.00    +0.000 N 
ATOM      6  C   UNL     1       2.021   6.045  20.744  0.00  0.00    +0.000 C 
ATOM      7  C   UNL     1       1.761   4.731  19.962  0.00  0.00    +0.000 C 
ATOM      8  N   UNL     1       2.614   4.521  18.770  0.00  0.00    +0.000 NA
ATOM      9  C   UNL     1       2.505   5.731  17.914  0.00  0.00    +0.000 C 
ATOM     10  C   UNL     1       2.812   7.067  18.623  0.00  0.00    +0.000 C 
ATOM     11  S   UNL     1       0.685   8.746  21.671  0.00  0.00    +0.000 S 
ENDROOT
BRANCH   1  13
ATOM     12  F   UNL     1       0.152  12.486  22.061  0.00  0.00    +0.000 F 
ATOM     13  C   UNL     1      -0.435  11.266  21.944  0.00  0.00    +0.000 C 
ATOM     14  F   UNL     1      -0.600  10.795  23.211  0.00  0.00    +0.000 F 
ATOM     15  F   UNL     1      -1.686  11.488  21.455  0.00  0.00    +0.000 F 
ENDBRANCH   1  13
BRANCH   8  16
ATOM     16  C   UNL     1       3.996   4.223  19.180  0.00  0.00    +0.000 C 
BRANCH  16  17
ATOM     17  C   UNL     1       5.019   4.307  18.068  0.00  0.00    +0.000 A 
ATOM     18  C   UNL     1       6.278   4.875  18.312  0.00  0.00    +0.000 A 
ATOM     19  C   UNL     1       7.240   4.930  17.303  0.00  0.00    +0.000 A 
ATOM     20  C   UNL     1       6.953   4.415  16.041  0.00  0.00    +0.000 A 
ATOM     21  C   UNL     1       5.706   3.850  15.784  0.00  0.00    +0.000 A 
ATOM     22  C   UNL     1       4.741   3.795  16.793  0.00  0.00    +0.000 A 
ENDBRANCH  16  17
ENDBRANCH   8  16
TORSDOF 3
ENDMDL
MODEL 7
REMARK VINA RESULT:      -6.7      7.138      9.140
REMARK  Name = 
REMARK  3 active torsions:
REMARK  status: ('A' for Active; 'I' for Inactive)
REMARK    1  A    between atoms: C_2  and  C_5
REMARK    2  A    between atoms: N_12  and  C_13
REMARK    3  A    between atoms: C_13  and  C_14
REMARK                            x       y       z     vdW  Elec       q    Type
REMARK                         _______ _______ _______ _____ _____    ______ ____
ROOT
ATOM      1  C   UNL     1       0.014  10.419  21.339  0.00  0.00    +0.000 A 
ATOM      2  N   UNL     1       0.480  10.754  20.153  0.00  0.00    +0.000 NA
ATOM      3  N   UNL     1       1.210   9.735  19.580  0.00  0.00    +0.000 NA
ATOM      4  C   UNL     1       1.275   8.639  20.317  0.00  0.00    +0.000 A 
ATOM      5  N   UNL     1       1.882   7.482  19.928  0.00  0.00    +0.000 N 
ATOM      6  C   UNL     1       1.981   6.289  20.771  0.00  0.00    +0.000 C 
ATOM      7  C   UNL     1       1.813   5.006  19.917  0.00  0.00    +0.000 C 
ATOM      8  N   UNL     1       2.684   4.919  18.722  0.00  0.00    +0.000 NA
ATOM      9  C   UNL     1       2.499   6.164  17.933  0.00  0.00    +0.000 C 
ATOM     10  C   UNL     1       2.712   7.476  18.716  0.00  0.00    +0.000 C 
ATOM     11  S   UNL     1       0.463   8.841  21.833  0.00  0.00    +0.000 S 
ENDROOT
BRANCH   1  13
ATOM     12  F   UNL     1      -0.231  12.435  22.575  0.00  0.00    +0.000 F 
ATOM     13  C   UNL     1      -0.825  11.263  22.233  0.00  0.00    +0.000 C 
ATOM     14  F   UNL     1      -1.125  10.627  23.400  0.00  0.00    +0.000 F 
ATOM     15  F   UNL     1      -2.016  11.588  21.659  0.00  0.00    +0.000 F 
ENDBRANCH   1  13
BRANCH   8  16
ATOM     16  C   UNL     1       4.081   4.692  19.128  0.00  0.00    +0.000 C 
BRANCH  16  17
ATOM     17  C   UNL     1       5.074   4.663  17.987  0.00  0.00    +0.000 A 
ATOM     18  C   UNL     1       4.821   3.877  16.853  0.00  0.00    +0.000 A 
ATOM     19  C   UNL     1       5.715   3.867  15.781  0.00  0.00    +0.000 A 
ATOM     20  C   UNL     1       6.870   4.644  15.832  0.00  0.00    +0.000 A 
ATOM     21  C   UNL     1       7.135   5.428  16.954  0.00  0.00    +0.000 A 
ATOM     22  C   UNL     1       6.241   5.439  18.028  0.00  0.00    +0.000 A 
ENDBRANCH  16  17
ENDBRANCH   8  16
TORSDOF 3
ENDMDL
MODEL 8
REMARK VINA RESULT:      -6.7      6.747      8.700
REMARK  Name = 
REMARK  3 active torsions:
REMARK  status: ('A' for Active; 'I' for Inactive)
REMARK    1  A    between atoms: C_2  and  C_5
REMARK    2  A    between atoms: N_12  and  C_13
REMARK    3  A    between atoms: C_13  and  C_14
REMARK                            x       y       z     vdW  Elec       q    Type
REMARK                         _______ _______ _______ _____ _____    ______ ____
ROOT
ATOM      1  C   UNL     1       0.524  10.157  20.913  0.00  0.00    +0.000 A 
ATOM      2  N   UNL     1       0.977  10.339  19.689  0.00  0.00    +0.000 NA
ATOM      3  N   UNL     1       1.612   9.217  19.204  0.00  0.00    +0.000 NA
ATOM      4  C   UNL     1       1.620   8.196  20.044  0.00  0.00    +0.000 A 
ATOM      5  N   UNL     1       2.129   6.964  19.757  0.00  0.00    +0.000 N 
ATOM      6  C   UNL     1       2.167   5.855  20.712  0.00  0.00    +0.000 C 
ATOM      7  C   UNL     1       1.880   4.511  19.994  0.00  0.00    +0.000 C 
ATOM      8  N   UNL     1       2.705   4.243  18.793  0.00  0.00    +0.000 NA
ATOM      9  C   UNL     1       2.587   5.415  17.889  0.00  0.00    +0.000 C 
ATOM     10  C   UNL     1       2.919   6.778  18.532  0.00  0.00    +0.000 C 
ATOM     11  S   UNL     1       0.872   8.605  21.551  0.00  0.00    +0.000 S 
ENDROOT
BRANCH   1  13
ATOM     12  F   UNL     1      -1.449  11.444  21.235  0.00  0.00    +0.000 F 
ATOM     13  C   UNL     1      -0.224  11.144  21.738  0.00  0.00    +0.000 C 
ATOM     14  F   UNL     1       0.446  12.324  21.853  0.00  0.00    +0.000 F 
ATOM     15  F   UNL     1      -0.429  10.698  23.008  0.00  0.00    +0.000 F 
ENDBRANCH   1  13
BRANCH   8  16
ATOM     16  C   UNL     1       4.094   3.951  19.186  0.00  0.00    +0.000 C 
BRANCH  16  17
ATOM     17  C   UNL     1       5.114   4.126  18.083  0.00  0.00    +0.000 A 
ATOM     18  C   UNL     1       4.862   3.610  16.803  0.00  0.00    +0.000 A 
ATOM     19  C   UNL     1       5.781   3.792  15.770  0.00  0.00    +0.000 A 
ATOM     20  C   UNL     1       6.961   4.494  16.005  0.00  0.00    +0.000 A 
ATOM     21  C   UNL     1       7.226   5.011  17.272  0.00  0.00    +0.000 A 
ATOM     22  C   UNL     1       6.306   4.828  18.308  0.00  0.00    +0.000 A 
ENDBRANCH  16  17
ENDBRANCH   8  16
TORSDOF 3
ENDMDL
MODEL 9
REMARK VINA RESULT:      -6.7      5.553      8.276
REMARK  Name = 
REMARK  3 active torsions:
REMARK  status: ('A' for Active; 'I' for Inactive)
REMARK    1  A    between atoms: C_2  and  C_5
REMARK    2  A    between atoms: N_12  and  C_13
REMARK    3  A    between atoms: C_13  and  C_14
REMARK                            x       y       z     vdW  Elec       q    Type
REMARK                         _______ _______ _______ _____ _____    ______ ____
ROOT
ATOM      1  C   UNL     1       1.151   9.114  19.531  0.00  0.00    +0.000 A 
ATOM      2  N   UNL     1       1.354   8.168  20.425  0.00  0.00    +0.000 NA
ATOM      3  N   UNL     1       2.221   7.202  19.964  0.00  0.00    +0.000 NA
ATOM      4  C   UNL     1       2.680   7.427  18.745  0.00  0.00    +0.000 A 
ATOM      5  N   UNL     1       3.600   6.646  18.110  0.00  0.00    +0.000 N 
ATOM      6  C   UNL     1       4.069   6.886  16.744  0.00  0.00    +0.000 C 
ATOM      7  C   UNL     1       5.582   6.566  16.626  0.00  0.00    +0.000 C 
ATOM      8  N   UNL     1       5.992   5.236  17.132  0.00  0.00    +0.000 NA
ATOM      9  C   UNL     1       5.481   5.100  18.520  0.00  0.00    +0.000 C 
ATOM     10  C   UNL     1       3.968   5.348  18.692  0.00  0.00    +0.000 C 
ATOM     11  S   UNL     1       1.993   8.861  18.060  0.00  0.00    +0.000 S 
ENDROOT
BRANCH   1  13
ATOM     12  F   UNL     1       0.932  11.477  19.394  0.00  0.00    +0.000 F 
ATOM     13  C   UNL     1       0.291  10.317  19.691  0.00  0.00    +0.000 C 
ATOM     14  F   UNL     1      -0.170  10.448  20.966  0.00  0.00    +0.000 F 
ATOM     15  F   UNL     1      -0.810  10.270  18.892  0.00  0.00    +0.000 F 
ENDBRANCH   1  13
BRANCH   8  16
ATOM     16  C   UNL     1       5.507   4.178  16.230  0.00  0.00    +0.000 C 
BRANCH  16  17
ATOM     17  C   UNL     1       6.092   4.217  14.835  0.00  0.00    +0.000 A 
ATOM     18  C   UNL     1       5.439   3.564  13.779  0.00  0.00    +0.000 A 
ATOM     19  C   UNL     1       5.953   3.621  12.483  0.00  0.00    +0.000 A 
ATOM     20  C   UNL     1       7.124   4.331  12.230  0.00  0.00    +0.000 A 
ATOM     21  C   UNL     1       7.785   4.983  13.270  0.00  0.00    +0.000 A 
ATOM     22  C   UNL     1       7.271   4.927  14.569  0.00  0.00    +0.000 A 
ENDBRANCH  16  17
ENDBRANCH   8  16
TORSDOF 3
ENDMDL
