MODEL 1
REMARK VINA RESULT:      -6.5      0.000      0.000
REMARK  Name = 
REMARK  13 active torsions:
REMARK  status: ('A' for Active; 'I' for Inactive)
REMARK    1  A    between atoms: C_1  and  O_2
REMARK    2  A    between atoms: O_2  and  C_3
REMARK    3  A    between atoms: C_6  and  C_7
REMARK    4  A    between atoms: C_7  and  N_8
REMARK    5  A    between atoms: N_8  and  C_9
REMARK    6  A    between atoms: C_10  and  C_12
REMARK    7  A    between atoms: C_12  and  C_13
REMARK    8  A    between atoms: C_13  and  C_14
REMARK    9  A    between atoms: C_14  and  C_16
REMARK   10  A    between atoms: C_21  and  O_22
REMARK   11  A    between atoms: O_22  and  C_23
REMARK   12  A    between atoms: C_24  and  O_25
REMARK   13  A    between atoms: O_25  and  C_26
REMARK                            x       y       z     vdW  Elec       q    Type
REMARK                         _______ _______ _______ _____ _____    ______ ____
ROOT
ATOM      1  C   UNL     1       1.136  10.442  19.836  0.00  0.00    +0.000 C 
ENDROOT
BRANCH   1   5
ATOM      2  C   UNL     1      -2.871  11.308  18.373  0.00  0.00    +0.000 A 
ATOM      3  C   UNL     1      -2.067  10.344  17.758  0.00  0.00    +0.000 A 
ATOM      4  C   UNL     1      -0.781  10.088  18.225  0.00  0.00    +0.000 A 
ATOM      5  C   UNL     1      -0.239  10.818  19.291  0.00  0.00    +0.000 A 
ATOM      6  C   UNL     1      -1.035  11.828  19.899  0.00  0.00    +0.000 A 
ATOM      7  C   UNL     1      -2.353  12.091  19.425  0.00  0.00    +0.000 A 
BRANCH   2   9
ATOM      8  C   UNL     1      -4.405  11.345  16.573  0.00  0.00    +0.000 C 
ATOM      9  O   UNL     1      -4.168  11.503  17.970  0.00  0.00    +0.000 OA
ENDBRANCH   2   9
BRANCH   6  10
ATOM     10  O   UNL     1      -0.427  12.444  20.972  0.00  0.00    +0.000 OA
ATOM     11  C   UNL     1      -0.668  11.939  22.281  0.00  0.00    +0.000 C 
ENDBRANCH   6  10
BRANCH   7  12
ATOM     12  O   UNL     1      -3.094  13.026  20.107  0.00  0.00    +0.000 OA
ATOM     13  C   UNL     1      -4.015  12.595  21.102  0.00  0.00    +0.000 C 
ENDBRANCH   7  12
ENDBRANCH   1   5
BRANCH   1  14
ATOM     14  N   UNL     1       1.349   8.993  20.039  0.00  0.00    +0.000 N 
ATOM     15  C   UNL     1       0.669   8.385  21.176  0.00  0.00    +0.000 C 
ATOM     16  C   UNL     1       2.017   8.238  19.068  0.00  0.00    +0.000 C 
ATOM     17  O   UNL     1       2.536   8.737  18.071  0.00  0.00    +0.000 OA
BRANCH  16  18
ATOM     18  C   UNL     1       2.082   6.736  19.329  0.00  0.00    +0.000 C 
BRANCH  18  19
ATOM     19  C   UNL     1       2.386   5.897  18.088  0.00  0.00    +0.000 C 
BRANCH  19  20
ATOM     20  C   UNL     1       1.740   4.517  18.194  0.00  0.00    +0.000 C 
ATOM     21  O   UNL     1       1.122   4.048  17.235  0.00  0.00    +0.000 OA
BRANCH  20  22
ATOM     22  C   UNL     1       1.893   3.814  19.467  0.00  0.00    +0.000 A 
ATOM     23  C   UNL     1       0.952   3.526  20.439  0.00  0.00    +0.000 A 
ATOM     24  C   UNL     1       1.509   2.830  21.554  0.00  0.00    +0.000 A 
ATOM     25  C   UNL     1       2.858   2.605  21.401  0.00  0.00    +0.000 A 
ATOM     26  S   UNL     1       3.442   3.222  19.918  0.00  0.00    +0.000 S 
ENDBRANCH  20  22
ENDBRANCH  19  20
ENDBRANCH  18  19
ENDBRANCH  16  18
ENDBRANCH   1  14
TORSDOF 9
ENDMDL
MODEL 2
REMARK VINA RESULT:      -6.4      6.036      9.537
REMARK  Name = 
REMARK  13 active torsions:
REMARK  status: ('A' for Active; 'I' for Inactive)
REMARK    1  A    between atoms: C_1  and  O_2
REMARK    2  A    between atoms: O_2  and  C_3
REMARK    3  A    between atoms: C_6  and  C_7
REMARK    4  A    between atoms: C_7  and  N_8
REMARK    5  A    between atoms: N_8  and  C_9
REMARK    6  A    between atoms: C_10  and  C_12
REMARK    7  A    between atoms: C_12  and  C_13
REMARK    8  A    between atoms: C_13  and  C_14
REMARK    9  A    between atoms: C_14  and  C_16
REMARK   10  A    between atoms: C_21  and  O_22
REMARK   11  A    between atoms: O_22  and  C_23
REMARK   12  A    between atoms: C_24  and  O_25
REMARK   13  A    between atoms: O_25  and  C_26
REMARK                            x       y       z     vdW  Elec       q    Type
REMARK                         _______ _______ _______ _____ _____    ______ ____
ROOT
ATOM      1  C   UNL     1       6.392   4.986  17.840  0.00  0.00    +0.000 C 
ENDROOT
BRANCH   1   5
ATOM      2  C   UNL     1       2.716   3.985  19.947  0.00  0.00    +0.000 A 
ATOM      3  C   UNL     1       3.732   3.042  19.774  0.00  0.00    +0.000 A 
ATOM      4  C   UNL     1       4.896   3.369  19.083  0.00  0.00    +0.000 A 
ATOM      5  C   UNL     1       5.064   4.634  18.504  0.00  0.00    +0.000 A 
ATOM      6  C   UNL     1       4.018   5.589  18.643  0.00  0.00    +0.000 A 
ATOM      7  C   UNL     1       2.827   5.259  19.350  0.00  0.00    +0.000 A 
BRANCH   2   9
ATOM      8  C   UNL     1       1.804   2.734  21.734  0.00  0.00    +0.000 C 
ATOM      9  O   UNL     1       1.606   3.693  20.699  0.00  0.00    +0.000 OA
ENDBRANCH   2   9
BRANCH   6  10
ATOM     10  O   UNL     1       4.310   6.816  18.085  0.00  0.00    +0.000 OA
ATOM     11  C   UNL     1       3.709   7.167  16.844  0.00  0.00    +0.000 C 
ENDBRANCH   6  10
BRANCH   7  12
ATOM     12  O   UNL     1       1.892   6.253  19.512  0.00  0.00    +0.000 OA
ATOM     13  C   UNL     1       2.026   7.165  20.595  0.00  0.00    +0.000 C 
ENDBRANCH   7  12
ENDBRANCH   1   5
BRANCH   1  14
ATOM     14  N   UNL     1       7.178   6.025  18.538  0.00  0.00    +0.000 N 
ATOM     15  C   UNL     1       7.656   5.696  19.875  0.00  0.00    +0.000 C 
ATOM     16  C   UNL     1       7.586   7.176  17.853  0.00  0.00    +0.000 C 
ATOM     17  O   UNL     1       7.240   7.427  16.700  0.00  0.00    +0.000 OA
BRANCH  16  18
ATOM     18  C   UNL     1       8.485   8.126  18.637  0.00  0.00    +0.000 C 
BRANCH  18  19
ATOM     19  C   UNL     1       8.470   9.567  18.128  0.00  0.00    +0.000 C 
BRANCH  19  20
ATOM     20  C   UNL     1       9.287  10.476  19.044  0.00  0.00    +0.000 C 
ATOM     21  O   UNL     1       9.236  10.327  20.268  0.00  0.00    +0.000 OA
BRANCH  20  22
ATOM     22  C   UNL     1      10.103  11.502  18.397  0.00  0.00    +0.000 A 
ATOM     23  C   UNL     1      11.464  11.528  18.153  0.00  0.00    +0.000 A 
ATOM     24  C   UNL     1      11.884  12.729  17.506  0.00  0.00    +0.000 A 
ATOM     25  C   UNL     1      10.831  13.584  17.272  0.00  0.00    +0.000 A 
ATOM     26  S   UNL     1       9.349  12.935  17.822  0.00  0.00    +0.000 S 
ENDBRANCH  20  22
ENDBRANCH  19  20
ENDBRANCH  18  19
ENDBRANCH  16  18
ENDBRANCH   1  14
TORSDOF 9
ENDMDL
MODEL 3
REMARK VINA RESULT:      -6.4      5.346      8.554
REMARK  Name = 
REMARK  13 active torsions:
REMARK  status: ('A' for Active; 'I' for Inactive)
REMARK    1  A    between atoms: C_1  and  O_2
REMARK    2  A    between atoms: O_2  and  C_3
REMARK    3  A    between atoms: C_6  and  C_7
REMARK    4  A    between atoms: C_7  and  N_8
REMARK    5  A    between atoms: N_8  and  C_9
REMARK    6  A    between atoms: C_10  and  C_12
REMARK    7  A    between atoms: C_12  and  C_13
REMARK    8  A    between atoms: C_13  and  C_14
REMARK    9  A    between atoms: C_14  and  C_16
REMARK   10  A    between atoms: C_21  and  O_22
REMARK   11  A    between atoms: O_22  and  C_23
REMARK   12  A    between atoms: C_24  and  O_25
REMARK   13  A    between atoms: O_25  and  C_26
REMARK                            x       y       z     vdW  Elec       q    Type
REMARK                         _______ _______ _______ _____ _____    ______ ____
ROOT
ATOM      1  C   UNL     1       4.533   6.644  17.495  0.00  0.00    +0.000 C 
ENDROOT
BRANCH   1   5
ATOM      2  C   UNL     1       6.124   4.049  14.383  0.00  0.00    +0.000 A 
ATOM      3  C   UNL     1       4.886   3.793  14.977  0.00  0.00    +0.000 A 
ATOM      4  C   UNL     1       4.395   4.621  15.983  0.00  0.00    +0.000 A 
ATOM      5  C   UNL     1       5.146   5.704  16.461  0.00  0.00    +0.000 A 
ATOM      6  C   UNL     1       6.425   5.950  15.888  0.00  0.00    +0.000 A 
ATOM      7  C   UNL     1       6.929   5.106  14.857  0.00  0.00    +0.000 A 
BRANCH   2   9
ATOM      8  C   UNL     1       5.699   3.220  12.209  0.00  0.00    +0.000 C 
ATOM      9  O   UNL     1       6.572   3.287  13.334  0.00  0.00    +0.000 OA
ENDBRANCH   2   9
BRANCH   6  10
ATOM     10  O   UNL     1       7.052   7.070  16.391  0.00  0.00    +0.000 OA
ATOM     11  C   UNL     1       7.738   6.975  17.634  0.00  0.00    +0.000 C 
ENDBRANCH   6  10
BRANCH   7  12
ATOM     12  O   UNL     1       8.137   5.446  14.297  0.00  0.00    +0.000 OA
ATOM     13  C   UNL     1       8.188   5.816  12.924  0.00  0.00    +0.000 C 
ENDBRANCH   7  12
ENDBRANCH   1   5
BRANCH   1  14
ATOM     14  N   UNL     1       4.114   5.993  18.754  0.00  0.00    +0.000 N 
ATOM     15  C   UNL     1       5.128   5.216  19.458  0.00  0.00    +0.000 C 
ATOM     16  C   UNL     1       2.863   6.280  19.312  0.00  0.00    +0.000 C 
ATOM     17  O   UNL     1       2.028   6.989  18.754  0.00  0.00    +0.000 OA
BRANCH  16  18
ATOM     18  C   UNL     1       2.581   5.638  20.667  0.00  0.00    +0.000 C 
BRANCH  18  19
ATOM     19  C   UNL     1       1.253   4.886  20.740  0.00  0.00    +0.000 C 
BRANCH  19  20
ATOM     20  C   UNL     1       1.486   3.377  20.785  0.00  0.00    +0.000 C 
ATOM     21  O   UNL     1       1.150   2.729  21.780  0.00  0.00    +0.000 OA
BRANCH  20  22
ATOM     22  C   UNL     1       2.116   2.773  19.613  0.00  0.00    +0.000 A 
ATOM     23  C   UNL     1       1.648   2.657  18.317  0.00  0.00    +0.000 A 
ATOM     24  C   UNL     1       2.566   1.979  17.459  0.00  0.00    +0.000 A 
ATOM     25  C   UNL     1       3.710   1.599  18.124  0.00  0.00    +0.000 A 
ATOM     26  S   UNL     1       3.676   2.067  19.767  0.00  0.00    +0.000 S 
ENDBRANCH  20  22
ENDBRANCH  19  20
ENDBRANCH  18  19
ENDBRANCH  16  18
ENDBRANCH   1  14
TORSDOF 9
ENDMDL
MODEL 4
REMARK VINA RESULT:      -6.2      1.353      1.524
REMARK  Name = 
REMARK  13 active torsions:
REMARK  status: ('A' for Active; 'I' for Inactive)
REMARK    1  A    between atoms: C_1  and  O_2
REMARK    2  A    between atoms: O_2  and  C_3
REMARK    3  A    between atoms: C_6  and  C_7
REMARK    4  A    between atoms: C_7  and  N_8
REMARK    5  A    between atoms: N_8  and  C_9
REMARK    6  A    between atoms: C_10  and  C_12
REMARK    7  A    between atoms: C_12  and  C_13
REMARK    8  A    between atoms: C_13  and  C_14
REMARK    9  A    between atoms: C_14  and  C_16
REMARK   10  A    between atoms: C_21  and  O_22
REMARK   11  A    between atoms: O_22  and  C_23
REMARK   12  A    between atoms: C_24  and  O_25
REMARK   13  A    between atoms: O_25  and  C_26
REMARK                            x       y       z     vdW  Elec       q    Type
REMARK                         _______ _______ _______ _____ _____    ______ ____
ROOT
ATOM      1  C   UNL     1       0.798  11.118  18.982  0.00  0.00    +0.000 C 
ENDROOT
BRANCH   1   5
ATOM      2  C   UNL     1      -3.523  11.615  18.798  0.00  0.00    +0.000 A 
ATOM      3  C   UNL     1      -2.857  10.731  17.944  0.00  0.00    +0.000 A 
ATOM      4  C   UNL     1      -1.473  10.594  18.001  0.00  0.00    +0.000 A 
ATOM      5  C   UNL     1      -0.704  11.367  18.881  0.00  0.00    +0.000 A 
ATOM      6  C   UNL     1      -1.368  12.298  19.727  0.00  0.00    +0.000 A 
ATOM      7  C   UNL     1      -2.785  12.440  19.673  0.00  0.00    +0.000 A 
BRANCH   2   9
ATOM      8  C   UNL     1      -5.537  11.195  17.633  0.00  0.00    +0.000 C 
ATOM      9  O   UNL     1      -4.892  11.691  18.803  0.00  0.00    +0.000 OA
ENDBRANCH   2   9
BRANCH   6  10
ATOM     10  O   UNL     1      -0.525  12.964  20.591  0.00  0.00    +0.000 OA
ATOM     11  C   UNL     1      -0.402  12.496  21.929  0.00  0.00    +0.000 C 
ENDBRANCH   6  10
BRANCH   7  12
ATOM     12  O   UNL     1      -3.368  13.301  20.571  0.00  0.00    +0.000 OA
ATOM     13  C   UNL     1      -3.923  12.781  21.774  0.00  0.00    +0.000 C 
ENDBRANCH   7  12
ENDBRANCH   1   5
BRANCH   1  14
ATOM     14  N   UNL     1       1.174   9.750  19.398  0.00  0.00    +0.000 N 
ATOM     15  C   UNL     1       0.637   9.282  20.670  0.00  0.00    +0.000 C 
ATOM     16  C   UNL     1       1.853   8.907  18.511  0.00  0.00    +0.000 C 
ATOM     17  O   UNL     1       2.251   9.277  17.407  0.00  0.00    +0.000 OA
BRANCH  16  18
ATOM     18  C   UNL     1       2.091   7.483  19.004  0.00  0.00    +0.000 C 
BRANCH  18  19
ATOM     19  C   UNL     1       2.997   6.649  18.099  0.00  0.00    +0.000 C 
BRANCH  19  20
ATOM     20  C   UNL     1       3.560   5.447  18.854  0.00  0.00    +0.000 C 
ATOM     21  O   UNL     1       4.690   5.500  19.345  0.00  0.00    +0.000 OA
BRANCH  20  22
ATOM     22  C   UNL     1       2.702   4.267  18.949  0.00  0.00    +0.000 A 
ATOM     23  C   UNL     1       1.627   3.889  18.165  0.00  0.00    +0.000 A 
ATOM     24  C   UNL     1       1.035   2.664  18.598  0.00  0.00    +0.000 A 
ATOM     25  C   UNL     1       1.677   2.140  19.696  0.00  0.00    +0.000 A 
ATOM     26  S   UNL     1       2.988   3.117  20.194  0.00  0.00    +0.000 S 
ENDBRANCH  20  22
ENDBRANCH  19  20
ENDBRANCH  18  19
ENDBRANCH  16  18
ENDBRANCH   1  14
TORSDOF 9
ENDMDL
MODEL 5
REMARK VINA RESULT:      -6.1      3.139      5.048
REMARK  Name = 
REMARK  13 active torsions:
REMARK  status: ('A' for Active; 'I' for Inactive)
REMARK    1  A    between atoms: C_1  and  O_2
REMARK    2  A    between atoms: O_2  and  C_3
REMARK    3  A    between atoms: C_6  and  C_7
REMARK    4  A    between atoms: C_7  and  N_8
REMARK    5  A    between atoms: N_8  and  C_9
REMARK    6  A    between atoms: C_10  and  C_12
REMARK    7  A    between atoms: C_12  and  C_13
REMARK    8  A    between atoms: C_13  and  C_14
REMARK    9  A    between atoms: C_14  and  C_16
REMARK   10  A    between atoms: C_21  and  O_22
REMARK   11  A    between atoms: O_22  and  C_23
REMARK   12  A    between atoms: C_24  and  O_25
REMARK   13  A    between atoms: O_25  and  C_26
REMARK                            x       y       z     vdW  Elec       q    Type
REMARK                         _______ _______ _______ _____ _____    ______ ____
ROOT
ATOM      1  C   UNL     1       2.047   5.930  20.411  0.00  0.00    +0.000 C 
ENDROOT
BRANCH   1   5
ATOM      2  C   UNL     1       1.850   9.691  18.229  0.00  0.00    +0.000 A 
ATOM      3  C   UNL     1       2.553   8.595  17.722  0.00  0.00    +0.000 A 
ATOM      4  C   UNL     1       2.623   7.403  18.437  0.00  0.00    +0.000 A 
ATOM      5  C   UNL     1       2.032   7.281  19.702  0.00  0.00    +0.000 A 
ATOM      6  C   UNL     1       1.347   8.404  20.243  0.00  0.00    +0.000 A 
ATOM      7  C   UNL     1       1.272   9.625  19.513  0.00  0.00    +0.000 A 
BRANCH   2   9
ATOM      8  C   UNL     1       2.544  11.925  17.880  0.00  0.00    +0.000 C 
ATOM      9  O   UNL     1       1.709  10.838  17.490  0.00  0.00    +0.000 OA
ENDBRANCH   2   9
BRANCH   6  10
ATOM     10  O   UNL     1       0.755   8.159  21.465  0.00  0.00    +0.000 OA
ATOM     11  C   UNL     1       1.036   9.033  22.552  0.00  0.00    +0.000 C 
ENDBRANCH   6  10
BRANCH   7  12
ATOM     12  O   UNL     1       0.530  10.644  20.061  0.00  0.00    +0.000 OA
ATOM     13  C   UNL     1      -0.847  10.761  19.725  0.00  0.00    +0.000 C 
ENDBRANCH   7  12
ENDBRANCH   1   5
BRANCH   1  14
ATOM     14  N   UNL     1       2.467   4.791  19.567  0.00  0.00    +0.000 N 
ATOM     15  C   UNL     1       1.412   4.083  18.852  0.00  0.00    +0.000 C 
ATOM     16  C   UNL     1       3.826   4.548  19.339  0.00  0.00    +0.000 C 
ATOM     17  O   UNL     1       4.722   5.187  19.890  0.00  0.00    +0.000 OA
BRANCH  16  18
ATOM     18  C   UNL     1       4.141   3.417  18.366  0.00  0.00    +0.000 C 
BRANCH  18  19
ATOM     19  C   UNL     1       4.077   3.821  16.893  0.00  0.00    +0.000 C 
BRANCH  19  20
ATOM     20  C   UNL     1       5.475   4.114  16.350  0.00  0.00    +0.000 C 
ATOM     21  O   UNL     1       5.964   3.389  15.480  0.00  0.00    +0.000 OA
BRANCH  20  22
ATOM     22  C   UNL     1       6.171   5.269  16.912  0.00  0.00    +0.000 A 
ATOM     23  C   UNL     1       5.907   6.619  16.770  0.00  0.00    +0.000 A 
ATOM     24  C   UNL     1       6.840   7.439  17.473  0.00  0.00    +0.000 A 
ATOM     25  C   UNL     1       7.788   6.693  18.136  0.00  0.00    +0.000 A 
ATOM     26  S   UNL     1       7.544   5.016  17.915  0.00  0.00    +0.000 S 
ENDBRANCH  20  22
ENDBRANCH  19  20
ENDBRANCH  18  19
ENDBRANCH  16  18
ENDBRANCH   1  14
TORSDOF 9
ENDMDL
MODEL 6
REMARK VINA RESULT:      -6.1      2.058      2.710
REMARK  Name = 
REMARK  13 active torsions:
REMARK  status: ('A' for Active; 'I' for Inactive)
REMARK    1  A    between atoms: C_1  and  O_2
REMARK    2  A    between atoms: O_2  and  C_3
REMARK    3  A    between atoms: C_6  and  C_7
REMARK    4  A    between atoms: C_7  and  N_8
REMARK    5  A    between atoms: N_8  and  C_9
REMARK    6  A    between atoms: C_10  and  C_12
REMARK    7  A    between atoms: C_12  and  C_13
REMARK    8  A    between atoms: C_13  and  C_14
REMARK    9  A    between atoms: C_14  and  C_16
REMARK   10  A    between atoms: C_21  and  O_22
REMARK   11  A    between atoms: O_22  and  C_23
REMARK   12  A    between atoms: C_24  and  O_25
REMARK   13  A    between atoms: O_25  and  C_26
REMARK                            x       y       z     vdW  Elec       q    Type
REMARK                         _______ _______ _______ _____ _____    ______ ____
ROOT
ATOM      1  C   UNL     1       1.466  10.150  18.737  0.00  0.00    +0.000 C 
ENDROOT
BRANCH   1   5
ATOM      2  C   UNL     1      -2.713  11.315  18.375  0.00  0.00    +0.000 A 
ATOM      3  C   UNL     1      -2.162  10.325  17.556  0.00  0.00    +0.000 A 
ATOM      4  C   UNL     1      -0.820   9.973  17.670  0.00  0.00    +0.000 A 
ATOM      5  C   UNL     1       0.027  10.630  18.573  0.00  0.00    +0.000 A 
ATOM      6  C   UNL     1      -0.515  11.665  19.384  0.00  0.00    +0.000 A 
ATOM      7  C   UNL     1      -1.889  12.026  19.272  0.00  0.00    +0.000 A 
BRANCH   2   9
ATOM      8  C   UNL     1      -4.672  11.414  17.055  0.00  0.00    +0.000 C 
ATOM      9  O   UNL     1      -4.053  11.604  18.324  0.00  0.00    +0.000 OA
ENDBRANCH   2   9
BRANCH   6  10
ATOM     10  O   UNL     1       0.389  12.205  20.275  0.00  0.00    +0.000 OA
ATOM     11  C   UNL     1       0.880  13.520  20.043  0.00  0.00    +0.000 C 
ENDBRANCH   6  10
BRANCH   7  12
ATOM     12  O   UNL     1      -2.364  12.981  20.138  0.00  0.00    +0.000 OA
ATOM     13  C   UNL     1      -2.786  12.592  21.440  0.00  0.00    +0.000 C 
ENDBRANCH   7  12
ENDBRANCH   1   5
BRANCH   1  14
ATOM     14  N   UNL     1       1.611   8.840  19.407  0.00  0.00    +0.000 N 
ATOM     15  C   UNL     1       0.889   8.663  20.661  0.00  0.00    +0.000 C 
ATOM     16  C   UNL     1       2.259   7.785  18.754  0.00  0.00    +0.000 C 
ATOM     17  O   UNL     1       2.814   7.912  17.664  0.00  0.00    +0.000 OA
BRANCH  16  18
ATOM     18  C   UNL     1       2.254   6.450  19.492  0.00  0.00    +0.000 C 
BRANCH  18  19
ATOM     19  C   UNL     1       3.607   5.741  19.515  0.00  0.00    +0.000 C 
BRANCH  19  20
ATOM     20  C   UNL     1       3.633   4.588  18.511  0.00  0.00    +0.000 C 
ATOM     21  O   UNL     1       2.706   3.775  18.480  0.00  0.00    +0.000 OA
BRANCH  20  22
ATOM     22  C   UNL     1       4.792   4.514  17.624  0.00  0.00    +0.000 A 
ATOM     23  C   UNL     1       4.872   4.115  16.302  0.00  0.00    +0.000 A 
ATOM     24  C   UNL     1       6.204   4.170  15.791  0.00  0.00    +0.000 A 
ATOM     25  C   UNL     1       7.102   4.612  16.735  0.00  0.00    +0.000 A 
ATOM     26  S   UNL     1       6.339   4.965  18.223  0.00  0.00    +0.000 S 
ENDBRANCH  20  22
ENDBRANCH  19  20
ENDBRANCH  18  19
ENDBRANCH  16  18
ENDBRANCH   1  14
TORSDOF 9
ENDMDL
MODEL 7
REMARK VINA RESULT:      -6.0      1.149      1.297
REMARK  Name = 
REMARK  13 active torsions:
REMARK  status: ('A' for Active; 'I' for Inactive)
REMARK    1  A    between atoms: C_1  and  O_2
REMARK    2  A    between atoms: O_2  and  C_3
REMARK    3  A    between atoms: C_6  and  C_7
REMARK    4  A    between atoms: C_7  and  N_8
REMARK    5  A    between atoms: N_8  and  C_9
REMARK    6  A    between atoms: C_10  and  C_12
REMARK    7  A    between atoms: C_12  and  C_13
REMARK    8  A    between atoms: C_13  and  C_14
REMARK    9  A    between atoms: C_14  and  C_16
REMARK   10  A    between atoms: C_21  and  O_22
REMARK   11  A    between atoms: O_22  and  C_23
REMARK   12  A    between atoms: C_24  and  O_25
REMARK   13  A    between atoms: O_25  and  C_26
REMARK                            x       y       z     vdW  Elec       q    Type
REMARK                         _______ _______ _______ _____ _____    ______ ____
ROOT
ATOM      1  C   UNL     1       1.075  10.470  19.846  0.00  0.00    +0.000 C 
ENDROOT
BRANCH   1   5
ATOM      2  C   UNL     1      -2.939  11.525  18.534  0.00  0.00    +0.000 A 
ATOM      3  C   UNL     1      -2.184  10.564  17.856  0.00  0.00    +0.000 A 
ATOM      4  C   UNL     1      -0.895  10.248  18.276  0.00  0.00    +0.000 A 
ATOM      5  C   UNL     1      -0.301  10.912  19.357  0.00  0.00    +0.000 A 
ATOM      6  C   UNL     1      -1.048  11.919  20.029  0.00  0.00    +0.000 A 
ATOM      7  C   UNL     1      -2.368  12.244  19.604  0.00  0.00    +0.000 A 
BRANCH   2   9
ATOM      8  C   UNL     1      -4.620  11.311  16.884  0.00  0.00    +0.000 C 
ATOM      9  O   UNL     1      -4.239  11.778  18.176  0.00  0.00    +0.000 OA
ENDBRANCH   2   9
BRANCH   6  10
ATOM     10  O   UNL     1      -0.392  12.469  21.111  0.00  0.00    +0.000 OA
ATOM     11  C   UNL     1      -0.657  11.952  22.410  0.00  0.00    +0.000 C 
ENDBRANCH   6  10
BRANCH   7  12
ATOM     12  O   UNL     1      -3.060  13.172  20.346  0.00  0.00    +0.000 OA
ATOM     13  C   UNL     1      -3.990  12.726  21.326  0.00  0.00    +0.000 C 
ENDBRANCH   7  12
ENDBRANCH   1   5
BRANCH   1  14
ATOM     14  N   UNL     1       1.415   9.062  19.552  0.00  0.00    +0.000 N 
ATOM     15  C   UNL     1       1.016   8.071  20.544  0.00  0.00    +0.000 C 
ATOM     16  C   UNL     1       1.923   8.709  18.297  0.00  0.00    +0.000 C 
ATOM     17  O   UNL     1       2.200   9.536  17.429  0.00  0.00    +0.000 OA
BRANCH  16  18
ATOM     18  C   UNL     1       2.134   7.216  18.065  0.00  0.00    +0.000 C 
BRANCH  18  19
ATOM     19  C   UNL     1       3.598   6.777  18.092  0.00  0.00    +0.000 C 
BRANCH  19  20
ATOM     20  C   UNL     1       3.707   5.258  18.209  0.00  0.00    +0.000 C 
ATOM     21  O   UNL     1       4.584   4.652  17.588  0.00  0.00    +0.000 OA
BRANCH  20  22
ATOM     22  C   UNL     1       2.734   4.592  19.073  0.00  0.00    +0.000 A 
ATOM     23  C   UNL     1       2.562   4.678  20.443  0.00  0.00    +0.000 A 
ATOM     24  C   UNL     1       1.499   3.849  20.916  0.00  0.00    +0.000 A 
ATOM     25  C   UNL     1       0.889   3.158  19.894  0.00  0.00    +0.000 A 
ATOM     26  S   UNL     1       1.590   3.516  18.377  0.00  0.00    +0.000 S 
ENDBRANCH  20  22
ENDBRANCH  19  20
ENDBRANCH  18  19
ENDBRANCH  16  18
ENDBRANCH   1  14
TORSDOF 9
ENDMDL
MODEL 8
REMARK VINA RESULT:      -6.0      3.610      8.790
REMARK  Name = 
REMARK  13 active torsions:
REMARK  status: ('A' for Active; 'I' for Inactive)
REMARK    1  A    between atoms: C_1  and  O_2
REMARK    2  A    between atoms: O_2  and  C_3
REMARK    3  A    between atoms: C_6  and  C_7
REMARK    4  A    between atoms: C_7  and  N_8
REMARK    5  A    between atoms: N_8  and  C_9
REMARK    6  A    between atoms: C_10  and  C_12
REMARK    7  A    between atoms: C_12  and  C_13
REMARK    8  A    between atoms: C_13  and  C_14
REMARK    9  A    between atoms: C_14  and  C_16
REMARK   10  A    between atoms: C_21  and  O_22
REMARK   11  A    between atoms: O_22  and  C_23
REMARK   12  A    between atoms: C_24  and  O_25
REMARK   13  A    between atoms: O_25  and  C_26
REMARK                            x       y       z     vdW  Elec       q    Type
REMARK                         _______ _______ _______ _____ _____    ______ ____
ROOT
ATOM      1  C   UNL     1       2.432   5.360  18.539  0.00  0.00    +0.000 C 
ENDROOT
BRANCH   1   5
ATOM      2  C   UNL     1       6.419   6.574  17.283  0.00  0.00    +0.000 A 
ATOM      3  C   UNL     1       5.277   7.180  16.754  0.00  0.00    +0.000 A 
ATOM      4  C   UNL     1       4.006   6.771  17.151  0.00  0.00    +0.000 A 
ATOM      5  C   UNL     1       3.835   5.714  18.054  0.00  0.00    +0.000 A 
ATOM      6  C   UNL     1       4.992   5.065  18.569  0.00  0.00    +0.000 A 
ATOM      7  C   UNL     1       6.293   5.482  18.167  0.00  0.00    +0.000 A 
BRANCH   2   9
ATOM      8  C   UNL     1       8.066   8.243  17.597  0.00  0.00    +0.000 C 
ATOM      9  O   UNL     1       7.672   7.031  16.959  0.00  0.00    +0.000 OA
ENDBRANCH   2   9
BRANCH   6  10
ATOM     10  O   UNL     1       4.711   4.079  19.491  0.00  0.00    +0.000 OA
ATOM     11  C   UNL     1       4.450   2.759  19.027  0.00  0.00    +0.000 C 
ENDBRANCH   6  10
BRANCH   7  12
ATOM     12  O   UNL     1       7.367   4.864  18.762  0.00  0.00    +0.000 OA
ATOM     13  C   UNL     1       7.981   5.470  19.893  0.00  0.00    +0.000 C 
ENDBRANCH   7  12
ENDBRANCH   1   5
BRANCH   1  14
ATOM     14  N   UNL     1       2.046   5.975  19.826  0.00  0.00    +0.000 N 
ATOM     15  C   UNL     1       2.092   5.114  21.002  0.00  0.00    +0.000 C 
ATOM     16  C   UNL     1       1.836   7.356  19.911  0.00  0.00    +0.000 C 
ATOM     17  O   UNL     1       1.862   8.099  18.931  0.00  0.00    +0.000 OA
BRANCH  16  18
ATOM     18  C   UNL     1       1.552   7.896  21.309  0.00  0.00    +0.000 C 
BRANCH  18  19
ATOM     19  C   UNL     1       0.134   8.434  21.497  0.00  0.00    +0.000 C 
BRANCH  19  20
ATOM     20  C   UNL     1       0.162   9.849  22.072  0.00  0.00    +0.000 C 
ATOM     21  O   UNL     1       0.363  10.024  23.277  0.00  0.00    +0.000 OA
BRANCH  20  22
ATOM     22  C   UNL     1      -0.061  10.947  21.132  0.00  0.00    +0.000 A 
ATOM     23  C   UNL     1       0.149  12.304  21.289  0.00  0.00    +0.000 A 
ATOM     24  C   UNL     1      -0.213  13.055  20.130  0.00  0.00    +0.000 A 
ATOM     25  C   UNL     1      -0.687  12.248  19.120  0.00  0.00    +0.000 A 
ATOM     26  S   UNL     1      -0.684  10.599  19.568  0.00  0.00    +0.000 S 
ENDBRANCH  20  22
ENDBRANCH  19  20
ENDBRANCH  18  19
ENDBRANCH  16  18
ENDBRANCH   1  14
TORSDOF 9
ENDMDL
MODEL 9
REMARK VINA RESULT:      -6.0      1.780      2.204
REMARK  Name = 
REMARK  13 active torsions:
REMARK  status: ('A' for Active; 'I' for Inactive)
REMARK    1  A    between atoms: C_1  and  O_2
REMARK    2  A    between atoms: O_2  and  C_3
REMARK    3  A    between atoms: C_6  and  C_7
REMARK    4  A    between atoms: C_7  and  N_8
REMARK    5  A    between atoms: N_8  and  C_9
REMARK    6  A    between atoms: C_10  and  C_12
REMARK    7  A    between atoms: C_12  and  C_13
REMARK    8  A    between atoms: C_13  and  C_14
REMARK    9  A    between atoms: C_14  and  C_16
REMARK   10  A    between atoms: C_21  and  O_22
REMARK   11  A    between atoms: O_22  and  C_23
REMARK   12  A    between atoms: C_24  and  O_25
REMARK   13  A    between atoms: O_25  and  C_26
REMARK                            x       y       z     vdW  Elec       q    Type
REMARK                         _______ _______ _______ _____ _____    ______ ____
ROOT
ATOM      1  C   UNL     1       1.438  10.085  19.350  0.00  0.00    +0.000 C 
ENDROOT
BRANCH   1   5
ATOM      2  C   UNL     1      -2.703  10.980  18.351  0.00  0.00    +0.000 A 
ATOM      3  C   UNL     1      -1.913  10.180  17.521  0.00  0.00    +0.000 A 
ATOM      4  C   UNL     1      -0.585   9.915  17.842  0.00  0.00    +0.000 A 
ATOM      5  C   UNL     1       0.011  10.477  18.979  0.00  0.00    +0.000 A 
ATOM      6  C   UNL     1      -0.774  11.323  19.811  0.00  0.00    +0.000 A 
ATOM      7  C   UNL     1      -2.135  11.595  19.486  0.00  0.00    +0.000 A 
BRANCH   2   9
ATOM      8  C   UNL     1      -4.341  11.527  16.736  0.00  0.00    +0.000 C 
ATOM      9  O   UNL     1      -4.035  11.173  18.082  0.00  0.00    +0.000 OA
ENDBRANCH   2   9
BRANCH   6  10
ATOM     10  O   UNL     1      -0.108  11.775  20.930  0.00  0.00    +0.000 OA
ATOM     11  C   UNL     1      -0.313  11.105  22.169  0.00  0.00    +0.000 C 
ENDBRANCH   6  10
BRANCH   7  12
ATOM     12  O   UNL     1      -2.856  12.358  20.373  0.00  0.00    +0.000 OA
ATOM     13  C   UNL     1      -2.542  13.737  20.520  0.00  0.00    +0.000 C 
ENDBRANCH   7  12
ENDBRANCH   1   5
BRANCH   1  14
ATOM     14  N   UNL     1       1.751   8.650  19.184  0.00  0.00    +0.000 N 
ATOM     15  C   UNL     1       2.289   8.243  17.891  0.00  0.00    +0.000 C 
ATOM     16  C   UNL     1       1.700   7.787  20.285  0.00  0.00    +0.000 C 
ATOM     17  O   UNL     1       1.310   8.141  21.396  0.00  0.00    +0.000 OA
BRANCH  16  18
ATOM     18  C   UNL     1       2.149   6.353  20.021  0.00  0.00    +0.000 C 
BRANCH  18  19
ATOM     19  C   UNL     1       1.251   5.289  20.652  0.00  0.00    +0.000 C 
BRANCH  19  20
ATOM     20  C   UNL     1       2.044   4.018  20.951  0.00  0.00    +0.000 C 
ATOM     21  O   UNL     1       2.310   3.715  22.116  0.00  0.00    +0.000 OA
BRANCH  20  22
ATOM     22  C   UNL     1       2.456   3.213  19.802  0.00  0.00    +0.000 A 
ATOM     23  C   UNL     1       3.667   2.599  19.539  0.00  0.00    +0.000 A 
ATOM     24  C   UNL     1       3.676   1.913  18.287  0.00  0.00    +0.000 A 
ATOM     25  C   UNL     1       2.471   2.020  17.631  0.00  0.00    +0.000 A 
ATOM     26  S   UNL     1       1.338   2.935  18.527  0.00  0.00    +0.000 S 
ENDBRANCH  20  22
ENDBRANCH  19  20
ENDBRANCH  18  19
ENDBRANCH  16  18
ENDBRANCH   1  14
TORSDOF 9
ENDMDL
