MODEL 1
REMARK VINA RESULT:      -9.5      0.000      0.000
REMARK  Name = 
REMARK  5 active torsions:
REMARK  status: ('A' for Active; 'I' for Inactive)
REMARK    1  A    between atoms: C_7  and  C_8
REMARK    2  A    between atoms: C_8  and  N_9
REMARK    3  A    between atoms: N_12  and  C_13
REMARK    4  A    between atoms: C_22  and  N_23
REMARK    5  A    between atoms: N_23  and  C_24
REMARK                            x       y       z     vdW  Elec       q    Type
REMARK                         _______ _______ _______ _____ _____    ______ ____
ROOT
ATOM      1  C   UNL     1       2.527   6.706  19.092  0.00  0.00    +0.000 A 
ATOM      2  N   UNL     1       1.838   5.830  19.871  0.00  0.00    +0.000 NA
ATOM      3  C   UNL     1       1.895   4.523  19.586  0.00  0.00    +0.000 A 
ATOM      4  C   UNL     1       1.114   3.638  20.329  0.00  0.00    +0.000 A 
ATOM      5  C   UNL     1       1.028   2.288  19.983  0.00  0.00    +0.000 A 
ATOM      6  C   UNL     1       1.742   1.822  18.887  0.00  0.00    +0.000 A 
ATOM      7  C   UNL     1       2.574   2.696  18.178  0.00  0.00    +0.000 A 
ATOM      8  C   UNL     1       2.669   4.042  18.524  0.00  0.00    +0.000 A 
ATOM      9  N   UNL     1       3.467   4.860  17.818  0.00  0.00    +0.000 NA
ATOM     10  C   UNL     1       3.390   6.189  18.068  0.00  0.00    +0.000 A 
ENDROOT
BRANCH   1  14
ATOM     11  N   UNL     1       0.628  10.485  19.206  0.00  0.00    +0.000 NA
ATOM     12  C   UNL     1       1.094   9.967  20.485  0.00  0.00    +0.000 C 
ATOM     13  C   UNL     1       1.306   8.427  20.392  0.00  0.00    +0.000 C 
ATOM     14  N   UNL     1       2.228   8.086  19.281  0.00  0.00    +0.000 N 
ATOM     15  C   UNL     1       1.833   8.734  17.994  0.00  0.00    +0.000 C 
ATOM     16  C   UNL     1       1.600  10.255  18.148  0.00  0.00    +0.000 C 
BRANCH  11  17
ATOM     17  C   UNL     1      -0.237  11.641  19.150  0.00  0.00    +0.000 C 
BRANCH  17  24
ATOM     18 CL   UNL     1      -3.079   9.628  15.273  0.00  0.00    +0.000 Cl
ATOM     19  C   UNL     1      -2.964  10.531  16.733  0.00  0.00    +0.000 A 
ATOM     20  C   UNL     1      -4.126  10.938  17.381  0.00  0.00    +0.000 A 
ATOM     21  C   UNL     1      -4.029  11.664  18.567  0.00  0.00    +0.000 A 
ATOM     22  C   UNL     1      -2.774  11.966  19.111  0.00  0.00    +0.000 A 
ATOM     23 CL   UNL     1      -2.769  12.861  20.590  0.00  0.00    +0.000 Cl
ATOM     24  C   UNL     1      -1.589  11.525  18.487  0.00  0.00    +0.000 A 
ATOM     25  C   UNL     1      -1.707  10.820  17.274  0.00  0.00    +0.000 A 
ENDBRANCH  17  24
ENDBRANCH  11  17
ENDBRANCH   1  14
BRANCH  10  26
ATOM     26  N   UNL     1       4.123   7.034  17.229  0.00  0.00    +0.000 N 
ATOM     27  H   UNL     1       3.552   7.212  16.403  0.00  0.00    +0.000 HD
BRANCH  26  28
ATOM     28  C   UNL     1       5.535   6.744  16.912  0.00  0.00    +0.000 C 
ATOM     29  C   UNL     1       5.513   5.930  15.604  0.00  0.00    +0.000 C 
ATOM     30  C   UNL     1       6.724   5.043  15.409  0.00  0.00    +0.000 C 
ATOM     31  O   UNL     1       6.943   4.260  16.576  0.00  0.00    +0.000 OA
ATOM     32  C   UNL     1       7.360   5.081  17.659  0.00  0.00    +0.000 C 
ATOM     33  C   UNL     1       6.271   6.058  18.074  0.00  0.00    +0.000 C 
ENDBRANCH  26  28
ENDBRANCH  10  26
TORSDOF 5
ENDMDL
MODEL 2
REMARK VINA RESULT:      -9.2      0.644      1.775
REMARK  Name = 
REMARK  5 active torsions:
REMARK  status: ('A' for Active; 'I' for Inactive)
REMARK    1  A    between atoms: C_7  and  C_8
REMARK    2  A    between atoms: C_8  and  N_9
REMARK    3  A    between atoms: N_12  and  C_13
REMARK    4  A    between atoms: C_22  and  N_23
REMARK    5  A    between atoms: N_23  and  C_24
REMARK                            x       y       z     vdW  Elec       q    Type
REMARK                         _______ _______ _______ _____ _____    ______ ____
ROOT
ATOM      1  C   UNL     1       2.532   6.750  19.060  0.00  0.00    +0.000 A 
ATOM      2  N   UNL     1       1.851   5.907  19.880  0.00  0.00    +0.000 NA
ATOM      3  C   UNL     1       1.925   4.588  19.664  0.00  0.00    +0.000 A 
ATOM      4  C   UNL     1       1.151   3.733  20.450  0.00  0.00    +0.000 A 
ATOM      5  C   UNL     1       1.083   2.365  20.174  0.00  0.00    +0.000 A 
ATOM      6  C   UNL     1       1.808   1.852  19.107  0.00  0.00    +0.000 A 
ATOM      7  C   UNL     1       2.632   2.698  18.356  0.00  0.00    +0.000 A 
ATOM      8  C   UNL     1       2.710   4.061  18.632  0.00  0.00    +0.000 A 
ATOM      9  N   UNL     1       3.500   4.851  17.887  0.00  0.00    +0.000 NA
ATOM     10  C   UNL     1       3.406   6.191  18.067  0.00  0.00    +0.000 A 
ENDROOT
BRANCH   1  14
ATOM     11  N   UNL     1       0.617  10.518  18.897  0.00  0.00    +0.000 NA
ATOM     12  C   UNL     1       0.993  10.051  20.225  0.00  0.00    +0.000 C 
ATOM     13  C   UNL     1       1.217   8.510  20.205  0.00  0.00    +0.000 C 
ATOM     14  N   UNL     1       2.216   8.134  19.175  0.00  0.00    +0.000 N 
ATOM     15  C   UNL     1       1.910   8.731  17.840  0.00  0.00    +0.000 C 
ATOM     16  C   UNL     1       1.661  10.255  17.920  0.00  0.00    +0.000 C 
BRANCH  11  17
ATOM     17  C   UNL     1      -0.247  11.666  18.738  0.00  0.00    +0.000 C 
BRANCH  17  24
ATOM     18 CL   UNL     1      -4.808  13.258  20.691  0.00  0.00    +0.000 Cl
ATOM     19  C   UNL     1      -3.904  12.256  19.624  0.00  0.00    +0.000 A 
ATOM     20  C   UNL     1      -4.572  11.471  18.690  0.00  0.00    +0.000 A 
ATOM     21  C   UNL     1      -3.835  10.664  17.823  0.00  0.00    +0.000 A 
ATOM     22  C   UNL     1      -2.436  10.659  17.879  0.00  0.00    +0.000 A 
ATOM     23 CL   UNL     1      -1.622   9.632  16.751  0.00  0.00    +0.000 Cl
ATOM     24  C   UNL     1      -1.745  11.481  18.792  0.00  0.00    +0.000 A 
ATOM     25  C   UNL     1      -2.507  12.264  19.680  0.00  0.00    +0.000 A 
ENDBRANCH  17  24
ENDBRANCH  11  17
ENDBRANCH   1  14
BRANCH  10  26
ATOM     26  N   UNL     1       4.133   6.999  17.188  0.00  0.00    +0.000 N 
ATOM     27  H   UNL     1       3.573   7.108  16.343  0.00  0.00    +0.000 HD
BRANCH  26  28
ATOM     28  C   UNL     1       5.558   6.730  16.916  0.00  0.00    +0.000 C 
ATOM     29  C   UNL     1       5.583   5.841  15.657  0.00  0.00    +0.000 C 
ATOM     30  C   UNL     1       6.820   4.977  15.536  0.00  0.00    +0.000 C 
ATOM     31  O   UNL     1       7.034   4.268  16.750  0.00  0.00    +0.000 OA
ATOM     32  C   UNL     1       7.408   5.160  17.792  0.00  0.00    +0.000 C 
ATOM     33  C   UNL     1       6.287   6.130  18.129  0.00  0.00    +0.000 C 
ENDBRANCH  26  28
ENDBRANCH  10  26
TORSDOF 5
ENDMDL
MODEL 3
REMARK VINA RESULT:      -9.1      1.957      4.721
REMARK  Name = 
REMARK  5 active torsions:
REMARK  status: ('A' for Active; 'I' for Inactive)
REMARK    1  A    between atoms: C_7  and  C_8
REMARK    2  A    between atoms: C_8  and  N_9
REMARK    3  A    between atoms: N_12  and  C_13
REMARK    4  A    between atoms: C_22  and  N_23
REMARK    5  A    between atoms: N_23  and  C_24
REMARK                            x       y       z     vdW  Elec       q    Type
REMARK                         _______ _______ _______ _____ _____    ______ ____
ROOT
ATOM      1  C   UNL     1       2.961   7.003  18.625  0.00  0.00    +0.000 A 
ATOM      2  N   UNL     1       3.806   7.149  17.571  0.00  0.00    +0.000 NA
ATOM      3  C   UNL     1       4.912   6.397  17.515  0.00  0.00    +0.000 A 
ATOM      4  C   UNL     1       5.823   6.614  16.481  0.00  0.00    +0.000 A 
ATOM      5  C   UNL     1       7.055   5.957  16.456  0.00  0.00    +0.000 A 
ATOM      6  C   UNL     1       7.369   5.066  17.474  0.00  0.00    +0.000 A 
ATOM      7  C   UNL     1       6.432   4.801  18.479  0.00  0.00    +0.000 A 
ATOM      8  C   UNL     1       5.198   5.447  18.504  0.00  0.00    +0.000 A 
ATOM      9  N   UNL     1       4.323   5.182  19.487  0.00  0.00    +0.000 NA
ATOM     10  C   UNL     1       3.218   5.962  19.579  0.00  0.00    +0.000 A 
ENDROOT
BRANCH   1  14
ATOM     11  N   UNL     1       0.814  10.537  19.521  0.00  0.00    +0.000 NA
ATOM     12  C   UNL     1       0.854  10.155  18.116  0.00  0.00    +0.000 C 
ATOM     13  C   UNL     1       2.037   9.173  17.864  0.00  0.00    +0.000 C 
ATOM     14  N   UNL     1       1.948   7.996  18.762  0.00  0.00    +0.000 N 
ATOM     15  C   UNL     1       1.762   8.384  20.193  0.00  0.00    +0.000 C 
ATOM     16  C   UNL     1       0.601   9.386  20.385  0.00  0.00    +0.000 C 
BRANCH  11  17
ATOM     17  C   UNL     1       0.321  11.836  19.918  0.00  0.00    +0.000 C 
BRANCH  17  24
ATOM     18 CL   UNL     1      -3.080  12.706  23.769  0.00  0.00    +0.000 Cl
ATOM     19  C   UNL     1      -2.735  12.474  22.099  0.00  0.00    +0.000 A 
ATOM     20  C   UNL     1      -3.746  12.649  21.160  0.00  0.00    +0.000 A 
ATOM     21  C   UNL     1      -3.462  12.465  19.807  0.00  0.00    +0.000 A 
ATOM     22  C   UNL     1      -2.166  12.126  19.396  0.00  0.00    +0.000 A 
ATOM     23 CL   UNL     1      -1.922  11.934  17.696  0.00  0.00    +0.000 Cl
ATOM     24  C   UNL     1      -1.123  11.986  20.334  0.00  0.00    +0.000 A 
ATOM     25  C   UNL     1      -1.437  12.145  21.697  0.00  0.00    +0.000 A 
ENDBRANCH  17  24
ENDBRANCH  11  17
ENDBRANCH   1  14
BRANCH  10  26
ATOM     26  N   UNL     1       2.393   5.760  20.688  0.00  0.00    +0.000 N 
ATOM     27  H   UNL     1       2.973   5.856  21.521  0.00  0.00    +0.000 HD
BRANCH  26  28
ATOM     28  C   UNL     1       1.474   4.607  20.747  0.00  0.00    +0.000 C 
ATOM     29  C   UNL     1       2.149   3.580  21.677  0.00  0.00    +0.000 C 
ATOM     30  C   UNL     1       1.721   2.149  21.430  0.00  0.00    +0.000 C 
ATOM     31  O   UNL     1       1.837   1.842  20.046  0.00  0.00    +0.000 OA
ATOM     32  C   UNL     1       0.874   2.564  19.290  0.00  0.00    +0.000 C 
ATOM     33  C   UNL     1       1.120   4.064  19.353  0.00  0.00    +0.000 C 
ENDBRANCH  26  28
ENDBRANCH  10  26
TORSDOF 5
ENDMDL
MODEL 4
REMARK VINA RESULT:      -9.0      1.574      3.954
REMARK  Name = 
REMARK  5 active torsions:
REMARK  status: ('A' for Active; 'I' for Inactive)
REMARK    1  A    between atoms: C_7  and  C_8
REMARK    2  A    between atoms: C_8  and  N_9
REMARK    3  A    between atoms: N_12  and  C_13
REMARK    4  A    between atoms: C_22  and  N_23
REMARK    5  A    between atoms: N_23  and  C_24
REMARK                            x       y       z     vdW  Elec       q    Type
REMARK                         _______ _______ _______ _____ _____    ______ ____
ROOT
ATOM      1  C   UNL     1       2.981   7.231  18.534  0.00  0.00    +0.000 A 
ATOM      2  N   UNL     1       3.613   7.340  17.335  0.00  0.00    +0.000 NA
ATOM      3  C   UNL     1       4.440   6.362  16.945  0.00  0.00    +0.000 A 
ATOM      4  C   UNL     1       5.156   6.520  15.758  0.00  0.00    +0.000 A 
ATOM      5  C   UNL     1       6.134   5.599  15.379  0.00  0.00    +0.000 A 
ATOM      6  C   UNL     1       6.385   4.503  16.194  0.00  0.00    +0.000 A 
ATOM      7  C   UNL     1       5.625   4.310  17.353  0.00  0.00    +0.000 A 
ATOM      8  C   UNL     1       4.643   5.222  17.732  0.00  0.00    +0.000 A 
ATOM      9  N   UNL     1       3.937   5.018  18.856  0.00  0.00    +0.000 NA
ATOM     10  C   UNL     1       3.126   6.016  19.284  0.00  0.00    +0.000 A 
ENDROOT
BRANCH   1  14
ATOM     11  N   UNL     1       0.110  10.191  19.481  0.00  0.00    +0.000 NA
ATOM     12  C   UNL     1       0.827   9.614  20.610  0.00  0.00    +0.000 C 
ATOM     13  C   UNL     1       1.457   8.250  20.202  0.00  0.00    +0.000 C 
ATOM     14  N   UNL     1       2.323   8.403  19.008  0.00  0.00    +0.000 N 
ATOM     15  C   UNL     1       1.636   9.124  17.894  0.00  0.00    +0.000 C 
ATOM     16  C   UNL     1       0.998  10.453  18.359  0.00  0.00    +0.000 C 
BRANCH  11  17
ATOM     17  C   UNL     1      -1.048  11.028  19.693  0.00  0.00    +0.000 C 
BRANCH  17  24
ATOM     18 CL   UNL     1      -2.638   9.573  14.948  0.00  0.00    +0.000 Cl
ATOM     19  C   UNL     1      -2.899  10.427  16.419  0.00  0.00    +0.000 A 
ATOM     20  C   UNL     1      -4.135  11.020  16.657  0.00  0.00    +0.000 A 
ATOM     21  C   UNL     1      -4.345  11.706  17.852  0.00  0.00    +0.000 A 
ATOM     22  C   UNL     1      -3.328  11.783  18.812  0.00  0.00    +0.000 A 
ATOM     23 CL   UNL     1      -3.699  12.648  20.262  0.00  0.00    +0.000 Cl
ATOM     24  C   UNL     1      -2.085  11.152  18.602  0.00  0.00    +0.000 A 
ATOM     25  C   UNL     1      -1.882  10.491  17.376  0.00  0.00    +0.000 A 
ENDBRANCH  17  24
ENDBRANCH  11  17
ENDBRANCH   1  14
BRANCH  10  26
ATOM     26  N   UNL     1       2.509   5.839  20.525  0.00  0.00    +0.000 N 
ATOM     27  H   UNL     1       3.237   5.891  21.237  0.00  0.00    +0.000 HD
BRANCH  26  28
ATOM     28  C   UNL     1       1.555   4.735  20.745  0.00  0.00    +0.000 C 
ATOM     29  C   UNL     1       2.272   3.741  21.679  0.00  0.00    +0.000 C 
ATOM     30  C   UNL     1       1.768   2.318  21.569  0.00  0.00    +0.000 C 
ATOM     31  O   UNL     1       1.743   1.917  20.205  0.00  0.00    +0.000 OA
ATOM     32  C   UNL     1       0.743   2.632  19.491  0.00  0.00    +0.000 C 
ATOM     33  C   UNL     1       1.052   4.119  19.429  0.00  0.00    +0.000 C 
ENDBRANCH  26  28
ENDBRANCH  10  26
TORSDOF 5
ENDMDL
MODEL 5
REMARK VINA RESULT:      -8.9      1.996      2.811
REMARK  Name = 
REMARK  5 active torsions:
REMARK  status: ('A' for Active; 'I' for Inactive)
REMARK    1  A    between atoms: C_7  and  C_8
REMARK    2  A    between atoms: C_8  and  N_9
REMARK    3  A    between atoms: N_12  and  C_13
REMARK    4  A    between atoms: C_22  and  N_23
REMARK    5  A    between atoms: N_23  and  C_24
REMARK                            x       y       z     vdW  Elec       q    Type
REMARK                         _______ _______ _______ _____ _____    ______ ____
ROOT
ATOM      1  C   UNL     1       2.565   6.702  19.088  0.00  0.00    +0.000 A 
ATOM      2  N   UNL     1       1.870   5.822  19.856  0.00  0.00    +0.000 NA
ATOM      3  C   UNL     1       1.966   4.513  19.594  0.00  0.00    +0.000 A 
ATOM      4  C   UNL     1       1.180   3.621  20.325  0.00  0.00    +0.000 A 
ATOM      5  C   UNL     1       1.137   2.264  19.997  0.00  0.00    +0.000 A 
ATOM      6  C   UNL     1       1.899   1.799  18.933  0.00  0.00    +0.000 A 
ATOM      7  C   UNL     1       2.734   2.681  18.239  0.00  0.00    +0.000 A 
ATOM      8  C   UNL     1       2.787   4.034  18.567  0.00  0.00    +0.000 A 
ATOM      9  N   UNL     1       3.590   4.860  17.875  0.00  0.00    +0.000 NA
ATOM     10  C   UNL     1       3.474   6.191  18.102  0.00  0.00    +0.000 A 
ENDROOT
BRANCH   1  14
ATOM     11  N   UNL     1       0.548  10.420  19.165  0.00  0.00    +0.000 NA
ATOM     12  C   UNL     1       1.088   9.962  20.438  0.00  0.00    +0.000 C 
ATOM     13  C   UNL     1       1.348   8.427  20.386  0.00  0.00    +0.000 C 
ATOM     14  N   UNL     1       2.229   8.078  19.245  0.00  0.00    +0.000 N 
ATOM     15  C   UNL     1       1.755   8.668  17.957  0.00  0.00    +0.000 C 
ATOM     16  C   UNL     1       1.478  10.185  18.071  0.00  0.00    +0.000 C 
BRANCH  11  17
ATOM     17  C   UNL     1      -0.357  11.545  19.111  0.00  0.00    +0.000 C 
BRANCH  17  24
ATOM     18 CL   UNL     1      -3.087  12.152  23.509  0.00  0.00    +0.000 Cl
ATOM     19  C   UNL     1      -1.805  12.626  22.465  0.00  0.00    +0.000 A 
ATOM     20  C   UNL     1      -0.896  13.590  22.889  0.00  0.00    +0.000 A 
ATOM     21  C   UNL     1       0.146  13.968  22.043  0.00  0.00    +0.000 A 
ATOM     22  C   UNL     1       0.287  13.369  20.785  0.00  0.00    +0.000 A 
ATOM     23 CL   UNL     1       1.620  13.904  19.821  0.00  0.00    +0.000 Cl
ATOM     24  C   UNL     1      -0.601  12.362  20.358  0.00  0.00    +0.000 A 
ATOM     25  C   UNL     1      -1.665  12.017  21.214  0.00  0.00    +0.000 A 
ENDBRANCH  17  24
ENDBRANCH  11  17
ENDBRANCH   1  14
BRANCH  10  26
ATOM     26  N   UNL     1       4.216   7.039  17.275  0.00  0.00    +0.000 N 
ATOM     27  H   UNL     1       3.647   7.235  16.452  0.00  0.00    +0.000 HD
BRANCH  26  28
ATOM     28  C   UNL     1       5.625   6.739  16.954  0.00  0.00    +0.000 C 
ATOM     29  C   UNL     1       5.589   5.874  15.678  0.00  0.00    +0.000 C 
ATOM     30  C   UNL     1       6.799   4.982  15.504  0.00  0.00    +0.000 C 
ATOM     31  O   UNL     1       7.032   4.245  16.697  0.00  0.00    +0.000 OA
ATOM     32  C   UNL     1       7.461   5.108  17.743  0.00  0.00    +0.000 C 
ATOM     33  C   UNL     1       6.375   6.099  18.132  0.00  0.00    +0.000 C 
ENDBRANCH  26  28
ENDBRANCH  10  26
TORSDOF 5
ENDMDL
MODEL 6
REMARK VINA RESULT:      -8.8      1.716      4.258
REMARK  Name = 
REMARK  5 active torsions:
REMARK  status: ('A' for Active; 'I' for Inactive)
REMARK    1  A    between atoms: C_7  and  C_8
REMARK    2  A    between atoms: C_8  and  N_9
REMARK    3  A    between atoms: N_12  and  C_13
REMARK    4  A    between atoms: C_22  and  N_23
REMARK    5  A    between atoms: N_23  and  C_24
REMARK                            x       y       z     vdW  Elec       q    Type
REMARK                         _______ _______ _______ _____ _____    ______ ____
ROOT
ATOM      1  C   UNL     1       2.895   7.054  18.633  0.00  0.00    +0.000 A 
ATOM      2  N   UNL     1       3.789   7.212  17.621  0.00  0.00    +0.000 NA
ATOM      3  C   UNL     1       4.904   6.470  17.616  0.00  0.00    +0.000 A 
ATOM      4  C   UNL     1       5.861   6.700  16.627  0.00  0.00    +0.000 A 
ATOM      5  C   UNL     1       7.099   6.055  16.659  0.00  0.00    +0.000 A 
ATOM      6  C   UNL     1       7.371   5.162  17.687  0.00  0.00    +0.000 A 
ATOM      7  C   UNL     1       6.390   4.884  18.645  0.00  0.00    +0.000 A 
ATOM      8  C   UNL     1       5.150   5.519  18.613  0.00  0.00    +0.000 A 
ATOM      9  N   UNL     1       4.231   5.241  19.552  0.00  0.00    +0.000 NA
ATOM     10  C   UNL     1       3.116   6.011  19.594  0.00  0.00    +0.000 A 
ENDROOT
BRANCH   1  14
ATOM     11  N   UNL     1       0.709  10.609  19.326  0.00  0.00    +0.000 NA
ATOM     12  C   UNL     1       0.716  10.122  17.952  0.00  0.00    +0.000 C 
ATOM     13  C   UNL     1       1.909   9.145  17.739  0.00  0.00    +0.000 C 
ATOM     14  N   UNL     1       1.868   8.038  18.725  0.00  0.00    +0.000 N 
ATOM     15  C   UNL     1       1.715   8.529  20.128  0.00  0.00    +0.000 C 
ATOM     16  C   UNL     1       0.541   9.523  20.279  0.00  0.00    +0.000 C 
BRANCH  11  17
ATOM     17  C   UNL     1       0.202  11.926  19.638  0.00  0.00    +0.000 C 
BRANCH  17  24
ATOM     18 CL   UNL     1      -4.308  11.375  17.086  0.00  0.00    +0.000 Cl
ATOM     19  C   UNL     1      -3.427  11.857  18.483  0.00  0.00    +0.000 A 
ATOM     20  C   UNL     1      -4.116  12.248  19.627  0.00  0.00    +0.000 A 
ATOM     21  C   UNL     1      -3.399  12.632  20.758  0.00  0.00    +0.000 A 
ATOM     22  C   UNL     1      -1.998  12.607  20.751  0.00  0.00    +0.000 A 
ATOM     23 CL   UNL     1      -1.210  13.092  22.211  0.00  0.00    +0.000 Cl
ATOM     24  C   UNL     1      -1.288  12.173  19.614  0.00  0.00    +0.000 A 
ATOM     25  C   UNL     1      -2.029  11.819  18.470  0.00  0.00    +0.000 A 
ENDBRANCH  17  24
ENDBRANCH  11  17
ENDBRANCH   1  14
BRANCH  10  26
ATOM     26  N   UNL     1       2.240   5.796  20.661  0.00  0.00    +0.000 N 
ATOM     27  H   UNL     1       2.764   5.959  21.521  0.00  0.00    +0.000 HD
BRANCH  26  28
ATOM     28  C   UNL     1       1.392   4.590  20.713  0.00  0.00    +0.000 C 
ATOM     29  C   UNL     1       2.121   3.604  21.647  0.00  0.00    +0.000 C 
ATOM     30  C   UNL     1       1.782   2.151  21.396  0.00  0.00    +0.000 C 
ATOM     31  O   UNL     1       1.927   1.853  20.013  0.00  0.00    +0.000 OA
ATOM     32  C   UNL     1       0.927   2.516  19.251  0.00  0.00    +0.000 C 
ATOM     33  C   UNL     1       1.082   4.028  19.316  0.00  0.00    +0.000 C 
ENDBRANCH  26  28
ENDBRANCH  10  26
TORSDOF 5
ENDMDL
MODEL 7
REMARK VINA RESULT:      -8.8      1.717      4.059
REMARK  Name = 
REMARK  5 active torsions:
REMARK  status: ('A' for Active; 'I' for Inactive)
REMARK    1  A    between atoms: C_7  and  C_8
REMARK    2  A    between atoms: C_8  and  N_9
REMARK    3  A    between atoms: N_12  and  C_13
REMARK    4  A    between atoms: C_22  and  N_23
REMARK    5  A    between atoms: N_23  and  C_24
REMARK                            x       y       z     vdW  Elec       q    Type
REMARK                         _______ _______ _______ _____ _____    ______ ____
ROOT
ATOM      1  C   UNL     1       3.364   6.485  17.730  0.00  0.00    +0.000 A 
ATOM      2  N   UNL     1       4.403   6.812  16.916  0.00  0.00    +0.000 NA
ATOM      3  C   UNL     1       5.070   5.835  16.289  0.00  0.00    +0.000 A 
ATOM      4  C   UNL     1       6.192   6.166  15.529  0.00  0.00    +0.000 A 
ATOM      5  C   UNL     1       7.003   5.176  14.972  0.00  0.00    +0.000 A 
ATOM      6  C   UNL     1       6.676   3.841  15.172  0.00  0.00    +0.000 A 
ATOM      7  C   UNL     1       5.518   3.508  15.882  0.00  0.00    +0.000 A 
ATOM      8  C   UNL     1       4.700   4.492  16.432  0.00  0.00    +0.000 A 
ATOM      9  N   UNL     1       3.600   4.143  17.119  0.00  0.00    +0.000 NA
ATOM     10  C   UNL     1       2.938   5.115  17.791  0.00  0.00    +0.000 A 
ENDROOT
BRANCH   1  14
ATOM     11  N   UNL     1       0.883   9.296  19.690  0.00  0.00    +0.000 NA
ATOM     12  C   UNL     1       1.597   8.364  20.553  0.00  0.00    +0.000 C 
ATOM     13  C   UNL     1       2.053   7.121  19.735  0.00  0.00    +0.000 C 
ATOM     14  N   UNL     1       2.862   7.528  18.560  0.00  0.00    +0.000 N 
ATOM     15  C   UNL     1       2.195   8.591  17.750  0.00  0.00    +0.000 C 
ATOM     16  C   UNL     1       1.729   9.786  18.613  0.00  0.00    +0.000 C 
BRANCH  11  17
ATOM     17  C   UNL     1      -0.166  10.136  20.221  0.00  0.00    +0.000 C 
BRANCH  17  24
ATOM     18 CL   UNL     1      -2.749   9.664  15.719  0.00  0.00    +0.000 Cl
ATOM     19  C   UNL     1      -2.499  10.454  17.227  0.00  0.00    +0.000 A 
ATOM     20  C   UNL     1      -3.397  11.431  17.646  0.00  0.00    +0.000 A 
ATOM     21  C   UNL     1      -3.195  12.065  18.871  0.00  0.00    +0.000 A 
ATOM     22  C   UNL     1      -2.108  11.710  19.680  0.00  0.00    +0.000 A 
ATOM     23 CL   UNL     1      -1.959  12.552  21.183  0.00  0.00    +0.000 Cl
ATOM     24  C   UNL     1      -1.214  10.694  19.287  0.00  0.00    +0.000 A 
ATOM     25  C   UNL     1      -1.417  10.087  18.033  0.00  0.00    +0.000 A 
ENDBRANCH  17  24
ENDBRANCH  11  17
ENDBRANCH   1  14
BRANCH  10  26
ATOM     26  N   UNL     1       1.881   4.710  18.610  0.00  0.00    +0.000 N 
ATOM     27  H   UNL     1       1.626   5.506  19.194  0.00  0.00    +0.000 HD
BRANCH  26  28
ATOM     28  C   UNL     1       1.946   3.437  19.354  0.00  0.00    +0.000 C 
ATOM     29  C   UNL     1       0.944   3.579  20.517  0.00  0.00    +0.000 C 
ATOM     30  C   UNL     1       1.252   2.697  21.708  0.00  0.00    +0.000 C 
ATOM     31  O   UNL     1       2.612   2.860  22.092  0.00  0.00    +0.000 OA
ATOM     32  C   UNL     1       3.479   2.320  21.103  0.00  0.00    +0.000 C 
ATOM     33  C   UNL     1       3.377   3.082  19.790  0.00  0.00    +0.000 C 
ENDBRANCH  26  28
ENDBRANCH  10  26
TORSDOF 5
ENDMDL
MODEL 8
REMARK VINA RESULT:      -8.7      0.935      1.229
REMARK  Name = 
REMARK  5 active torsions:
REMARK  status: ('A' for Active; 'I' for Inactive)
REMARK    1  A    between atoms: C_7  and  C_8
REMARK    2  A    between atoms: C_8  and  N_9
REMARK    3  A    between atoms: N_12  and  C_13
REMARK    4  A    between atoms: C_22  and  N_23
REMARK    5  A    between atoms: N_23  and  C_24
REMARK                            x       y       z     vdW  Elec       q    Type
REMARK                         _______ _______ _______ _____ _____    ______ ____
ROOT
ATOM      1  C   UNL     1       2.528   6.605  19.146  0.00  0.00    +0.000 A 
ATOM      2  N   UNL     1       1.725   5.709  19.778  0.00  0.00    +0.000 NA
ATOM      3  C   UNL     1       1.790   4.418  19.429  0.00  0.00    +0.000 A 
ATOM      4  C   UNL     1       0.900   3.517  20.015  0.00  0.00    +0.000 A 
ATOM      5  C   UNL     1       0.831   2.191  19.584  0.00  0.00    +0.000 A 
ATOM      6  C   UNL     1       1.671   1.764  18.563  0.00  0.00    +0.000 A 
ATOM      7  C   UNL     1       2.606   2.651  18.017  0.00  0.00    +0.000 A 
ATOM      8  C   UNL     1       2.685   3.973  18.449  0.00  0.00    +0.000 A 
ATOM      9  N   UNL     1       3.585   4.804  17.899  0.00  0.00    +0.000 NA
ATOM     10  C   UNL     1       3.505   6.120  18.213  0.00  0.00    +0.000 A 
ENDROOT
BRANCH   1  14
ATOM     11  N   UNL     1       0.660  10.396  19.343  0.00  0.00    +0.000 NA
ATOM     12  C   UNL     1       1.094   9.832  20.615  0.00  0.00    +0.000 C 
ATOM     13  C   UNL     1       1.295   8.294  20.476  0.00  0.00    +0.000 C 
ATOM     14  N   UNL     1       2.237   7.982  19.374  0.00  0.00    +0.000 N 
ATOM     15  C   UNL     1       1.875   8.675  18.101  0.00  0.00    +0.000 C 
ATOM     16  C   UNL     1       1.652  10.192  18.299  0.00  0.00    +0.000 C 
BRANCH  11  17
ATOM     17  C   UNL     1      -0.194  11.561  19.307  0.00  0.00    +0.000 C 
BRANCH  17  24
ATOM     18 CL   UNL     1      -3.005   9.586  15.389  0.00  0.00    +0.000 Cl
ATOM     19  C   UNL     1      -2.896  10.505  16.839  0.00  0.00    +0.000 A 
ATOM     20  C   UNL     1      -4.060  10.958  17.453  0.00  0.00    +0.000 A 
ATOM     21  C   UNL     1      -3.968  11.698  18.631  0.00  0.00    +0.000 A 
ATOM     22  C   UNL     1      -2.717  11.967  19.201  0.00  0.00    +0.000 A 
ATOM     23 CL   UNL     1      -2.719  12.883  20.668  0.00  0.00    +0.000 Cl
ATOM     24  C   UNL     1      -1.533  11.479  18.613  0.00  0.00    +0.000 A 
ATOM     25  C   UNL     1      -1.644  10.761  17.407  0.00  0.00    +0.000 A 
ENDBRANCH  17  24
ENDBRANCH  11  17
ENDBRANCH   1  14
BRANCH  10  26
ATOM     26  N   UNL     1       4.358   6.987  17.525  0.00  0.00    +0.000 N 
ATOM     27  H   UNL     1       3.871   7.286  16.680  0.00  0.00    +0.000 HD
BRANCH  26  28
ATOM     28  C   UNL     1       5.770   6.628  17.288  0.00  0.00    +0.000 C 
ATOM     29  C   UNL     1       6.166   5.698  18.452  0.00  0.00    +0.000 C 
ATOM     30  C   UNL     1       7.650   5.683  18.752  0.00  0.00    +0.000 C 
ATOM     31  O   UNL     1       8.129   7.016  18.886  0.00  0.00    +0.000 OA
ATOM     32  C   UNL     1       8.096   7.688  17.634  0.00  0.00    +0.000 C 
ATOM     33  C   UNL     1       6.673   7.861  17.127  0.00  0.00    +0.000 C 
ENDBRANCH  26  28
ENDBRANCH  10  26
TORSDOF 5
ENDMDL
MODEL 9
REMARK VINA RESULT:      -8.7      2.388      4.853
REMARK  Name = 
REMARK  5 active torsions:
REMARK  status: ('A' for Active; 'I' for Inactive)
REMARK    1  A    between atoms: C_7  and  C_8
REMARK    2  A    between atoms: C_8  and  N_9
REMARK    3  A    between atoms: N_12  and  C_13
REMARK    4  A    between atoms: C_22  and  N_23
REMARK    5  A    between atoms: N_23  and  C_24
REMARK                            x       y       z     vdW  Elec       q    Type
REMARK                         _______ _______ _______ _____ _____    ______ ____
ROOT
ATOM      1  C   UNL     1       2.825   6.824  18.004  0.00  0.00    +0.000 A 
ATOM      2  N   UNL     1       4.059   7.339  17.755  0.00  0.00    +0.000 NA
ATOM      3  C   UNL     1       5.061   6.507  17.447  0.00  0.00    +0.000 A 
ATOM      4  C   UNL     1       6.344   7.030  17.283  0.00  0.00    +0.000 A 
ATOM      5  C   UNL     1       7.445   6.192  17.101  0.00  0.00    +0.000 A 
ATOM      6  C   UNL     1       7.254   4.816  17.073  0.00  0.00    +0.000 A 
ATOM      7  C   UNL     1       5.960   4.293  17.176  0.00  0.00    +0.000 A 
ATOM      8  C   UNL     1       4.856   5.126  17.349  0.00  0.00    +0.000 A 
ATOM      9  N   UNL     1       3.628   4.595  17.456  0.00  0.00    +0.000 NA
ATOM     10  C   UNL     1       2.611   5.419  17.807  0.00  0.00    +0.000 A 
ENDROOT
BRANCH   1  14
ATOM     11  N   UNL     1       0.945   9.990  20.088  0.00  0.00    +0.000 NA
ATOM     12  C   UNL     1       0.665   9.912  18.660  0.00  0.00    +0.000 C 
ATOM     13  C   UNL     1       1.758   9.060  17.948  0.00  0.00    +0.000 C 
ATOM     14  N   UNL     1       1.872   7.719  18.571  0.00  0.00    +0.000 N 
ATOM     15  C   UNL     1       2.015   7.790  20.056  0.00  0.00    +0.000 C 
ATOM     16  C   UNL     1       0.930   8.675  20.711  0.00  0.00    +0.000 C 
BRANCH  11  17
ATOM     17  C   UNL     1       0.557  11.154  20.852  0.00  0.00    +0.000 C 
BRANCH  17  24
ATOM     18 CL   UNL     1       3.883  14.889  19.388  0.00  0.00    +0.000 Cl
ATOM     19  C   UNL     1       2.284  14.262  19.486  0.00  0.00    +0.000 A 
ATOM     20  C   UNL     1       1.248  14.919  18.829  0.00  0.00    +0.000 A 
ATOM     21  C   UNL     1      -0.045  14.405  18.907  0.00  0.00    +0.000 A 
ATOM     22  C   UNL     1      -0.297  13.228  19.623  0.00  0.00    +0.000 A 
ATOM     23 CL   UNL     1      -1.934  12.673  19.644  0.00  0.00    +0.000 Cl
ATOM     24  C   UNL     1       0.749  12.529  20.258  0.00  0.00    +0.000 A 
ATOM     25  C   UNL     1       2.043  13.081  20.195  0.00  0.00    +0.000 A 
ENDBRANCH  17  24
ENDBRANCH  11  17
ENDBRANCH   1  14
BRANCH  10  26
ATOM     26  N   UNL     1       1.370   4.823  18.049  0.00  0.00    +0.000 N 
ATOM     27  H   UNL     1       0.691   5.574  18.173  0.00  0.00    +0.000 HD
BRANCH  26  28
ATOM     28  C   UNL     1       1.232   3.741  19.043  0.00  0.00    +0.000 C 
ATOM     29  C   UNL     1       1.535   4.386  20.410  0.00  0.00    +0.000 C 
ATOM     30  C   UNL     1       2.028   3.410  21.457  0.00  0.00    +0.000 C 
ATOM     31  O   UNL     1       3.099   2.637  20.931  0.00  0.00    +0.000 OA
ATOM     32  C   UNL     1       2.631   1.757  19.916  0.00  0.00    +0.000 C 
ATOM     33  C   UNL     1       2.105   2.520  18.711  0.00  0.00    +0.000 C 
ENDBRANCH  26  28
ENDBRANCH  10  26
TORSDOF 5
ENDMDL
