MODEL 1
REMARK VINA RESULT:      -7.0      0.000      0.000
REMARK  Name = 
REMARK  5 active torsions:
REMARK  status: ('A' for Active; 'I' for Inactive)
REMARK    1  A    between atoms: C_2  and  OXT_3
REMARK    2  A    between atoms: C_2  and  CA_4
REMARK    3  A    between atoms: C_6  and  C_7
REMARK    4  A    between atoms: C_7  and  O_8
REMARK    5  A    between atoms: O_8  and  C_9
REMARK                            x       y       z     vdW  Elec       q    Type
REMARK                         _______ _______ _______ _____ _____    ______ ____
ROOT
ATOM      1  CA  UNL     1       6.761   5.065  15.900  0.00  0.00    +0.000 C 
ATOM      2  C   UNL     1       5.311   5.451  16.104  0.00  0.00    +0.000 C 
ATOM      3  C   UNL     1       5.349   6.146  17.458  0.00  0.00    +0.000 C 
ATOM      4  C   UNL     1       6.727   6.809  17.504  0.00  0.00    +0.000 C 
ATOM      5  N   UNL     1       7.474   6.305  16.331  0.00  0.00    +0.000 NA
ATOM      6  H   UNL     1       8.424   6.059  16.627  0.00  0.00    +0.000 HD
ENDROOT
BRANCH   1   8
ATOM      7  O   UNL     1       7.801   5.431  13.723  0.00  0.00    +0.000 OA
ATOM      8  C   UNL     1       7.071   4.760  14.438  0.00  0.00    +0.000 C 
BRANCH   8   9
ATOM      9  OXT UNL     1       6.457   3.622  14.022  0.00  0.00    +0.000 OA
ATOM     10  HXT UNL     1       5.557   3.629  14.432  0.00  0.00    +0.000 HD
ENDBRANCH   8   9
ENDBRANCH   1   8
BRANCH   3  11
ATOM     11  C   UNL     1       4.173   7.092  17.676  0.00  0.00    +0.000 C 
BRANCH  11  12
ATOM     12  O   UNL     1       2.951   6.397  17.413  0.00  0.00    +0.000 OA
BRANCH  12  13
ATOM     13  C   UNL     1       2.420   5.694  18.464  0.00  0.00    +0.000 A 
ATOM     14  C   UNL     1       2.372   6.135  19.789  0.00  0.00    +0.000 A 
ATOM     15  C   UNL     1       1.778   5.345  20.779  0.00  0.00    +0.000 A 
ATOM     16  C   UNL     1       1.233   4.105  20.449  0.00  0.00    +0.000 A 
ATOM     17  C   UNL     1       1.272   3.668  19.128  0.00  0.00    +0.000 A 
ATOM     18 CL   UNL     1       0.597   2.137  18.720  0.00  0.00    +0.000 Cl
ATOM     19  C   UNL     1       1.855   4.458  18.135  0.00  0.00    +0.000 A 
ENDBRANCH  12  13
ENDBRANCH  11  12
ENDBRANCH   3  11
TORSDOF 5
ENDMDL
MODEL 2
REMARK VINA RESULT:      -6.9      1.070      1.748
REMARK  Name = 
REMARK  5 active torsions:
REMARK  status: ('A' for Active; 'I' for Inactive)
REMARK    1  A    between atoms: C_2  and  OXT_3
REMARK    2  A    between atoms: C_2  and  CA_4
REMARK    3  A    between atoms: C_6  and  C_7
REMARK    4  A    between atoms: C_7  and  O_8
REMARK    5  A    between atoms: O_8  and  C_9
REMARK                            x       y       z     vdW  Elec       q    Type
REMARK                         _______ _______ _______ _____ _____    ______ ____
ROOT
ATOM      1  CA  UNL     1       6.720   5.142  16.067  0.00  0.00    +0.000 C 
ATOM      2  C   UNL     1       5.231   5.288  16.301  0.00  0.00    +0.000 C 
ATOM      3  C   UNL     1       5.186   6.119  17.577  0.00  0.00    +0.000 C 
ATOM      4  C   UNL     1       6.424   7.013  17.490  0.00  0.00    +0.000 C 
ATOM      5  N   UNL     1       7.213   6.526  16.338  0.00  0.00    +0.000 NA
ATOM      6  H   UNL     1       8.200   6.482  16.610  0.00  0.00    +0.000 HD
ENDROOT
BRANCH   1   8
ATOM      7  O   UNL     1       6.458   3.861  14.006  0.00  0.00    +0.000 OA
ATOM      8  C   UNL     1       7.034   4.742  14.628  0.00  0.00    +0.000 C 
BRANCH   8   9
ATOM      9  OXT UNL     1       8.023   5.507  14.100  0.00  0.00    +0.000 OA
ATOM     10  HXT UNL     1       7.866   6.426  14.429  0.00  0.00    +0.000 HD
ENDBRANCH   8   9
ENDBRANCH   1   8
BRANCH   3  11
ATOM     11  C   UNL     1       3.867   6.863  17.757  0.00  0.00    +0.000 C 
BRANCH  11  12
ATOM     12  O   UNL     1       3.285   6.499  19.012  0.00  0.00    +0.000 OA
BRANCH  12  13
ATOM     13  C   UNL     1       2.555   5.339  19.023  0.00  0.00    +0.000 A 
ATOM     14  C   UNL     1       1.939   4.761  17.909  0.00  0.00    +0.000 A 
ATOM     15  C   UNL     1       1.242   3.555  18.029  0.00  0.00    +0.000 A 
ATOM     16  C   UNL     1       1.151   2.921  19.268  0.00  0.00    +0.000 A 
ATOM     17  C   UNL     1       1.771   3.490  20.376  0.00  0.00    +0.000 A 
ATOM     18 CL   UNL     1       1.662   2.706  21.906  0.00  0.00    +0.000 Cl
ATOM     19  C   UNL     1       2.477   4.689  20.258  0.00  0.00    +0.000 A 
ENDBRANCH  12  13
ENDBRANCH  11  12
ENDBRANCH   3  11
TORSDOF 5
ENDMDL
MODEL 3
REMARK VINA RESULT:      -6.9      0.846      1.124
REMARK  Name = 
REMARK  5 active torsions:
REMARK  status: ('A' for Active; 'I' for Inactive)
REMARK    1  A    between atoms: C_2  and  OXT_3
REMARK    2  A    between atoms: C_2  and  CA_4
REMARK    3  A    between atoms: C_6  and  C_7
REMARK    4  A    between atoms: C_7  and  O_8
REMARK    5  A    between atoms: O_8  and  C_9
REMARK                            x       y       z     vdW  Elec       q    Type
REMARK                         _______ _______ _______ _____ _____    ______ ____
ROOT
ATOM      1  CA  UNL     1       6.578   4.353  15.095  0.00  0.00    +0.000 C 
ATOM      2  C   UNL     1       5.439   5.281  15.461  0.00  0.00    +0.000 C 
ATOM      3  C   UNL     1       5.405   5.165  16.979  0.00  0.00    +0.000 C 
ATOM      4  C   UNL     1       6.865   4.933  17.374  0.00  0.00    +0.000 C 
ATOM      5  N   UNL     1       7.609   4.710  16.116  0.00  0.00    +0.000 NA
ATOM      6  H   UNL     1       8.242   3.914  16.244  0.00  0.00    +0.000 HD
ENDROOT
BRANCH   1   8
ATOM      7  O   UNL     1       6.748   4.040  12.680  0.00  0.00    +0.000 OA
ATOM      8  C   UNL     1       7.109   4.627  13.690  0.00  0.00    +0.000 C 
BRANCH   8   9
ATOM      9  OXT UNL     1       8.020   5.633  13.686  0.00  0.00    +0.000 OA
ATOM     10  HXT UNL     1       8.152   5.882  12.738  0.00  0.00    +0.000 HD
ENDBRANCH   8   9
ENDBRANCH   1   8
BRANCH   3  11
ATOM     11  C   UNL     1       4.739   6.360  17.653  0.00  0.00    +0.000 C 
BRANCH  11  12
ATOM     12  O   UNL     1       3.321   6.271  17.485  0.00  0.00    +0.000 OA
BRANCH  12  13
ATOM     13  C   UNL     1       2.635   5.642  18.491  0.00  0.00    +0.000 A 
ATOM     14  C   UNL     1       2.453   6.145  19.783  0.00  0.00    +0.000 A 
ATOM     15  C   UNL     1       1.706   5.430  20.724  0.00  0.00    +0.000 A 
ATOM     16  C   UNL     1       1.140   4.203  20.381  0.00  0.00    +0.000 A 
ATOM     17  C   UNL     1       1.312   3.705  19.092  0.00  0.00    +0.000 A 
ATOM     18 CL   UNL     1       0.611   2.190  18.666  0.00  0.00    +0.000 Cl
ATOM     19  C   UNL     1       2.049   4.421  18.146  0.00  0.00    +0.000 A 
ENDBRANCH  12  13
ENDBRANCH  11  12
ENDBRANCH   3  11
TORSDOF 5
ENDMDL
MODEL 4
REMARK VINA RESULT:      -6.9      1.533      2.013
REMARK  Name = 
REMARK  5 active torsions:
REMARK  status: ('A' for Active; 'I' for Inactive)
REMARK    1  A    between atoms: C_2  and  OXT_3
REMARK    2  A    between atoms: C_2  and  CA_4
REMARK    3  A    between atoms: C_6  and  C_7
REMARK    4  A    between atoms: C_7  and  O_8
REMARK    5  A    between atoms: O_8  and  C_9
REMARK                            x       y       z     vdW  Elec       q    Type
REMARK                         _______ _______ _______ _____ _____    ______ ____
ROOT
ATOM      1  CA  UNL     1       7.167   4.779  15.976  0.00  0.00    +0.000 C 
ATOM      2  C   UNL     1       6.086   4.393  16.964  0.00  0.00    +0.000 C 
ATOM      3  C   UNL     1       6.607   4.993  18.262  0.00  0.00    +0.000 C 
ATOM      4  C   UNL     1       7.359   6.251  17.823  0.00  0.00    +0.000 C 
ATOM      5  N   UNL     1       7.430   6.202  16.347  0.00  0.00    +0.000 NA
ATOM      6  H   UNL     1       8.380   6.454  16.054  0.00  0.00    +0.000 HD
ENDROOT
BRANCH   1   8
ATOM      7  O   UNL     1       5.678   4.091  14.169  0.00  0.00    +0.000 OA
ATOM      8  C   UNL     1       6.680   4.691  14.533  0.00  0.00    +0.000 C 
BRANCH   8   9
ATOM      9  OXT UNL     1       7.481   5.390  13.689  0.00  0.00    +0.000 OA
ATOM     10  HXT UNL     1       7.971   6.041  14.250  0.00  0.00    +0.000 HD
ENDBRANCH   8   9
ENDBRANCH   1   8
BRANCH   3  11
ATOM     11  C   UNL     1       5.507   5.230  19.293  0.00  0.00    +0.000 C 
BRANCH  11  12
ATOM     12  O   UNL     1       4.324   5.683  18.628  0.00  0.00    +0.000 OA
BRANCH  12  13
ATOM     13  C   UNL     1       3.217   4.886  18.760  0.00  0.00    +0.000 A 
ATOM     14  C   UNL     1       2.308   4.589  17.740  0.00  0.00    +0.000 A 
ATOM     15  C   UNL     1       1.226   3.737  17.979  0.00  0.00    +0.000 A 
ATOM     16  C   UNL     1       1.042   3.179  19.245  0.00  0.00    +0.000 A 
ATOM     17  C   UNL     1       1.951   3.466  20.259  0.00  0.00    +0.000 A 
ATOM     18 CL   UNL     1       1.726   2.776  21.821  0.00  0.00    +0.000 Cl
ATOM     19  C   UNL     1       3.039   4.309  20.021  0.00  0.00    +0.000 A 
ENDBRANCH  12  13
ENDBRANCH  11  12
ENDBRANCH   3  11
TORSDOF 5
ENDMDL
MODEL 5
REMARK VINA RESULT:      -6.8      2.066      2.642
REMARK  Name = 
REMARK  5 active torsions:
REMARK  status: ('A' for Active; 'I' for Inactive)
REMARK    1  A    between atoms: C_2  and  OXT_3
REMARK    2  A    between atoms: C_2  and  CA_4
REMARK    3  A    between atoms: C_6  and  C_7
REMARK    4  A    between atoms: C_7  and  O_8
REMARK    5  A    between atoms: O_8  and  C_9
REMARK                            x       y       z     vdW  Elec       q    Type
REMARK                         _______ _______ _______ _____ _____    ______ ____
ROOT
ATOM      1  CA  UNL     1       6.749   5.768  15.783  0.00  0.00    +0.000 C 
ATOM      2  C   UNL     1       6.879   5.010  17.088  0.00  0.00    +0.000 C 
ATOM      3  C   UNL     1       6.139   5.918  18.062  0.00  0.00    +0.000 C 
ATOM      4  C   UNL     1       5.039   6.563  17.218  0.00  0.00    +0.000 C 
ATOM      5  N   UNL     1       5.318   6.193  15.813  0.00  0.00    +0.000 NA
ATOM      6  H   UNL     1       5.203   7.025  15.225  0.00  0.00    +0.000 HD
ENDROOT
BRANCH   1   8
ATOM      7  O   UNL     1       6.449   3.808  14.361  0.00  0.00    +0.000 OA
ATOM      8  C   UNL     1       7.010   4.874  14.575  0.00  0.00    +0.000 C 
BRANCH   8   9
ATOM      9  OXT UNL     1       7.928   5.418  13.736  0.00  0.00    +0.000 OA
ATOM     10  HXT UNL     1       8.803   5.044  14.005  0.00  0.00    +0.000 HD
ENDBRANCH   8   9
ENDBRANCH   1   8
BRANCH   3  11
ATOM     11  C   UNL     1       5.648   5.183  19.305  0.00  0.00    +0.000 C 
BRANCH  11  12
ATOM     12  O   UNL     1       5.538   3.786  19.018  0.00  0.00    +0.000 OA
BRANCH  12  13
ATOM     13  C   UNL     1       4.264   3.296  18.890  0.00  0.00    +0.000 A 
ATOM     14  C   UNL     1       3.684   2.850  17.699  0.00  0.00    +0.000 A 
ATOM     15  C   UNL     1       2.382   2.340  17.690  0.00  0.00    +0.000 A 
ATOM     16  C   UNL     1       1.648   2.279  18.874  0.00  0.00    +0.000 A 
ATOM     17  C   UNL     1       2.226   2.715  20.062  0.00  0.00    +0.000 A 
ATOM     18 CL   UNL     1       1.321   2.637  21.525  0.00  0.00    +0.000 Cl
ATOM     19  C   UNL     1       3.530   3.215  20.077  0.00  0.00    +0.000 A 
ENDBRANCH  12  13
ENDBRANCH  11  12
ENDBRANCH   3  11
TORSDOF 5
ENDMDL
MODEL 6
REMARK VINA RESULT:      -6.8      3.144      3.911
REMARK  Name = 
REMARK  5 active torsions:
REMARK  status: ('A' for Active; 'I' for Inactive)
REMARK    1  A    between atoms: C_2  and  OXT_3
REMARK    2  A    between atoms: C_2  and  CA_4
REMARK    3  A    between atoms: C_6  and  C_7
REMARK    4  A    between atoms: C_7  and  O_8
REMARK    5  A    between atoms: O_8  and  C_9
REMARK                            x       y       z     vdW  Elec       q    Type
REMARK                         _______ _______ _______ _____ _____    ______ ____
ROOT
ATOM      1  CA  UNL     1       5.841   4.128  16.998  0.00  0.00    +0.000 C 
ATOM      2  C   UNL     1       4.705   5.123  16.884  0.00  0.00    +0.000 C 
ATOM      3  C   UNL     1       3.543   4.358  17.505  0.00  0.00    +0.000 C 
ATOM      4  C   UNL     1       4.196   3.484  18.578  0.00  0.00    +0.000 C 
ATOM      5  N   UNL     1       5.657   3.607  18.386  0.00  0.00    +0.000 NA
ATOM      6  H   UNL     1       6.078   2.675  18.452  0.00  0.00    +0.000 HD
ENDROOT
BRANCH   1   8
ATOM      7  O   UNL     1       7.415   5.833  16.242  0.00  0.00    +0.000 OA
ATOM      8  C   UNL     1       7.204   4.800  16.862  0.00  0.00    +0.000 C 
BRANCH   8   9
ATOM      9  OXT UNL     1       8.166   4.126  17.543  0.00  0.00    +0.000 OA
ATOM     10  HXT UNL     1       8.255   3.248  17.098  0.00  0.00    +0.000 HD
ENDBRANCH   8   9
ENDBRANCH   1   8
BRANCH   3  11
ATOM     11  C   UNL     1       2.430   5.271  18.009  0.00  0.00    +0.000 C 
BRANCH  11  12
ATOM     12  O   UNL     1       2.976   6.220  18.929  0.00  0.00    +0.000 OA
BRANCH  12  13
ATOM     13  C   UNL     1       2.347   7.438  18.981  0.00  0.00    +0.000 A 
ATOM     14  C   UNL     1       2.196   8.316  17.904  0.00  0.00    +0.000 A 
ATOM     15  C   UNL     1       1.507   9.523  18.063  0.00  0.00    +0.000 A 
ATOM     16  C   UNL     1       0.970   9.861  19.305  0.00  0.00    +0.000 A 
ATOM     17  C   UNL     1       1.111   8.984  20.376  0.00  0.00    +0.000 A 
ATOM     18 CL   UNL     1       0.446   9.400  21.909  0.00  0.00    +0.000 Cl
ATOM     19  C   UNL     1       1.790   7.773  20.218  0.00  0.00    +0.000 A 
ENDBRANCH  12  13
ENDBRANCH  11  12
ENDBRANCH   3  11
TORSDOF 5
ENDMDL
MODEL 7
REMARK VINA RESULT:      -6.6      2.569      3.282
REMARK  Name = 
REMARK  5 active torsions:
REMARK  status: ('A' for Active; 'I' for Inactive)
REMARK    1  A    between atoms: C_2  and  OXT_3
REMARK    2  A    between atoms: C_2  and  CA_4
REMARK    3  A    between atoms: C_6  and  C_7
REMARK    4  A    between atoms: C_7  and  O_8
REMARK    5  A    between atoms: O_8  and  C_9
REMARK                            x       y       z     vdW  Elec       q    Type
REMARK                         _______ _______ _______ _____ _____    ______ ____
ROOT
ATOM      1  CA  UNL     1       6.910   5.946  17.399  0.00  0.00    +0.000 C 
ATOM      2  C   UNL     1       5.685   5.219  17.914  0.00  0.00    +0.000 C 
ATOM      3  C   UNL     1       5.197   4.488  16.671  0.00  0.00    +0.000 C 
ATOM      4  C   UNL     1       6.476   4.167  15.894  0.00  0.00    +0.000 C 
ATOM      5  N   UNL     1       7.572   4.890  16.575  0.00  0.00    +0.000 NA
ATOM      6  H   UNL     1       8.160   5.339  15.866  0.00  0.00    +0.000 HD
ENDROOT
BRANCH   1   8
ATOM      7  O   UNL     1       8.369   7.482  18.608  0.00  0.00    +0.000 OA
ATOM      8  C   UNL     1       7.831   6.387  18.532  0.00  0.00    +0.000 C 
BRANCH   8   9
ATOM      9  OXT UNL     1       7.963   5.421  19.476  0.00  0.00    +0.000 OA
ATOM     10  HXT UNL     1       8.341   4.633  19.013  0.00  0.00    +0.000 HD
ENDBRANCH   8   9
ENDBRANCH   1   8
BRANCH   3  11
ATOM     11  C   UNL     1       4.323   3.281  16.994  0.00  0.00    +0.000 C 
BRANCH  11  12
ATOM     12  O   UNL     1       2.946   3.666  16.946  0.00  0.00    +0.000 OA
BRANCH  12  13
ATOM     13  C   UNL     1       2.285   3.689  18.147  0.00  0.00    +0.000 A 
ATOM     14  C   UNL     1       1.705   2.582  18.772  0.00  0.00    +0.000 A 
ATOM     15  C   UNL     1       1.079   2.714  20.015  0.00  0.00    +0.000 A 
ATOM     16  C   UNL     1       1.025   3.960  20.640  0.00  0.00    +0.000 A 
ATOM     17  C   UNL     1       1.610   5.062  20.024  0.00  0.00    +0.000 A 
ATOM     18 CL   UNL     1       1.546   6.600  20.796  0.00  0.00    +0.000 Cl
ATOM     19  C   UNL     1       2.245   4.932  18.787  0.00  0.00    +0.000 A 
ENDBRANCH  12  13
ENDBRANCH  11  12
ENDBRANCH   3  11
TORSDOF 5
ENDMDL
MODEL 8
REMARK VINA RESULT:      -6.5      1.916      2.559
REMARK  Name = 
REMARK  5 active torsions:
REMARK  status: ('A' for Active; 'I' for Inactive)
REMARK    1  A    between atoms: C_2  and  OXT_3
REMARK    2  A    between atoms: C_2  and  CA_4
REMARK    3  A    between atoms: C_6  and  C_7
REMARK    4  A    between atoms: C_7  and  O_8
REMARK    5  A    between atoms: O_8  and  C_9
REMARK                            x       y       z     vdW  Elec       q    Type
REMARK                         _______ _______ _______ _____ _____    ______ ____
ROOT
ATOM      1  CA  UNL     1       7.102   5.595  15.602  0.00  0.00    +0.000 C 
ATOM      2  C   UNL     1       7.156   4.766  16.868  0.00  0.00    +0.000 C 
ATOM      3  C   UNL     1       6.837   5.797  17.942  0.00  0.00    +0.000 C 
ATOM      4  C   UNL     1       5.883   6.777  17.255  0.00  0.00    +0.000 C 
ATOM      5  N   UNL     1       5.873   6.415  15.821  0.00  0.00    +0.000 NA
ATOM      6  H   UNL     1       5.940   7.273  15.265  0.00  0.00    +0.000 HD
ENDROOT
BRANCH   1   8
ATOM      7  O   UNL     1       6.278   3.702  14.300  0.00  0.00    +0.000 OA
ATOM      8  C   UNL     1       6.943   4.727  14.357  0.00  0.00    +0.000 C 
BRANCH   8   9
ATOM      9  OXT UNL     1       7.610   5.246  13.295  0.00  0.00    +0.000 OA
ATOM     10  HXT UNL     1       8.244   4.547  12.999  0.00  0.00    +0.000 HD
ENDBRANCH   8   9
ENDBRANCH   1   8
BRANCH   3  11
ATOM     11  C   UNL     1       6.302   5.173  19.227  0.00  0.00    +0.000 C 
BRANCH  11  12
ATOM     12  O   UNL     1       5.724   3.898  18.930  0.00  0.00    +0.000 OA
BRANCH  12  13
ATOM     13  C   UNL     1       4.379   3.895  18.661  0.00  0.00    +0.000 A 
ATOM     14  C   UNL     1       3.784   3.342  17.524  0.00  0.00    +0.000 A 
ATOM     15  C   UNL     1       2.395   3.368  17.366  0.00  0.00    +0.000 A 
ATOM     16  C   UNL     1       1.592   3.955  18.343  0.00  0.00    +0.000 A 
ATOM     17  C   UNL     1       2.182   4.498  19.480  0.00  0.00    +0.000 A 
ATOM     18 CL   UNL     1       1.191   5.220  20.690  0.00  0.00    +0.000 Cl
ATOM     19  C   UNL     1       3.569   4.465  19.647  0.00  0.00    +0.000 A 
ENDBRANCH  12  13
ENDBRANCH  11  12
ENDBRANCH   3  11
TORSDOF 5
ENDMDL
MODEL 9
REMARK VINA RESULT:      -6.5      1.710      2.229
REMARK  Name = 
REMARK  5 active torsions:
REMARK  status: ('A' for Active; 'I' for Inactive)
REMARK    1  A    between atoms: C_2  and  OXT_3
REMARK    2  A    between atoms: C_2  and  CA_4
REMARK    3  A    between atoms: C_6  and  C_7
REMARK    4  A    between atoms: C_7  and  O_8
REMARK    5  A    between atoms: O_8  and  C_9
REMARK                            x       y       z     vdW  Elec       q    Type
REMARK                         _______ _______ _______ _____ _____    ______ ____
ROOT
ATOM      1  CA  UNL     1       6.935   5.482  15.532  0.00  0.00    +0.000 C 
ATOM      2  C   UNL     1       6.887   4.680  16.816  0.00  0.00    +0.000 C 
ATOM      3  C   UNL     1       6.556   5.748  17.850  0.00  0.00    +0.000 C 
ATOM      4  C   UNL     1       5.682   6.750  17.094  0.00  0.00    +0.000 C 
ATOM      5  N   UNL     1       5.731   6.357  15.669  0.00  0.00    +0.000 NA
ATOM      6  H   UNL     1       5.864   7.199  15.099  0.00  0.00    +0.000 HD
ENDROOT
BRANCH   1   8
ATOM      7  O   UNL     1       7.240   4.868  13.190  0.00  0.00    +0.000 OA
ATOM      8  C   UNL     1       6.804   4.593  14.299  0.00  0.00    +0.000 C 
BRANCH   8   9
ATOM      9  OXT UNL     1       6.164   3.430  14.584  0.00  0.00    +0.000 OA
ATOM     10  HXT UNL     1       6.831   2.850  15.027  0.00  0.00    +0.000 HD
ENDBRANCH   8   9
ENDBRANCH   1   8
BRANCH   3  11
ATOM     11  C   UNL     1       5.928   5.176  19.117  0.00  0.00    +0.000 C 
BRANCH  11  12
ATOM     12  O   UNL     1       4.522   5.437  19.109  0.00  0.00    +0.000 OA
BRANCH  12  13
ATOM     13  C   UNL     1       3.705   4.338  19.040  0.00  0.00    +0.000 A 
ATOM     14  C   UNL     1       3.559   3.508  17.925  0.00  0.00    +0.000 A 
ATOM     15  C   UNL     1       2.718   2.392  17.976  0.00  0.00    +0.000 A 
ATOM     16  C   UNL     1       2.013   2.102  19.143  0.00  0.00    +0.000 A 
ATOM     17  C   UNL     1       2.165   2.921  20.258  0.00  0.00    +0.000 A 
ATOM     18 CL   UNL     1       1.296   2.562  21.701  0.00  0.00    +0.000 Cl
ATOM     19  C   UNL     1       3.011   4.031  20.214  0.00  0.00    +0.000 A 
ENDBRANCH  12  13
ENDBRANCH  11  12
ENDBRANCH   3  11
TORSDOF 5
ENDMDL
