MODEL 1
REMARK VINA RESULT:      -7.3      0.000      0.000
REMARK  Name = 
REMARK  10 active torsions:
REMARK  status: ('A' for Active; 'I' for Inactive)
REMARK    1  A    between atoms: C_1  and  O_2
REMARK    2  A    between atoms: O_2  and  C_3
REMARK    3  A    between atoms: C_6  and  O_7
REMARK    4  A    between atoms: O_7  and  C_8
REMARK    5  A    between atoms: C_8  and  C_9
REMARK    6  A    between atoms: C_12  and  S_13
REMARK    7  A    between atoms: S_13  and  C_14
REMARK    8  A    between atoms: C_14  and  C_15
REMARK    9  A    between atoms: C_21  and  C_22
REMARK   10  A    between atoms: N_26  and  C_27
REMARK                            x       y       z     vdW  Elec       q    Type
REMARK                         _______ _______ _______ _____ _____    ______ ____
ROOT
ATOM      1  C   UNL     1       7.576   7.530  17.928  0.00  0.00    +0.000 A 
ATOM      2  N   UNL     1       6.916   7.708  16.796  0.00  0.00    +0.000 NA
ATOM      3  N   UNL     1       6.178   6.578  16.543  0.00  0.00    +0.000 NA
ATOM      4  C   UNL     1       6.382   5.740  17.533  0.00  0.00    +0.000 A 
ATOM      5  N   UNL     1       7.288   6.270  18.409  0.00  0.00    +0.000 N 
ATOM      6  C   UNL     1       7.947   5.624  19.513  0.00  0.00    +0.000 C 
ENDROOT
BRANCH   1   7
ATOM      7  C   UNL     1       8.583   8.461  18.524  0.00  0.00    +0.000 C 
BRANCH   7   8
ATOM      8  O   UNL     1       8.336   9.774  18.014  0.00  0.00    +0.000 OA
BRANCH   8  12
ATOM      9  C   UNL     1      10.503  12.955  19.664  0.00  0.00    +0.000 A 
ATOM     10  C   UNL     1       9.849  13.067  18.434  0.00  0.00    +0.000 A 
ATOM     11  C   UNL     1       9.137  11.986  17.906  0.00  0.00    +0.000 A 
ATOM     12  C   UNL     1       9.094  10.767  18.584  0.00  0.00    +0.000 A 
ATOM     13  C   UNL     1       9.762  10.650  19.806  0.00  0.00    +0.000 A 
ATOM     14  C   UNL     1      10.464  11.739  20.342  0.00  0.00    +0.000 A 
BRANCH   9  16
ATOM     15  C   UNL     1      10.444  14.900  21.009  0.00  0.00    +0.000 C 
ATOM     16  O   UNL     1      11.157  14.077  20.091  0.00  0.00    +0.000 OA
ENDBRANCH   9  16
ENDBRANCH   8  12
ENDBRANCH   7   8
ENDBRANCH   1   7
BRANCH   4  17
ATOM     17  S   UNL     1       5.726   4.148  17.642  0.00  0.00    +0.000 S 
BRANCH  17  18
ATOM     18  C   UNL     1       4.021   4.448  17.089  0.00  0.00    +0.000 C 
BRANCH  18  19
ATOM     19  C   UNL     1       3.264   5.238  18.140  0.00  0.00    +0.000 C 
ATOM     20  O   UNL     1       2.897   4.694  19.183  0.00  0.00    +0.000 OA
ATOM     21  N   UNL     1       3.018   6.545  17.779  0.00  0.00    +0.000 N 
ATOM     22  C   UNL     1       2.396   7.407  18.645  0.00  0.00    +0.000 A 
ATOM     23  N   UNL     1       2.119   7.263  19.916  0.00  0.00    +0.000 NA
ATOM     24  N   UNL     1       1.499   8.380  20.439  0.00  0.00    +0.000 NA
ATOM     25  C   UNL     1       1.308   9.304  19.522  0.00  0.00    +0.000 A 
ATOM     26  S   UNL     1       1.906   8.898  17.966  0.00  0.00    +0.000 S 
ATOM     27  H   UNL     1       3.197   6.870  16.834  0.00  0.00    +0.000 HD
BRANCH  25  28
ATOM     28  C   UNL     1       0.613  10.630  19.830  0.00  0.00    +0.000 C 
ATOM     29  C   UNL     1      -0.853  10.778  19.468  0.00  0.00    +0.000 C 
ATOM     30  C   UNL     1      -0.463  10.636  20.898  0.00  0.00    +0.000 C 
ENDBRANCH  25  28
ENDBRANCH  18  19
ENDBRANCH  17  18
ENDBRANCH   4  17
TORSDOF 8
ENDMDL
MODEL 2
REMARK VINA RESULT:      -7.3      3.558      9.322
REMARK  Name = 
REMARK  10 active torsions:
REMARK  status: ('A' for Active; 'I' for Inactive)
REMARK    1  A    between atoms: C_1  and  O_2
REMARK    2  A    between atoms: O_2  and  C_3
REMARK    3  A    between atoms: C_6  and  O_7
REMARK    4  A    between atoms: O_7  and  C_8
REMARK    5  A    between atoms: C_8  and  C_9
REMARK    6  A    between atoms: C_12  and  S_13
REMARK    7  A    between atoms: S_13  and  C_14
REMARK    8  A    between atoms: C_14  and  C_15
REMARK    9  A    between atoms: C_21  and  C_22
REMARK   10  A    between atoms: N_26  and  C_27
REMARK                            x       y       z     vdW  Elec       q    Type
REMARK                         _______ _______ _______ _____ _____    ______ ____
ROOT
ATOM      1  C   UNL     1       6.417   4.727  16.565  0.00  0.00    +0.000 A 
ATOM      2  N   UNL     1       7.001   5.449  15.623  0.00  0.00    +0.000 NA
ATOM      3  N   UNL     1       7.681   6.478  16.225  0.00  0.00    +0.000 NA
ATOM      4  C   UNL     1       7.522   6.355  17.523  0.00  0.00    +0.000 A 
ATOM      5  N   UNL     1       6.698   5.296  17.789  0.00  0.00    +0.000 N 
ATOM      6  C   UNL     1       6.099   4.924  19.043  0.00  0.00    +0.000 C 
ENDROOT
BRANCH   1   7
ATOM      7  C   UNL     1       5.487   3.575  16.352  0.00  0.00    +0.000 C 
BRANCH   7   8
ATOM      8  O   UNL     1       4.172   4.096  16.141  0.00  0.00    +0.000 OA
BRANCH   8  12
ATOM      9  C   UNL     1       1.682   3.452  19.445  0.00  0.00    +0.000 A 
ATOM     10  C   UNL     1       2.321   2.398  18.786  0.00  0.00    +0.000 A 
ATOM     11  C   UNL     1       3.142   2.644  17.682  0.00  0.00    +0.000 A 
ATOM     12  C   UNL     1       3.313   3.943  17.201  0.00  0.00    +0.000 A 
ATOM     13  C   UNL     1       2.662   4.995  17.851  0.00  0.00    +0.000 A 
ATOM     14  C   UNL     1       1.849   4.749  18.967  0.00  0.00    +0.000 A 
BRANCH   9  16
ATOM     15  C   UNL     1       1.620   2.613  21.656  0.00  0.00    +0.000 C 
ATOM     16  O   UNL     1       0.913   3.099  20.520  0.00  0.00    +0.000 OA
ENDBRANCH   9  16
ENDBRANCH   8  12
ENDBRANCH   7   8
ENDBRANCH   1   7
BRANCH   4  17
ATOM     17  S   UNL     1       8.131   7.447  18.710  0.00  0.00    +0.000 S 
BRANCH  17  18
ATOM     18  C   UNL     1       8.002   9.023  17.814  0.00  0.00    +0.000 C 
BRANCH  18  19
ATOM     19  C   UNL     1       8.824  10.089  18.515  0.00  0.00    +0.000 C 
ATOM     20  O   UNL     1       9.432   9.824  19.553  0.00  0.00    +0.000 OA
ATOM     21  N   UNL     1       8.767  11.323  17.902  0.00  0.00    +0.000 N 
ATOM     22  C   UNL     1       9.502  12.377  18.379  0.00  0.00    +0.000 A 
ATOM     23  N   UNL     1      10.456  12.396  19.276  0.00  0.00    +0.000 NA
ATOM     24  N   UNL     1      10.963  13.666  19.462  0.00  0.00    +0.000 NA
ATOM     25  C   UNL     1      10.341  14.553  18.716  0.00  0.00    +0.000 A 
ATOM     26  S   UNL     1       9.119  13.900  17.703  0.00  0.00    +0.000 S 
ATOM     27  H   UNL     1       8.107  11.506  17.154  0.00  0.00    +0.000 HD
BRANCH  25  28
ATOM     28  C   UNL     1      10.687  16.041  18.753  0.00  0.00    +0.000 C 
ATOM     29  C   UNL     1      11.431  16.639  17.573  0.00  0.00    +0.000 C 
ATOM     30  C   UNL     1       9.989  16.957  17.767  0.00  0.00    +0.000 C 
ENDBRANCH  25  28
ENDBRANCH  18  19
ENDBRANCH  17  18
ENDBRANCH   4  17
TORSDOF 8
ENDMDL
MODEL 3
REMARK VINA RESULT:      -7.1      1.288      1.943
REMARK  Name = 
REMARK  10 active torsions:
REMARK  status: ('A' for Active; 'I' for Inactive)
REMARK    1  A    between atoms: C_1  and  O_2
REMARK    2  A    between atoms: O_2  and  C_3
REMARK    3  A    between atoms: C_6  and  O_7
REMARK    4  A    between atoms: O_7  and  C_8
REMARK    5  A    between atoms: C_8  and  C_9
REMARK    6  A    between atoms: C_12  and  S_13
REMARK    7  A    between atoms: S_13  and  C_14
REMARK    8  A    between atoms: C_14  and  C_15
REMARK    9  A    between atoms: C_21  and  C_22
REMARK   10  A    between atoms: N_26  and  C_27
REMARK                            x       y       z     vdW  Elec       q    Type
REMARK                         _______ _______ _______ _____ _____    ______ ____
ROOT
ATOM      1  C   UNL     1       7.313   6.751  17.891  0.00  0.00    +0.000 A 
ATOM      2  N   UNL     1       7.787   5.884  18.769  0.00  0.00    +0.000 NA
ATOM      3  N   UNL     1       6.944   4.802  18.809  0.00  0.00    +0.000 NA
ATOM      4  C   UNL     1       5.983   5.015  17.940  0.00  0.00    +0.000 A 
ATOM      5  N   UNL     1       6.142   6.246  17.367  0.00  0.00    +0.000 N 
ATOM      6  C   UNL     1       5.223   6.964  16.523  0.00  0.00    +0.000 C 
ENDROOT
BRANCH   1   7
ATOM      7  C   UNL     1       7.856   8.116  17.608  0.00  0.00    +0.000 C 
BRANCH   7   8
ATOM      8  O   UNL     1       8.635   8.530  18.734  0.00  0.00    +0.000 OA
BRANCH   8  12
ATOM      9  C   UNL     1       9.622  12.589  19.028  0.00  0.00    +0.000 A 
ATOM     10  C   UNL     1       9.886  11.688  20.063  0.00  0.00    +0.000 A 
ATOM     11  C   UNL     1       9.540  10.340  19.938  0.00  0.00    +0.000 A 
ATOM     12  C   UNL     1       8.897   9.877  18.789  0.00  0.00    +0.000 A 
ATOM     13  C   UNL     1       8.618  10.781  17.760  0.00  0.00    +0.000 A 
ATOM     14  C   UNL     1       8.978  12.131  17.882  0.00  0.00    +0.000 A 
BRANCH   9  16
ATOM     15  C   UNL     1      10.861  14.085  20.378  0.00  0.00    +0.000 C 
ATOM     16  O   UNL     1      10.013  13.880  19.252  0.00  0.00    +0.000 OA
ENDBRANCH   9  16
ENDBRANCH   8  12
ENDBRANCH   7   8
ENDBRANCH   1   7
BRANCH   4  17
ATOM     17  S   UNL     1       4.637   3.972  17.666  0.00  0.00    +0.000 S 
BRANCH  17  18
ATOM     18  C   UNL     1       4.237   3.484  19.370  0.00  0.00    +0.000 C 
BRANCH  18  19
ATOM     19  C   UNL     1       3.270   4.481  19.983  0.00  0.00    +0.000 C 
ATOM     20  O   UNL     1       2.625   4.183  20.989  0.00  0.00    +0.000 OA
ATOM     21  N   UNL     1       3.182   5.666  19.286  0.00  0.00    +0.000 N 
ATOM     22  C   UNL     1       2.397   6.693  19.744  0.00  0.00    +0.000 A 
ATOM     23  N   UNL     1       1.797   6.838  20.898  0.00  0.00    +0.000 NA
ATOM     24  N   UNL     1       1.112   8.034  20.976  0.00  0.00    +0.000 NA
ATOM     25  C   UNL     1       1.203   8.721  19.858  0.00  0.00    +0.000 A 
ATOM     26  S   UNL     1       2.162   7.980  18.643  0.00  0.00    +0.000 S 
ATOM     27  H   UNL     1       3.612   5.770  18.372  0.00  0.00    +0.000 HD
BRANCH  25  28
ATOM     28  C   UNL     1       0.511  10.070  19.667  0.00  0.00    +0.000 C 
ATOM     29  C   UNL     1       1.255  11.167  18.929  0.00  0.00    +0.000 C 
ATOM     30  C   UNL     1       0.120  10.474  18.259  0.00  0.00    +0.000 C 
ENDBRANCH  25  28
ENDBRANCH  18  19
ENDBRANCH  17  18
ENDBRANCH   4  17
TORSDOF 8
ENDMDL
MODEL 4
REMARK VINA RESULT:      -6.9      4.678      7.377
REMARK  Name = 
REMARK  10 active torsions:
REMARK  status: ('A' for Active; 'I' for Inactive)
REMARK    1  A    between atoms: C_1  and  O_2
REMARK    2  A    between atoms: O_2  and  C_3
REMARK    3  A    between atoms: C_6  and  O_7
REMARK    4  A    between atoms: O_7  and  C_8
REMARK    5  A    between atoms: C_8  and  C_9
REMARK    6  A    between atoms: C_12  and  S_13
REMARK    7  A    between atoms: S_13  and  C_14
REMARK    8  A    between atoms: C_14  and  C_15
REMARK    9  A    between atoms: C_21  and  C_22
REMARK   10  A    between atoms: N_26  and  C_27
REMARK                            x       y       z     vdW  Elec       q    Type
REMARK                         _______ _______ _______ _____ _____    ______ ____
ROOT
ATOM      1  C   UNL     1       2.642   5.699  18.702  0.00  0.00    +0.000 A 
ATOM      2  N   UNL     1       2.754   6.824  18.017  0.00  0.00    +0.000 NA
ATOM      3  N   UNL     1       2.317   7.858  18.806  0.00  0.00    +0.000 NA
ATOM      4  C   UNL     1       1.968   7.352  19.967  0.00  0.00    +0.000 A 
ATOM      5  N   UNL     1       2.110   5.992  19.940  0.00  0.00    +0.000 N 
ATOM      6  C   UNL     1       1.660   5.028  20.909  0.00  0.00    +0.000 C 
ENDROOT
BRANCH   1   7
ATOM      7  C   UNL     1       2.902   4.317  18.191  0.00  0.00    +0.000 C 
BRANCH   7   8
ATOM      8  O   UNL     1       4.244   3.959  18.532  0.00  0.00    +0.000 OA
BRANCH   8  12
ATOM      9  C   UNL     1       6.962   5.077  15.549  0.00  0.00    +0.000 A 
ATOM     10  C   UNL     1       5.838   4.296  15.268  0.00  0.00    +0.000 A 
ATOM     11  C   UNL     1       4.951   3.934  16.286  0.00  0.00    +0.000 A 
ATOM     12  C   UNL     1       5.190   4.321  17.605  0.00  0.00    +0.000 A 
ATOM     13  C   UNL     1       6.323   5.089  17.889  0.00  0.00    +0.000 A 
ATOM     14  C   UNL     1       7.205   5.463  16.865  0.00  0.00    +0.000 A 
BRANCH   9  16
ATOM     15  C   UNL     1       7.311   4.890  13.217  0.00  0.00    +0.000 C 
ATOM     16  O   UNL     1       7.755   5.383  14.477  0.00  0.00    +0.000 OA
ENDBRANCH   9  16
ENDBRANCH   8  12
ENDBRANCH   7   8
ENDBRANCH   1   7
BRANCH   4  17
ATOM     17  S   UNL     1       1.290   8.242  21.279  0.00  0.00    +0.000 S 
BRANCH  17  18
ATOM     18  C   UNL     1       0.353   9.511  20.376  0.00  0.00    +0.000 C 
BRANCH  18  19
ATOM     19  C   UNL     1       0.813  10.895  20.795  0.00  0.00    +0.000 C 
ATOM     20  O   UNL     1       0.750  11.241  21.975  0.00  0.00    +0.000 OA
ATOM     21  N   UNL     1       1.241  11.677  19.743  0.00  0.00    +0.000 N 
ATOM     22  C   UNL     1       1.745  12.933  19.963  0.00  0.00    +0.000 A 
ATOM     23  N   UNL     1       2.082  13.516  21.085  0.00  0.00    +0.000 NA
ATOM     24  N   UNL     1       2.572  14.790  20.878  0.00  0.00    +0.000 NA
ATOM     25  C   UNL     1       2.549  15.119  19.604  0.00  0.00    +0.000 A 
ATOM     26  S   UNL     1       1.966  13.887  18.561  0.00  0.00    +0.000 S 
ATOM     27  H   UNL     1       1.099  11.385  18.782  0.00  0.00    +0.000 HD
BRANCH  25  28
ATOM     28  C   UNL     1       3.009  16.488  19.104  0.00  0.00    +0.000 C 
ATOM     29  C   UNL     1       4.436  16.634  18.611  0.00  0.00    +0.000 C 
ATOM     30  C   UNL     1       3.319  16.636  17.627  0.00  0.00    +0.000 C 
ENDBRANCH  25  28
ENDBRANCH  18  19
ENDBRANCH  17  18
ENDBRANCH   4  17
TORSDOF 8
ENDMDL
MODEL 5
REMARK VINA RESULT:      -6.8      4.927      7.657
REMARK  Name = 
REMARK  10 active torsions:
REMARK  status: ('A' for Active; 'I' for Inactive)
REMARK    1  A    between atoms: C_1  and  O_2
REMARK    2  A    between atoms: O_2  and  C_3
REMARK    3  A    between atoms: C_6  and  O_7
REMARK    4  A    between atoms: O_7  and  C_8
REMARK    5  A    between atoms: C_8  and  C_9
REMARK    6  A    between atoms: C_12  and  S_13
REMARK    7  A    between atoms: S_13  and  C_14
REMARK    8  A    between atoms: C_14  and  C_15
REMARK    9  A    between atoms: C_21  and  C_22
REMARK   10  A    between atoms: N_26  and  C_27
REMARK                            x       y       z     vdW  Elec       q    Type
REMARK                         _______ _______ _______ _____ _____    ______ ____
ROOT
ATOM      1  C   UNL     1       2.649   6.016  18.755  0.00  0.00    +0.000 A 
ATOM      2  N   UNL     1       2.679   7.106  18.008  0.00  0.00    +0.000 NA
ATOM      3  N   UNL     1       2.177   8.150  18.743  0.00  0.00    +0.000 NA
ATOM      4  C   UNL     1       1.870   7.687  19.933  0.00  0.00    +0.000 A 
ATOM      5  N   UNL     1       2.105   6.341  19.980  0.00  0.00    +0.000 N 
ATOM      6  C   UNL     1       1.728   5.404  21.005  0.00  0.00    +0.000 C 
ENDROOT
BRANCH   1   7
ATOM      7  C   UNL     1       3.001   4.629  18.319  0.00  0.00    +0.000 C 
BRANCH   7   8
ATOM      8  O   UNL     1       4.358   4.373  18.691  0.00  0.00    +0.000 OA
BRANCH   8  12
ATOM      9  C   UNL     1       7.022   5.165  15.560  0.00  0.00    +0.000 A 
ATOM     10  C   UNL     1       6.014   4.205  15.445  0.00  0.00    +0.000 A 
ATOM     11  C   UNL     1       5.142   3.958  16.510  0.00  0.00    +0.000 A 
ATOM     12  C   UNL     1       5.285   4.647  17.716  0.00  0.00    +0.000 A 
ATOM     13  C   UNL     1       6.304   5.595  17.836  0.00  0.00    +0.000 A 
ATOM     14  C   UNL     1       7.169   5.851  16.762  0.00  0.00    +0.000 A 
BRANCH   9  16
ATOM     15  C   UNL     1       7.244   4.904  13.219  0.00  0.00    +0.000 C 
ATOM     16  O   UNL     1       7.809   5.332  14.453  0.00  0.00    +0.000 OA
ENDBRANCH   9  16
ENDBRANCH   8  12
ENDBRANCH   7   8
ENDBRANCH   1   7
BRANCH   4  17
ATOM     17  S   UNL     1       1.139   8.601  21.200  0.00  0.00    +0.000 S 
BRANCH  17  18
ATOM     18  C   UNL     1       0.390   9.956  20.248  0.00  0.00    +0.000 C 
BRANCH  18  19
ATOM     19  C   UNL     1       0.573  11.271  20.983  0.00  0.00    +0.000 C 
ATOM     20  O   UNL     1       1.659  11.851  20.960  0.00  0.00    +0.000 OA
ATOM     21  N   UNL     1      -0.550  11.680  21.671  0.00  0.00    +0.000 N 
ATOM     22  C   UNL     1      -0.565  12.879  22.338  0.00  0.00    +0.000 A 
ATOM     23  N   UNL     1       0.292  13.867  22.303  0.00  0.00    +0.000 NA
ATOM     24  N   UNL     1      -0.099  14.917  23.111  0.00  0.00    +0.000 NA
ATOM     25  C   UNL     1      -1.222  14.651  23.744  0.00  0.00    +0.000 A 
ATOM     26  S   UNL     1      -1.905  13.122  23.371  0.00  0.00    +0.000 S 
ATOM     27  H   UNL     1      -1.347  11.064  21.786  0.00  0.00    +0.000 HD
BRANCH  25  28
ATOM     28  C   UNL     1      -1.860  15.634  24.725  0.00  0.00    +0.000 C 
ATOM     29  C   UNL     1      -1.398  15.613  26.171  0.00  0.00    +0.000 C 
ATOM     30  C   UNL     1      -0.988  16.740  25.288  0.00  0.00    +0.000 C 
ENDBRANCH  25  28
ENDBRANCH  18  19
ENDBRANCH  17  18
ENDBRANCH   4  17
TORSDOF 8
ENDMDL
MODEL 6
REMARK VINA RESULT:      -6.8      3.826      7.347
REMARK  Name = 
REMARK  10 active torsions:
REMARK  status: ('A' for Active; 'I' for Inactive)
REMARK    1  A    between atoms: C_1  and  O_2
REMARK    2  A    between atoms: O_2  and  C_3
REMARK    3  A    between atoms: C_6  and  O_7
REMARK    4  A    between atoms: O_7  and  C_8
REMARK    5  A    between atoms: C_8  and  C_9
REMARK    6  A    between atoms: C_12  and  S_13
REMARK    7  A    between atoms: S_13  and  C_14
REMARK    8  A    between atoms: C_14  and  C_15
REMARK    9  A    between atoms: C_21  and  C_22
REMARK   10  A    between atoms: N_26  and  C_27
REMARK                            x       y       z     vdW  Elec       q    Type
REMARK                         _______ _______ _______ _____ _____    ______ ____
ROOT
ATOM      1  C   UNL     1       2.247   5.690  20.067  0.00  0.00    +0.000 A 
ATOM      2  N   UNL     1       2.406   5.180  21.276  0.00  0.00    +0.000 NA
ATOM      3  N   UNL     1       2.298   3.815  21.189  0.00  0.00    +0.000 NA
ATOM      4  C   UNL     1       2.098   3.512  19.927  0.00  0.00    +0.000 A 
ATOM      5  N   UNL     1       2.013   4.657  19.184  0.00  0.00    +0.000 N 
ATOM      6  C   UNL     1       1.606   4.803  17.812  0.00  0.00    +0.000 C 
ENDROOT
BRANCH   1   7
ATOM      7  C   UNL     1       2.181   7.143  19.717  0.00  0.00    +0.000 C 
BRANCH   7   8
ATOM      8  O   UNL     1       1.367   7.802  20.691  0.00  0.00    +0.000 OA
BRANCH   8  12
ATOM      9  C   UNL     1       0.532  11.787  19.715  0.00  0.00    +0.000 A 
ATOM     10  C   UNL     1       0.870  10.844  18.741  0.00  0.00    +0.000 A 
ATOM     11  C   UNL     1       1.149   9.521  19.098  0.00  0.00    +0.000 A 
ATOM     12  C   UNL     1       1.124   9.128  20.437  0.00  0.00    +0.000 A 
ATOM     13  C   UNL     1       0.802  10.076  21.413  0.00  0.00    +0.000 A 
ATOM     14  C   UNL     1       0.509  11.399  21.052  0.00  0.00    +0.000 A 
BRANCH   9  16
ATOM     15  C   UNL     1      -1.001  13.586  19.614  0.00  0.00    +0.000 C 
ATOM     16  O   UNL     1       0.266  13.047  19.253  0.00  0.00    +0.000 OA
ENDBRANCH   9  16
ENDBRANCH   8  12
ENDBRANCH   7   8
ENDBRANCH   1   7
BRANCH   4  17
ATOM     17  S   UNL     1       1.832   1.922  19.313  0.00  0.00    +0.000 S 
BRANCH  17  18
ATOM     18  C   UNL     1       3.350   1.679  18.343  0.00  0.00    +0.000 C 
BRANCH  18  19
ATOM     19  C   UNL     1       4.418   2.659  18.793  0.00  0.00    +0.000 C 
ATOM     20  O   UNL     1       4.853   2.620  19.944  0.00  0.00    +0.000 OA
ATOM     21  N   UNL     1       4.779   3.567  17.820  0.00  0.00    +0.000 N 
ATOM     22  C   UNL     1       5.775   4.482  18.050  0.00  0.00    +0.000 A 
ATOM     23  N   UNL     1       6.633   4.555  19.035  0.00  0.00    +0.000 NA
ATOM     24  N   UNL     1       7.495   5.624  18.889  0.00  0.00    +0.000 NA
ATOM     25  C   UNL     1       7.221   6.326  17.811  0.00  0.00    +0.000 A 
ATOM     26  S   UNL     1       5.919   5.714  16.875  0.00  0.00    +0.000 S 
ATOM     27  H   UNL     1       4.253   3.646  16.957  0.00  0.00    +0.000 HD
BRANCH  25  28
ATOM     28  C   UNL     1       8.006   7.581  17.430  0.00  0.00    +0.000 C 
ATOM     29  C   UNL     1       7.375   8.936  17.693  0.00  0.00    +0.000 C 
ATOM     30  C   UNL     1       8.502   8.475  18.550  0.00  0.00    +0.000 C 
ENDBRANCH  25  28
ENDBRANCH  18  19
ENDBRANCH  17  18
ENDBRANCH   4  17
TORSDOF 8
ENDMDL
MODEL 7
REMARK VINA RESULT:      -6.7      0.964      1.144
REMARK  Name = 
REMARK  10 active torsions:
REMARK  status: ('A' for Active; 'I' for Inactive)
REMARK    1  A    between atoms: C_1  and  O_2
REMARK    2  A    between atoms: O_2  and  C_3
REMARK    3  A    between atoms: C_6  and  O_7
REMARK    4  A    between atoms: O_7  and  C_8
REMARK    5  A    between atoms: C_8  and  C_9
REMARK    6  A    between atoms: C_12  and  S_13
REMARK    7  A    between atoms: S_13  and  C_14
REMARK    8  A    between atoms: C_14  and  C_15
REMARK    9  A    between atoms: C_21  and  C_22
REMARK   10  A    between atoms: N_26  and  C_27
REMARK                            x       y       z     vdW  Elec       q    Type
REMARK                         _______ _______ _______ _____ _____    ______ ____
ROOT
ATOM      1  C   UNL     1       7.151   7.492  17.544  0.00  0.00    +0.000 A 
ATOM      2  N   UNL     1       6.170   7.505  16.658  0.00  0.00    +0.000 NA
ATOM      3  N   UNL     1       5.364   6.418  16.886  0.00  0.00    +0.000 NA
ATOM      4  C   UNL     1       5.852   5.772  17.920  0.00  0.00    +0.000 A 
ATOM      5  N   UNL     1       7.002   6.379  18.344  0.00  0.00    +0.000 N 
ATOM      6  C   UNL     1       7.962   5.901  19.304  0.00  0.00    +0.000 C 
ENDROOT
BRANCH   1   7
ATOM      7  C   UNL     1       8.317   8.428  17.593  0.00  0.00    +0.000 C 
BRANCH   7   8
ATOM      8  O   UNL     1       8.478   8.871  18.943  0.00  0.00    +0.000 OA
BRANCH   8  12
ATOM      9  C   UNL     1      10.384  12.592  19.178  0.00  0.00    +0.000 A 
ATOM     10  C   UNL     1      10.060  12.005  17.952  0.00  0.00    +0.000 A 
ATOM     11  C   UNL     1       9.429  10.759  17.905  0.00  0.00    +0.000 A 
ATOM     12  C   UNL     1       9.138  10.066  19.082  0.00  0.00    +0.000 A 
ATOM     13  C   UNL     1       9.478  10.646  20.308  0.00  0.00    +0.000 A 
ATOM     14  C   UNL     1      10.099  11.903  20.354  0.00  0.00    +0.000 A 
BRANCH   9  16
ATOM     15  C   UNL     1      10.113  14.936  19.018  0.00  0.00    +0.000 C 
ATOM     16  O   UNL     1      10.989  13.817  19.107  0.00  0.00    +0.000 OA
ENDBRANCH   9  16
ENDBRANCH   8  12
ENDBRANCH   7   8
ENDBRANCH   1   7
BRANCH   4  17
ATOM     17  S   UNL     1       5.229   4.295  18.558  0.00  0.00    +0.000 S 
BRANCH  17  18
ATOM     18  C   UNL     1       3.478   4.440  18.092  0.00  0.00    +0.000 C 
BRANCH  18  19
ATOM     19  C   UNL     1       2.769   5.401  19.029  0.00  0.00    +0.000 C 
ATOM     20  O   UNL     1       2.380   5.019  20.134  0.00  0.00    +0.000 OA
ATOM     21  N   UNL     1       2.589   6.660  18.498  0.00  0.00    +0.000 N 
ATOM     22  C   UNL     1       2.017   7.660  19.242  0.00  0.00    +0.000 A 
ATOM     23  N   UNL     1       1.740   7.698  20.521  0.00  0.00    +0.000 NA
ATOM     24  N   UNL     1       1.181   8.905  20.891  0.00  0.00    +0.000 NA
ATOM     25  C   UNL     1       1.033   9.709  19.860  0.00  0.00    +0.000 A 
ATOM     26  S   UNL     1       1.601   9.071  18.372  0.00  0.00    +0.000 S 
ATOM     27  H   UNL     1       2.779   6.847  17.519  0.00  0.00    +0.000 HD
BRANCH  25  28
ATOM     28  C   UNL     1       0.410  11.099  19.988  0.00  0.00    +0.000 C 
ATOM     29  C   UNL     1       1.333  12.298  20.101  0.00  0.00    +0.000 C 
ATOM     30  C   UNL     1       0.587  12.066  18.834  0.00  0.00    +0.000 C 
ENDBRANCH  25  28
ENDBRANCH  18  19
ENDBRANCH  17  18
ENDBRANCH   4  17
TORSDOF 8
ENDMDL
MODEL 8
REMARK VINA RESULT:      -6.7      1.470      1.933
REMARK  Name = 
REMARK  10 active torsions:
REMARK  status: ('A' for Active; 'I' for Inactive)
REMARK    1  A    between atoms: C_1  and  O_2
REMARK    2  A    between atoms: O_2  and  C_3
REMARK    3  A    between atoms: C_6  and  O_7
REMARK    4  A    between atoms: O_7  and  C_8
REMARK    5  A    between atoms: C_8  and  C_9
REMARK    6  A    between atoms: C_12  and  S_13
REMARK    7  A    between atoms: S_13  and  C_14
REMARK    8  A    between atoms: C_14  and  C_15
REMARK    9  A    between atoms: C_21  and  C_22
REMARK   10  A    between atoms: N_26  and  C_27
REMARK                            x       y       z     vdW  Elec       q    Type
REMARK                         _______ _______ _______ _____ _____    ______ ____
ROOT
ATOM      1  C   UNL     1       7.270   6.657  17.964  0.00  0.00    +0.000 A 
ATOM      2  N   UNL     1       7.492   5.996  19.087  0.00  0.00    +0.000 NA
ATOM      3  N   UNL     1       6.486   5.078  19.257  0.00  0.00    +0.000 NA
ATOM      4  C   UNL     1       5.679   5.177  18.226  0.00  0.00    +0.000 A 
ATOM      5  N   UNL     1       6.101   6.186  17.404  0.00  0.00    +0.000 N 
ATOM      6  C   UNL     1       5.415   6.768  16.281  0.00  0.00    +0.000 C 
ENDROOT
BRANCH   1   7
ATOM      7  C   UNL     1       8.055   7.820  17.447  0.00  0.00    +0.000 C 
BRANCH   7   8
ATOM      8  O   UNL     1       7.454   9.021  17.940  0.00  0.00    +0.000 OA
BRANCH   8  12
ATOM      9  C   UNL     1       9.994  12.216  18.873  0.00  0.00    +0.000 A 
ATOM     10  C   UNL     1       9.046  12.302  17.851  0.00  0.00    +0.000 A 
ATOM     11  C   UNL     1       8.215  11.216  17.558  0.00  0.00    +0.000 A 
ATOM     12  C   UNL     1       8.340  10.018  18.264  0.00  0.00    +0.000 A 
ATOM     13  C   UNL     1       9.300   9.927  19.275  0.00  0.00    +0.000 A 
ATOM     14  C   UNL     1      10.124  11.021  19.577  0.00  0.00    +0.000 A 
BRANCH   9  16
ATOM     15  C   UNL     1      11.830  13.538  18.181  0.00  0.00    +0.000 C 
ATOM     16  O   UNL     1      10.744  13.341  19.081  0.00  0.00    +0.000 OA
ENDBRANCH   9  16
ENDBRANCH   8  12
ENDBRANCH   7   8
ENDBRANCH   1   7
BRANCH   4  17
ATOM     17  S   UNL     1       4.223   4.278  18.008  0.00  0.00    +0.000 S 
BRANCH  17  18
ATOM     18  C   UNL     1       3.815   3.878  19.734  0.00  0.00    +0.000 C 
BRANCH  18  19
ATOM     19  C   UNL     1       2.850   4.908  20.292  0.00  0.00    +0.000 C 
ATOM     20  O   UNL     1       2.131   4.629  21.253  0.00  0.00    +0.000 OA
ATOM     21  N   UNL     1       2.852   6.100  19.600  0.00  0.00    +0.000 N 
ATOM     22  C   UNL     1       2.079   7.153  20.016  0.00  0.00    +0.000 A 
ATOM     23  N   UNL     1       1.412   7.314  21.130  0.00  0.00    +0.000 NA
ATOM     24  N   UNL     1       0.770   8.535  21.175  0.00  0.00    +0.000 NA
ATOM     25  C   UNL     1       0.958   9.225  20.071  0.00  0.00    +0.000 A 
ATOM     26  S   UNL     1       1.965   8.454  18.913  0.00  0.00    +0.000 S 
ATOM     27  H   UNL     1       3.343   6.192  18.717  0.00  0.00    +0.000 HD
BRANCH  25  28
ATOM     28  C   UNL     1       0.332  10.601  19.848  0.00  0.00    +0.000 C 
ATOM     29  C   UNL     1       1.245  11.811  19.795  0.00  0.00    +0.000 C 
ATOM     30  C   UNL     1       0.623  11.310  18.539  0.00  0.00    +0.000 C 
ENDBRANCH  25  28
ENDBRANCH  18  19
ENDBRANCH  17  18
ENDBRANCH   4  17
TORSDOF 8
ENDMDL
MODEL 9
REMARK VINA RESULT:      -6.6      3.742      7.416
REMARK  Name = 
REMARK  10 active torsions:
REMARK  status: ('A' for Active; 'I' for Inactive)
REMARK    1  A    between atoms: C_1  and  O_2
REMARK    2  A    between atoms: O_2  and  C_3
REMARK    3  A    between atoms: C_6  and  O_7
REMARK    4  A    between atoms: O_7  and  C_8
REMARK    5  A    between atoms: C_8  and  C_9
REMARK    6  A    between atoms: C_12  and  S_13
REMARK    7  A    between atoms: S_13  and  C_14
REMARK    8  A    between atoms: C_14  and  C_15
REMARK    9  A    between atoms: C_21  and  C_22
REMARK   10  A    between atoms: N_26  and  C_27
REMARK                            x       y       z     vdW  Elec       q    Type
REMARK                         _______ _______ _______ _____ _____    ______ ____
ROOT
ATOM      1  C   UNL     1       1.776   5.002  20.588  0.00  0.00    +0.000 A 
ATOM      2  N   UNL     1       1.944   4.079  21.520  0.00  0.00    +0.000 NA
ATOM      3  N   UNL     1       2.147   2.871  20.902  0.00  0.00    +0.000 NA
ATOM      4  C   UNL     1       2.122   3.078  19.605  0.00  0.00    +0.000 A 
ATOM      5  N   UNL     1       1.847   4.394  19.353  0.00  0.00    +0.000 N 
ATOM      6  C   UNL     1       1.530   5.014  18.094  0.00  0.00    +0.000 C 
ENDROOT
BRANCH   1   7
ATOM      7  C   UNL     1       1.419   6.437  20.814  0.00  0.00    +0.000 C 
BRANCH   7   8
ATOM      8  O   UNL     1       2.194   7.237  19.916  0.00  0.00    +0.000 OA
BRANCH   8  12
ATOM      9  C   UNL     1       0.635  11.008  18.975  0.00  0.00    +0.000 A 
ATOM     10  C   UNL     1       1.437  10.296  18.079  0.00  0.00    +0.000 A 
ATOM     11  C   UNL     1       1.948   9.041  18.424  0.00  0.00    +0.000 A 
ATOM     12  C   UNL     1       1.690   8.492  19.681  0.00  0.00    +0.000 A 
ATOM     13  C   UNL     1       0.902   9.211  20.583  0.00  0.00    +0.000 A 
ATOM     14  C   UNL     1       0.379  10.464  20.231  0.00  0.00    +0.000 A 
BRANCH   9  16
ATOM     15  C   UNL     1      -1.223  12.308  18.303  0.00  0.00    +0.000 C 
ATOM     16  O   UNL     1       0.180  12.218  18.531  0.00  0.00    +0.000 OA
ENDBRANCH   9  16
ENDBRANCH   8  12
ENDBRANCH   7   8
ENDBRANCH   1   7
BRANCH   4  17
ATOM     17  S   UNL     1       2.264   1.856  18.396  0.00  0.00    +0.000 S 
BRANCH  17  18
ATOM     18  C   UNL     1       4.058   1.873  18.110  0.00  0.00    +0.000 C 
BRANCH  18  19
ATOM     19  C   UNL     1       4.465   3.171  17.436  0.00  0.00    +0.000 C 
ATOM     20  O   UNL     1       3.934   3.516  16.379  0.00  0.00    +0.000 OA
ATOM     21  N   UNL     1       5.471   3.844  18.094  0.00  0.00    +0.000 N 
ATOM     22  C   UNL     1       5.910   5.063  17.645  0.00  0.00    +0.000 A 
ATOM     23  N   UNL     1       5.401   5.853  16.735  0.00  0.00    +0.000 NA
ATOM     24  N   UNL     1       6.137   7.012  16.587  0.00  0.00    +0.000 NA
ATOM     25  C   UNL     1       7.190   7.023  17.375  0.00  0.00    +0.000 A 
ATOM     26  S   UNL     1       7.339   5.642  18.383  0.00  0.00    +0.000 S 
ATOM     27  H   UNL     1       5.977   3.411  18.860  0.00  0.00    +0.000 HD
BRANCH  25  28
ATOM     28  C   UNL     1       8.191   8.177  17.388  0.00  0.00    +0.000 C 
ATOM     29  C   UNL     1       7.749   9.510  17.964  0.00  0.00    +0.000 C 
ATOM     30  C   UNL     1       8.700   8.660  18.733  0.00  0.00    +0.000 C 
ENDBRANCH  25  28
ENDBRANCH  18  19
ENDBRANCH  17  18
ENDBRANCH   4  17
TORSDOF 8
ENDMDL
