MODEL 1
REMARK VINA RESULT:      -6.7      0.000      0.000
REMARK  Name = 
REMARK  5 active torsions:
REMARK  status: ('A' for Active; 'I' for Inactive)
REMARK    1  A    between atoms: C_2  and  C_7
REMARK    2  A    between atoms: N_3  and  C_4
REMARK    3  A    between atoms: C_10  and  S_11
REMARK    4  A    between atoms: S_11  and  C_12
REMARK    5  A    between atoms: C_12  and  C_13
REMARK                            x       y       z     vdW  Elec       q    Type
REMARK                         _______ _______ _______ _____ _____    ______ ____
ROOT
ATOM      1  C   UNL     1       6.323   4.291  14.927  0.00  0.00    +0.000 A 
ATOM      2  C   UNL     1       5.048   3.973  15.408  0.00  0.00    +0.000 A 
ATOM      3  C   UNL     1       4.721   4.203  16.750  0.00  0.00    +0.000 A 
ATOM      4  C   UNL     1       5.663   4.753  17.625  0.00  0.00    +0.000 A 
ATOM      5  C   UNL     1       6.930   5.091  17.135  0.00  0.00    +0.000 A 
ATOM      6  C   UNL     1       7.262   4.862  15.794  0.00  0.00    +0.000 A 
ENDROOT
BRANCH   1   8
ATOM      7  O   UNL     1       7.352   4.830  12.877  0.00  0.00    +0.000 OA
ATOM      8  C   UNL     1       6.624   4.056  13.486  0.00  0.00    +0.000 C 
ATOM      9  N   UNL     1       6.009   2.956  12.915  0.00  0.00    +0.000 N 
ATOM     10  H   UNL     1       5.285   2.474  13.431  0.00  0.00    +0.000 HD
BRANCH   9  11
ATOM     11  C   UNL     1       6.188   2.608  11.541  0.00  0.00    +0.000 C 
ATOM     12  C   UNL     1       7.420   1.874  11.090  0.00  0.00    +0.000 C 
ATOM     13  C   UNL     1       6.097   1.169  11.109  0.00  0.00    +0.000 C 
ENDBRANCH   9  11
ENDBRANCH   1   8
BRANCH   4  14
ATOM     14  S   UNL     1       5.254   5.146  19.317  0.00  0.00    +0.000 S 
BRANCH  14  15
ATOM     15  C   UNL     1       3.494   5.617  19.149  0.00  0.00    +0.000 C 
BRANCH  15  16
ATOM     16  C   UNL     1       2.583   4.586  19.747  0.00  0.00    +0.000 A 
ATOM     17  C   UNL     1       2.632   4.073  21.033  0.00  0.00    +0.000 A 
ATOM     18  S   UNL     1       1.409   2.892  21.255  0.00  0.00    +0.000 S 
ATOM     19  C   UNL     1       0.914   3.131  19.632  0.00  0.00    +0.000 A 
ATOM     20  N   UNL     1       1.593   4.022  18.945  0.00  0.00    +0.000 NA
ENDBRANCH  15  16
ENDBRANCH  14  15
ENDBRANCH   4  14
TORSDOF 5
ENDMDL
MODEL 2
REMARK VINA RESULT:      -6.5      0.964      1.393
REMARK  Name = 
REMARK  5 active torsions:
REMARK  status: ('A' for Active; 'I' for Inactive)
REMARK    1  A    between atoms: C_2  and  C_7
REMARK    2  A    between atoms: N_3  and  C_4
REMARK    3  A    between atoms: C_10  and  S_11
REMARK    4  A    between atoms: S_11  and  C_12
REMARK    5  A    between atoms: C_12  and  C_13
REMARK                            x       y       z     vdW  Elec       q    Type
REMARK                         _______ _______ _______ _____ _____    ______ ____
ROOT
ATOM      1  C   UNL     1       6.365   4.688  14.884  0.00  0.00    +0.000 A 
ATOM      2  C   UNL     1       7.194   4.215  15.907  0.00  0.00    +0.000 A 
ATOM      3  C   UNL     1       6.886   4.480  17.246  0.00  0.00    +0.000 A 
ATOM      4  C   UNL     1       5.746   5.219  17.579  0.00  0.00    +0.000 A 
ATOM      5  C   UNL     1       4.907   5.672  16.555  0.00  0.00    +0.000 A 
ATOM      6  C   UNL     1       5.211   5.410  15.213  0.00  0.00    +0.000 A 
ENDROOT
BRANCH   1   8
ATOM      7  O   UNL     1       7.504   5.065  12.856  0.00  0.00    +0.000 OA
ATOM      8  C   UNL     1       6.712   4.362  13.471  0.00  0.00    +0.000 C 
ATOM      9  N   UNL     1       6.065   3.264  12.932  0.00  0.00    +0.000 N 
ATOM     10  H   UNL     1       5.297   2.847  13.439  0.00  0.00    +0.000 HD
BRANCH   9  11
ATOM     11  C   UNL     1       6.283   2.834  11.587  0.00  0.00    +0.000 C 
ATOM     12  C   UNL     1       7.430   1.924  11.248  0.00  0.00    +0.000 C 
ATOM     13  C   UNL     1       6.025   1.402  11.201  0.00  0.00    +0.000 C 
ENDBRANCH   9  11
ENDBRANCH   1   8
BRANCH   4  14
ATOM     14  S   UNL     1       5.271   5.498  19.277  0.00  0.00    +0.000 S 
BRANCH  14  15
ATOM     15  C   UNL     1       3.507   5.941  19.075  0.00  0.00    +0.000 C 
BRANCH  15  16
ATOM     16  C   UNL     1       2.601   4.834  19.525  0.00  0.00    +0.000 A 
ATOM     17  C   UNL     1       1.908   3.942  18.721  0.00  0.00    +0.000 A 
ATOM     18  S   UNL     1       0.973   2.873  19.680  0.00  0.00    +0.000 S 
ATOM     19  C   UNL     1       1.535   3.675  21.086  0.00  0.00    +0.000 A 
ATOM     20  N   UNL     1       2.364   4.675  20.888  0.00  0.00    +0.000 NA
ENDBRANCH  15  16
ENDBRANCH  14  15
ENDBRANCH   4  14
TORSDOF 5
ENDMDL
MODEL 3
REMARK VINA RESULT:      -6.5      1.065      1.179
REMARK  Name = 
REMARK  5 active torsions:
REMARK  status: ('A' for Active; 'I' for Inactive)
REMARK    1  A    between atoms: C_2  and  C_7
REMARK    2  A    between atoms: N_3  and  C_4
REMARK    3  A    between atoms: C_10  and  S_11
REMARK    4  A    between atoms: S_11  and  C_12
REMARK    5  A    between atoms: C_12  and  C_13
REMARK                            x       y       z     vdW  Elec       q    Type
REMARK                         _______ _______ _______ _____ _____    ______ ____
ROOT
ATOM      1  C   UNL     1       6.287   4.277  14.896  0.00  0.00    +0.000 A 
ATOM      2  C   UNL     1       4.942   4.415  15.255  0.00  0.00    +0.000 A 
ATOM      3  C   UNL     1       4.586   4.646  16.589  0.00  0.00    +0.000 A 
ATOM      4  C   UNL     1       5.570   4.742  17.579  0.00  0.00    +0.000 A 
ATOM      5  C   UNL     1       6.915   4.626  17.213  0.00  0.00    +0.000 A 
ATOM      6  C   UNL     1       7.277   4.394  15.880  0.00  0.00    +0.000 A 
ENDROOT
BRANCH   1   8
ATOM      7  O   UNL     1       7.341   4.861  12.871  0.00  0.00    +0.000 OA
ATOM      8  C   UNL     1       6.627   4.060  13.461  0.00  0.00    +0.000 C 
ATOM      9  N   UNL     1       6.063   2.941  12.873  0.00  0.00    +0.000 N 
ATOM     10  H   UNL     1       5.346   2.432  13.371  0.00  0.00    +0.000 HD
BRANCH   9  11
ATOM     11  C   UNL     1       6.284   2.606  11.501  0.00  0.00    +0.000 C 
ATOM     12  C   UNL     1       7.538   1.893  11.079  0.00  0.00    +0.000 C 
ATOM     13  C   UNL     1       6.225   1.169  11.057  0.00  0.00    +0.000 C 
ENDBRANCH   9  11
ENDBRANCH   1   8
BRANCH   4  14
ATOM     14  S   UNL     1       5.162   5.127  19.273  0.00  0.00    +0.000 S 
BRANCH  14  15
ATOM     15  C   UNL     1       4.626   3.486  19.882  0.00  0.00    +0.000 C 
BRANCH  15  16
ATOM     16  C   UNL     1       3.155   3.272  19.683  0.00  0.00    +0.000 A 
ATOM     17  C   UNL     1       2.551   2.390  18.802  0.00  0.00    +0.000 A 
ATOM     18  S   UNL     1       0.844   2.518  18.903  0.00  0.00    +0.000 S 
ATOM     19  C   UNL     1       1.026   3.740  20.088  0.00  0.00    +0.000 A 
ATOM     20  N   UNL     1       2.261   4.055  20.410  0.00  0.00    +0.000 NA
ENDBRANCH  15  16
ENDBRANCH  14  15
ENDBRANCH   4  14
TORSDOF 5
ENDMDL
MODEL 4
REMARK VINA RESULT:      -6.4      0.814      1.040
REMARK  Name = 
REMARK  5 active torsions:
REMARK  status: ('A' for Active; 'I' for Inactive)
REMARK    1  A    between atoms: C_2  and  C_7
REMARK    2  A    between atoms: N_3  and  C_4
REMARK    3  A    between atoms: C_10  and  S_11
REMARK    4  A    between atoms: S_11  and  C_12
REMARK    5  A    between atoms: C_12  and  C_13
REMARK                            x       y       z     vdW  Elec       q    Type
REMARK                         _______ _______ _______ _____ _____    ______ ____
ROOT
ATOM      1  C   UNL     1       5.866   4.453  14.696  0.00  0.00    +0.000 A 
ATOM      2  C   UNL     1       5.576   5.797  14.954  0.00  0.00    +0.000 A 
ATOM      3  C   UNL     1       5.145   6.198  16.224  0.00  0.00    +0.000 A 
ATOM      4  C   UNL     1       4.999   5.259  17.251  0.00  0.00    +0.000 A 
ATOM      5  C   UNL     1       5.312   3.919  16.997  0.00  0.00    +0.000 A 
ATOM      6  C   UNL     1       5.743   3.514  15.727  0.00  0.00    +0.000 A 
ENDROOT
BRANCH   1   8
ATOM      7  O   UNL     1       7.230   4.725  12.794  0.00  0.00    +0.000 OA
ATOM      8  C   UNL     1       6.348   4.072  13.338  0.00  0.00    +0.000 C 
ATOM      9  N   UNL     1       5.719   2.983  12.761  0.00  0.00    +0.000 N 
ATOM     10  H   UNL     1       4.884   2.611  13.193  0.00  0.00    +0.000 HD
BRANCH   9  11
ATOM     11  C   UNL     1       6.060   2.505  11.458  0.00  0.00    +0.000 C 
ATOM     12  C   UNL     1       7.327   1.728  11.235  0.00  0.00    +0.000 C 
ATOM     13  C   UNL     1       6.002   1.032  11.156  0.00  0.00    +0.000 C 
ENDBRANCH   9  11
ENDBRANCH   1   8
BRANCH   4  14
ATOM     14  S   UNL     1       4.542   5.744  18.907  0.00  0.00    +0.000 S 
BRANCH  14  15
ATOM     15  C   UNL     1       2.716   5.741  18.777  0.00  0.00    +0.000 C 
BRANCH  15  16
ATOM     16  C   UNL     1       2.108   4.585  19.513  0.00  0.00    +0.000 A 
ATOM     17  C   UNL     1       2.259   4.276  20.856  0.00  0.00    +0.000 A 
ATOM     18  S   UNL     1       1.402   2.842  21.241  0.00  0.00    +0.000 S 
ATOM     19  C   UNL     1       0.909   2.722  19.605  0.00  0.00    +0.000 A 
ATOM     20  N   UNL     1       1.336   3.670  18.801  0.00  0.00    +0.000 NA
ENDBRANCH  15  16
ENDBRANCH  14  15
ENDBRANCH   4  14
TORSDOF 5
ENDMDL
MODEL 5
REMARK VINA RESULT:      -6.4      6.509      8.538
REMARK  Name = 
REMARK  5 active torsions:
REMARK  status: ('A' for Active; 'I' for Inactive)
REMARK    1  A    between atoms: C_2  and  C_7
REMARK    2  A    between atoms: N_3  and  C_4
REMARK    3  A    between atoms: C_10  and  S_11
REMARK    4  A    between atoms: S_11  and  C_12
REMARK    5  A    between atoms: C_12  and  C_13
REMARK                            x       y       z     vdW  Elec       q    Type
REMARK                         _______ _______ _______ _____ _____    ______ ____
ROOT
ATOM      1  C   UNL     1       2.180   7.391  19.454  0.00  0.00    +0.000 A 
ATOM      2  C   UNL     1       1.487   7.992  20.510  0.00  0.00    +0.000 A 
ATOM      3  C   UNL     1       0.920   9.262  20.353  0.00  0.00    +0.000 A 
ATOM      4  C   UNL     1       1.039   9.946  19.138  0.00  0.00    +0.000 A 
ATOM      5  C   UNL     1       1.714   9.333  18.076  0.00  0.00    +0.000 A 
ATOM      6  C   UNL     1       2.283   8.062  18.230  0.00  0.00    +0.000 A 
ENDROOT
BRANCH   1   8
ATOM      7  O   UNL     1       3.923   5.806  19.399  0.00  0.00    +0.000 OA
ATOM      8  C   UNL     1       2.745   6.026  19.653  0.00  0.00    +0.000 C 
ATOM      9  N   UNL     1       1.854   5.066  20.098  0.00  0.00    +0.000 N 
ATOM     10  H   UNL     1       0.866   5.280  20.112  0.00  0.00    +0.000 HD
BRANCH   9  11
ATOM     11  C   UNL     1       2.241   3.709  20.323  0.00  0.00    +0.000 C 
ATOM     12  C   UNL     1       2.285   3.145  21.715  0.00  0.00    +0.000 C 
ATOM     13  C   UNL     1       1.219   2.695  20.762  0.00  0.00    +0.000 C 
ENDBRANCH   9  11
ENDBRANCH   1   8
BRANCH   4  14
ATOM     14  S   UNL     1       0.253  11.525  18.868  0.00  0.00    +0.000 S 
BRANCH  14  15
ATOM     15  C   UNL     1      -1.491  11.111  19.236  0.00  0.00    +0.000 C 
BRANCH  15  16
ATOM     16  C   UNL     1      -2.290  10.906  17.983  0.00  0.00    +0.000 A 
ATOM     17  C   UNL     1      -1.923  10.167  16.869  0.00  0.00    +0.000 A 
ATOM     18  S   UNL     1      -3.144  10.247  15.668  0.00  0.00    +0.000 S 
ATOM     19  C   UNL     1      -4.060  11.266  16.696  0.00  0.00    +0.000 A 
ATOM     20  N   UNL     1      -3.521  11.546  17.863  0.00  0.00    +0.000 NA
ENDBRANCH  15  16
ENDBRANCH  14  15
ENDBRANCH   4  14
TORSDOF 5
ENDMDL
MODEL 6
REMARK VINA RESULT:      -6.4      1.129      1.635
REMARK  Name = 
REMARK  5 active torsions:
REMARK  status: ('A' for Active; 'I' for Inactive)
REMARK    1  A    between atoms: C_2  and  C_7
REMARK    2  A    between atoms: N_3  and  C_4
REMARK    3  A    between atoms: C_10  and  S_11
REMARK    4  A    between atoms: S_11  and  C_12
REMARK    5  A    between atoms: C_12  and  C_13
REMARK                            x       y       z     vdW  Elec       q    Type
REMARK                         _______ _______ _______ _____ _____    ______ ____
ROOT
ATOM      1  C   UNL     1       6.405   4.521  14.977  0.00  0.00    +0.000 A 
ATOM      2  C   UNL     1       7.384   4.486  15.976  0.00  0.00    +0.000 A 
ATOM      3  C   UNL     1       7.029   4.642  17.321  0.00  0.00    +0.000 A 
ATOM      4  C   UNL     1       5.692   4.835  17.683  0.00  0.00    +0.000 A 
ATOM      5  C   UNL     1       4.712   4.848  16.684  0.00  0.00    +0.000 A 
ATOM      6  C   UNL     1       5.063   4.692  15.337  0.00  0.00    +0.000 A 
ENDROOT
BRANCH   1   8
ATOM      7  O   UNL     1       7.522   5.159  13.003  0.00  0.00    +0.000 OA
ATOM      8  C   UNL     1       6.820   4.323  13.559  0.00  0.00    +0.000 C 
ATOM      9  N   UNL     1       6.338   3.180  12.946  0.00  0.00    +0.000 N 
ATOM     10  H   UNL     1       5.623   2.637  13.410  0.00  0.00    +0.000 HD
BRANCH   9  11
ATOM     11  C   UNL     1       6.637   2.859  11.586  0.00  0.00    +0.000 C 
ATOM     12  C   UNL     1       7.538   1.703  11.252  0.00  0.00    +0.000 C 
ATOM     13  C   UNL     1       6.070   1.611  10.963  0.00  0.00    +0.000 C 
ENDBRANCH   9  11
ENDBRANCH   1   8
BRANCH   4  14
ATOM     14  S   UNL     1       5.189   4.946  19.392  0.00  0.00    +0.000 S 
BRANCH  14  15
ATOM     15  C   UNL     1       4.649   3.226  19.707  0.00  0.00    +0.000 C 
BRANCH  15  16
ATOM     16  C   UNL     1       3.155   3.096  19.665  0.00  0.00    +0.000 A 
ATOM     17  C   UNL     1       2.406   2.352  18.766  0.00  0.00    +0.000 A 
ATOM     18  S   UNL     1       0.732   2.533  19.087  0.00  0.00    +0.000 S 
ATOM     19  C   UNL     1       1.116   3.593  20.377  0.00  0.00    +0.000 A 
ATOM     20  N   UNL     1       2.395   3.817  20.581  0.00  0.00    +0.000 NA
ENDBRANCH  15  16
ENDBRANCH  14  15
ENDBRANCH   4  14
TORSDOF 5
ENDMDL
MODEL 7
REMARK VINA RESULT:      -6.2      1.366      1.614
REMARK  Name = 
REMARK  5 active torsions:
REMARK  status: ('A' for Active; 'I' for Inactive)
REMARK    1  A    between atoms: C_2  and  C_7
REMARK    2  A    between atoms: N_3  and  C_4
REMARK    3  A    between atoms: C_10  and  S_11
REMARK    4  A    between atoms: S_11  and  C_12
REMARK    5  A    between atoms: C_12  and  C_13
REMARK                            x       y       z     vdW  Elec       q    Type
REMARK                         _______ _______ _______ _____ _____    ______ ____
ROOT
ATOM      1  C   UNL     1       5.863   4.984  15.355  0.00  0.00    +0.000 A 
ATOM      2  C   UNL     1       5.932   4.018  16.364  0.00  0.00    +0.000 A 
ATOM      3  C   UNL     1       5.474   4.308  17.654  0.00  0.00    +0.000 A 
ATOM      4  C   UNL     1       4.941   5.567  17.951  0.00  0.00    +0.000 A 
ATOM      5  C   UNL     1       4.854   6.524  16.934  0.00  0.00    +0.000 A 
ATOM      6  C   UNL     1       5.311   6.239  15.641  0.00  0.00    +0.000 A 
ENDROOT
BRANCH   1   8
ATOM      7  O   UNL     1       7.358   5.131  13.539  0.00  0.00    +0.000 OA
ATOM      8  C   UNL     1       6.336   4.627  13.987  0.00  0.00    +0.000 C 
ATOM      9  N   UNL     1       5.536   3.740  13.288  0.00  0.00    +0.000 N 
ATOM     10  H   UNL     1       4.622   3.510  13.651  0.00  0.00    +0.000 HD
BRANCH   9  11
ATOM     11  C   UNL     1       5.849   3.312  11.961  0.00  0.00    +0.000 C 
ATOM     12  C   UNL     1       5.864   1.851  11.610  0.00  0.00    +0.000 C 
ATOM     13  C   UNL     1       4.774   2.733  11.081  0.00  0.00    +0.000 C 
ENDBRANCH   9  11
ENDBRANCH   1   8
BRANCH   4  14
ATOM     14  S   UNL     1       4.263   5.945  19.558  0.00  0.00    +0.000 S 
BRANCH  14  15
ATOM     15  C   UNL     1       2.472   5.969  19.182  0.00  0.00    +0.000 C 
BRANCH  15  16
ATOM     16  C   UNL     1       1.864   4.602  19.285  0.00  0.00    +0.000 A 
ATOM     17  C   UNL     1       1.588   3.729  18.245  0.00  0.00    +0.000 A 
ATOM     18  S   UNL     1       0.863   2.295  18.842  0.00  0.00    +0.000 S 
ATOM     19  C   UNL     1       0.948   2.937  20.428  0.00  0.00    +0.000 A 
ATOM     20  N   UNL     1       1.476   4.136  20.539  0.00  0.00    +0.000 NA
ENDBRANCH  15  16
ENDBRANCH  14  15
ENDBRANCH   4  14
TORSDOF 5
ENDMDL
MODEL 8
REMARK VINA RESULT:      -6.2      1.142      1.340
REMARK  Name = 
REMARK  5 active torsions:
REMARK  status: ('A' for Active; 'I' for Inactive)
REMARK    1  A    between atoms: C_2  and  C_7
REMARK    2  A    between atoms: N_3  and  C_4
REMARK    3  A    between atoms: C_10  and  S_11
REMARK    4  A    between atoms: S_11  and  C_12
REMARK    5  A    between atoms: C_12  and  C_13
REMARK                            x       y       z     vdW  Elec       q    Type
REMARK                         _______ _______ _______ _____ _____    ______ ____
ROOT
ATOM      1  C   UNL     1       5.846   4.321  14.375  0.00  0.00    +0.000 A 
ATOM      2  C   UNL     1       5.609   5.687  14.568  0.00  0.00    +0.000 A 
ATOM      3  C   UNL     1       5.186   6.162  15.815  0.00  0.00    +0.000 A 
ATOM      4  C   UNL     1       4.994   5.278  16.882  0.00  0.00    +0.000 A 
ATOM      5  C   UNL     1       5.252   3.916  16.692  0.00  0.00    +0.000 A 
ATOM      6  C   UNL     1       5.676   3.436  15.446  0.00  0.00    +0.000 A 
ENDROOT
BRANCH   1   8
ATOM      7  O   UNL     1       7.197   4.481  12.451  0.00  0.00    +0.000 OA
ATOM      8  C   UNL     1       6.322   3.859  13.040  0.00  0.00    +0.000 C 
ATOM      9  N   UNL     1       5.694   2.734  12.535  0.00  0.00    +0.000 N 
ATOM     10  H   UNL     1       4.864   2.385  12.994  0.00  0.00    +0.000 HD
BRANCH   9  11
ATOM     11  C   UNL     1       6.031   2.178  11.263  0.00  0.00    +0.000 C 
ATOM     12  C   UNL     1       7.364   1.520  11.042  0.00  0.00    +0.000 C 
ATOM     13  C   UNL     1       6.120   0.685  11.091  0.00  0.00    +0.000 C 
ENDBRANCH   9  11
ENDBRANCH   1   8
BRANCH   4  14
ATOM     14  S   UNL     1       4.544   5.857  18.510  0.00  0.00    +0.000 S 
BRANCH  14  15
ATOM     15  C   UNL     1       4.655   4.304  19.472  0.00  0.00    +0.000 C 
BRANCH  15  16
ATOM     16  C   UNL     1       3.339   3.941  20.095  0.00  0.00    +0.000 A 
ATOM     17  C   UNL     1       3.014   2.750  20.726  0.00  0.00    +0.000 A 
ATOM     18  S   UNL     1       1.382   2.777  21.252  0.00  0.00    +0.000 S 
ATOM     19  C   UNL     1       1.218   4.350  20.593  0.00  0.00    +0.000 A 
ATOM     20  N   UNL     1       2.287   4.850  20.014  0.00  0.00    +0.000 NA
ENDBRANCH  15  16
ENDBRANCH  14  15
ENDBRANCH   4  14
TORSDOF 5
ENDMDL
MODEL 9
REMARK VINA RESULT:      -6.2      5.852      7.927
REMARK  Name = 
REMARK  5 active torsions:
REMARK  status: ('A' for Active; 'I' for Inactive)
REMARK    1  A    between atoms: C_2  and  C_7
REMARK    2  A    between atoms: N_3  and  C_4
REMARK    3  A    between atoms: C_10  and  S_11
REMARK    4  A    between atoms: S_11  and  C_12
REMARK    5  A    between atoms: C_12  and  C_13
REMARK                            x       y       z     vdW  Elec       q    Type
REMARK                         _______ _______ _______ _____ _____    ______ ____
ROOT
ATOM      1  C   UNL     1       2.366   7.151  19.161  0.00  0.00    +0.000 A 
ATOM      2  C   UNL     1       1.733   7.692  20.286  0.00  0.00    +0.000 A 
ATOM      3  C   UNL     1       1.177   8.976  20.235  0.00  0.00    +0.000 A 
ATOM      4  C   UNL     1       1.247   9.733  19.061  0.00  0.00    +0.000 A 
ATOM      5  C   UNL     1       1.861   9.180  17.932  0.00  0.00    +0.000 A 
ATOM      6  C   UNL     1       2.419   7.896  17.977  0.00  0.00    +0.000 A 
ENDROOT
BRANCH   1   8
ATOM      7  O   UNL     1       4.035   5.584  19.719  0.00  0.00    +0.000 OA
ATOM      8  C   UNL     1       2.921   5.770  19.247  0.00  0.00    +0.000 C 
ATOM      9  N   UNL     1       2.115   4.766  18.739  0.00  0.00    +0.000 N 
ATOM     10  H   UNL     1       1.293   5.017  18.206  0.00  0.00    +0.000 HD
BRANCH   9  11
ATOM     11  C   UNL     1       2.513   3.394  18.737  0.00  0.00    +0.000 C 
ATOM     12  C   UNL     1       2.282   2.527  19.943  0.00  0.00    +0.000 C 
ATOM     13  C   UNL     1       1.473   2.306  18.700  0.00  0.00    +0.000 C 
ENDBRANCH   9  11
ENDBRANCH   1   8
BRANCH   4  14
ATOM     14  S   UNL     1       0.471  11.335  18.929  0.00  0.00    +0.000 S 
BRANCH  14  15
ATOM     15  C   UNL     1      -1.259  10.918  19.358  0.00  0.00    +0.000 C 
BRANCH  15  16
ATOM     16  C   UNL     1      -2.128  10.829  18.138  0.00  0.00    +0.000 A 
ATOM     17  C   UNL     1      -3.314  11.508  17.905  0.00  0.00    +0.000 A 
ATOM     18  S   UNL     1      -3.971  11.063  16.386  0.00  0.00    +0.000 S 
ATOM     19  C   UNL     1      -2.653   9.994  16.153  0.00  0.00    +0.000 A 
ATOM     20  N   UNL     1      -1.766   9.948  17.122  0.00  0.00    +0.000 NA
ENDBRANCH  15  16
ENDBRANCH  14  15
ENDBRANCH   4  14
TORSDOF 5
ENDMDL
