MODEL 1
REMARK VINA RESULT:      -7.9      0.000      0.000
REMARK  Name = 
REMARK  11 active torsions:
REMARK  status: ('A' for Active; 'I' for Inactive)
REMARK    1  A    between atoms: C_1  and  C_2
REMARK    2  A    between atoms: C_2  and  C_3
REMARK    3  A    between atoms: C_2  and  N_4
REMARK    4  A    between atoms: C_2  and  C_5
REMARK    5  A    between atoms: N_7  and  C_8
REMARK    6  A    between atoms: C_8  and  C_9
REMARK    7  A    between atoms: C_8  and  C_18
REMARK    8  A    between atoms: C_9  and  C_10
REMARK    9  A    between atoms: C_10  and  C_11
REMARK   10  A    between atoms: C_11  and  C_12
REMARK   11  A    between atoms: C_27  and  O_28
REMARK                            x       y       z     vdW  Elec       q    Type
REMARK                         _______ _______ _______ _____ _____    ______ ____
ROOT
ATOM      1  C   UNL     1       2.389   6.587  18.496  0.00  0.00    +0.000 C 
ENDROOT
BRANCH   1   2
ATOM      2  C   UNL     1       2.056   7.478  19.694  0.00  0.00    +0.000 C 
ATOM      3  O   UNL     1       2.437   7.135  20.808  0.00  0.00    +0.000 OA
ATOM      4  N   UNL     1       1.295   8.612  19.557  0.00  0.00    +0.000 N 
ATOM      5  C   UNL     1       0.943   9.381  20.746  0.00  0.00    +0.000 C 
ATOM      6  C   UNL     1       0.859  10.799  20.323  0.00  0.00    +0.000 C 
ATOM      7  C   UNL     1      -0.518  10.911  19.063  0.00  0.00    +0.000 C 
ATOM      8  C   UNL     1       0.801  10.568  18.075  0.00  0.00    +0.000 C 
ATOM      9  C   UNL     1       0.767   9.052  18.240  0.00  0.00    +0.000 C 
ATOM     10  C   UNL     1      -0.693  11.863  19.911  0.00  0.00    +0.000 C 
ATOM     11  C   UNL     1      -1.139  12.878  18.884  0.00  0.00    +0.000 C 
ATOM     12  C   UNL     1      -2.451  12.604  19.126  0.00  0.00    +0.000 A 
ATOM     13  C   UNL     1      -3.400  12.316  20.284  0.00  0.00    +0.000 A 
ATOM     14  C   UNL     1      -4.686  11.975  20.012  0.00  0.00    +0.000 A 
ATOM     15  C   UNL     1      -4.980  12.029  18.665  0.00  0.00    +0.000 A 
ATOM     16  C   UNL     1      -3.807  11.831  17.794  0.00  0.00    +0.000 A 
ATOM     17  C   UNL     1      -2.492  11.483  18.567  0.00  0.00    +0.000 A 
BRANCH  11  18
ATOM     18  O   UNL     1      -0.807  12.576  17.375  0.00  0.00    +0.000 OA
ATOM     19  H   UNL     1       0.191  12.697  16.990  0.00  0.00    +0.000 HD
ENDBRANCH  11  18
ENDBRANCH   1   2
BRANCH   1  22
ATOM     20  C   UNL     1       1.704   4.180  18.301  0.00  0.00    +0.000 C 
ATOM     21  O   UNL     1       0.998   4.433  17.334  0.00  0.00    +0.000 OA
ATOM     22  N   UNL     1       2.414   5.185  18.906  0.00  0.00    +0.000 N 
ATOM     23  H   UNL     1       3.020   4.957  19.703  0.00  0.00    +0.000 HD
BRANCH  20  25
ATOM     24  C   UNL     1       1.864   2.698  20.343  0.00  0.00    +0.000 C 
ATOM     25  C   UNL     1       1.785   2.726  18.811  0.00  0.00    +0.000 C 
ATOM     26  C   UNL     1       3.036   2.012  18.264  0.00  0.00    +0.000 C 
BRANCH  25  27
ATOM     27  N   UNL     1       0.587   1.980  18.389  0.00  0.00    +0.000 NA
ATOM     28  H   UNL     1       0.172   2.400  17.523  0.00  0.00    +0.000 HD
ATOM     29  H   UNL     1      -0.145   2.055  19.132  0.00  0.00    +0.000 HD
ENDBRANCH  25  27
ENDBRANCH  20  25
ENDBRANCH   1  22
BRANCH   1  30
ATOM     30  C   UNL     1       3.655   6.946  17.676  0.00  0.00    +0.000 C 
BRANCH  30  31
ATOM     31  C   UNL     1       4.243   5.721  16.948  0.00  0.00    +0.000 C 
BRANCH  31  32
ATOM     32  C   UNL     1       5.541   6.022  16.201  0.00  0.00    +0.000 C 
BRANCH  32  33
ATOM     33  C   UNL     1       6.602   6.425  17.155  0.00  0.00    +0.000 A 
ATOM     34  C   UNL     1       7.022   5.525  18.149  0.00  0.00    +0.000 A 
ATOM     35  C   UNL     1       7.955   5.927  19.096  0.00  0.00    +0.000 A 
ATOM     36  C   UNL     1       8.488   7.217  19.042  0.00  0.00    +0.000 A 
ATOM     37  C   UNL     1       8.091   8.103  18.036  0.00  0.00    +0.000 A 
ATOM     38  C   UNL     1       7.150   7.710  17.094  0.00  0.00    +0.000 A 
ENDBRANCH  32  33
ENDBRANCH  31  32
ENDBRANCH  30  31
ENDBRANCH   1  30
TORSDOF 9
ENDMDL
MODEL 2
REMARK VINA RESULT:      -7.8      1.215      1.865
REMARK  Name = 
REMARK  11 active torsions:
REMARK  status: ('A' for Active; 'I' for Inactive)
REMARK    1  A    between atoms: C_1  and  C_2
REMARK    2  A    between atoms: C_2  and  C_3
REMARK    3  A    between atoms: C_2  and  N_4
REMARK    4  A    between atoms: C_2  and  C_5
REMARK    5  A    between atoms: N_7  and  C_8
REMARK    6  A    between atoms: C_8  and  C_9
REMARK    7  A    between atoms: C_8  and  C_18
REMARK    8  A    between atoms: C_9  and  C_10
REMARK    9  A    between atoms: C_10  and  C_11
REMARK   10  A    between atoms: C_11  and  C_12
REMARK   11  A    between atoms: C_27  and  O_28
REMARK                            x       y       z     vdW  Elec       q    Type
REMARK                         _______ _______ _______ _____ _____    ______ ____
ROOT
ATOM      1  C   UNL     1       2.327   6.436  18.795  0.00  0.00    +0.000 C 
ENDROOT
BRANCH   1   2
ATOM      2  C   UNL     1       1.999   7.358  19.971  0.00  0.00    +0.000 C 
ATOM      3  O   UNL     1       2.348   7.021  21.098  0.00  0.00    +0.000 OA
ATOM      4  N   UNL     1       1.279   8.512  19.801  0.00  0.00    +0.000 N 
ATOM      5  C   UNL     1       0.928   9.312  20.969  0.00  0.00    +0.000 C 
ATOM      6  C   UNL     1       0.898  10.725  20.523  0.00  0.00    +0.000 C 
ATOM      7  C   UNL     1      -0.450  10.860  19.234  0.00  0.00    +0.000 C 
ATOM      8  C   UNL     1       0.877  10.458  18.277  0.00  0.00    +0.000 C 
ATOM      9  C   UNL     1       0.790   8.947  18.466  0.00  0.00    +0.000 C 
ATOM     10  C   UNL     1      -0.611  11.831  20.063  0.00  0.00    +0.000 C 
ATOM     11  C   UNL     1      -1.004  12.842  19.011  0.00  0.00    +0.000 C 
ATOM     12  C   UNL     1      -2.328  12.614  19.231  0.00  0.00    +0.000 A 
ATOM     13  C   UNL     1      -3.309  12.376  20.374  0.00  0.00    +0.000 A 
ATOM     14  C   UNL     1      -4.599  12.072  20.082  0.00  0.00    +0.000 A 
ATOM     15  C   UNL     1      -4.864  12.113  18.729  0.00  0.00    +0.000 A 
ATOM     16  C   UNL     1      -3.682  11.863  17.884  0.00  0.00    +0.000 A 
ATOM     17  C   UNL     1      -2.394  11.486  18.690  0.00  0.00    +0.000 A 
BRANCH  11  18
ATOM     18  O   UNL     1      -0.652  12.504  17.513  0.00  0.00    +0.000 OA
ATOM     19  H   UNL     1      -0.460  13.284  16.797  0.00  0.00    +0.000 HD
ENDBRANCH  11  18
ENDBRANCH   1   2
BRANCH   1  22
ATOM     20  C   UNL     1       1.640   4.047  18.446  0.00  0.00    +0.000 C 
ATOM     21  O   UNL     1       1.204   4.309  17.332  0.00  0.00    +0.000 OA
ATOM     22  N   UNL     1       2.208   5.039  19.204  0.00  0.00    +0.000 N 
ATOM     23  H   UNL     1       2.589   4.803  20.128  0.00  0.00    +0.000 HD
BRANCH  20  25
ATOM     24  C   UNL     1       1.437   2.582  20.496  0.00  0.00    +0.000 C 
ATOM     25  C   UNL     1       1.548   2.597  18.965  0.00  0.00    +0.000 C 
ATOM     26  C   UNL     1       2.800   1.786  18.580  0.00  0.00    +0.000 C 
BRANCH  25  27
ATOM     27  N   UNL     1       0.359   1.937  18.401  0.00  0.00    +0.000 NA
ATOM     28  H   UNL     1       0.450   0.895  18.456  0.00  0.00    +0.000 HD
ATOM     29  H   UNL     1       0.283   2.173  17.385  0.00  0.00    +0.000 HD
ENDBRANCH  25  27
ENDBRANCH  20  25
ENDBRANCH   1  22
BRANCH   1  30
ATOM     30  C   UNL     1       3.666   6.683  18.053  0.00  0.00    +0.000 C 
BRANCH  30  31
ATOM     31  C   UNL     1       4.870   6.095  18.815  0.00  0.00    +0.000 C 
BRANCH  31  32
ATOM     32  C   UNL     1       5.183   4.648  18.435  0.00  0.00    +0.000 C 
BRANCH  32  33
ATOM     33  C   UNL     1       5.709   4.582  17.050  0.00  0.00    +0.000 A 
ATOM     34  C   UNL     1       7.013   5.031  16.780  0.00  0.00    +0.000 A 
ATOM     35  C   UNL     1       7.480   5.049  15.472  0.00  0.00    +0.000 A 
ATOM     36  C   UNL     1       6.660   4.599  14.435  0.00  0.00    +0.000 A 
ATOM     37  C   UNL     1       5.372   4.126  14.708  0.00  0.00    +0.000 A 
ATOM     38  C   UNL     1       4.896   4.118  16.012  0.00  0.00    +0.000 A 
ENDBRANCH  32  33
ENDBRANCH  31  32
ENDBRANCH  30  31
ENDBRANCH   1  30
TORSDOF 9
ENDMDL
MODEL 3
REMARK VINA RESULT:      -7.7      2.194     10.180
REMARK  Name = 
REMARK  11 active torsions:
REMARK  status: ('A' for Active; 'I' for Inactive)
REMARK    1  A    between atoms: C_1  and  C_2
REMARK    2  A    between atoms: C_2  and  C_3
REMARK    3  A    between atoms: C_2  and  N_4
REMARK    4  A    between atoms: C_2  and  C_5
REMARK    5  A    between atoms: N_7  and  C_8
REMARK    6  A    between atoms: C_8  and  C_9
REMARK    7  A    between atoms: C_8  and  C_18
REMARK    8  A    between atoms: C_9  and  C_10
REMARK    9  A    between atoms: C_10  and  C_11
REMARK   10  A    between atoms: C_11  and  C_12
REMARK   11  A    between atoms: C_27  and  O_28
REMARK                            x       y       z     vdW  Elec       q    Type
REMARK                         _______ _______ _______ _____ _____    ______ ____
ROOT
ATOM      1  C   UNL     1       0.098  10.583  18.586  0.00  0.00    +0.000 C 
ENDROOT
BRANCH   1   2
ATOM      2  C   UNL     1       0.605   9.670  19.702  0.00  0.00    +0.000 C 
ATOM      3  O   UNL     1       0.296   9.928  20.861  0.00  0.00    +0.000 OA
ATOM      4  N   UNL     1       1.441   8.613  19.443  0.00  0.00    +0.000 N 
ATOM      5  C   UNL     1       1.956   7.823  20.556  0.00  0.00    +0.000 C 
ATOM      6  C   UNL     1       2.118   6.438  20.054  0.00  0.00    +0.000 C 
ATOM      7  C   UNL     1       3.385   6.501  18.680  0.00  0.00    +0.000 C 
ATOM      8  C   UNL     1       1.961   6.776  17.824  0.00  0.00    +0.000 C 
ATOM      9  C   UNL     1       1.887   8.280  18.065  0.00  0.00    +0.000 C 
ATOM     10  C   UNL     1       3.710   5.531  19.459  0.00  0.00    +0.000 C 
ATOM     11  C   UNL     1       4.146   4.606  18.347  0.00  0.00    +0.000 C 
ATOM     12  C   UNL     1       5.447   4.979  18.493  0.00  0.00    +0.000 A 
ATOM     13  C   UNL     1       6.467   5.294  19.582  0.00  0.00    +0.000 A 
ATOM     14  C   UNL     1       7.692   5.756  19.222  0.00  0.00    +0.000 A 
ATOM     15  C   UNL     1       7.871   5.788  17.855  0.00  0.00    +0.000 A 
ATOM     16  C   UNL     1       6.614   5.925  17.096  0.00  0.00    +0.000 A 
ATOM     17  C   UNL     1       5.348   6.124  17.993  0.00  0.00    +0.000 A 
BRANCH  11  18
ATOM     18  O   UNL     1       3.660   4.947  16.888  0.00  0.00    +0.000 OA
ATOM     19  H   UNL     1       4.092   5.761  16.334  0.00  0.00    +0.000 HD
ENDBRANCH  11  18
ENDBRANCH   1   2
BRANCH   1  22
ATOM     20  C   UNL     1       1.446  12.698  18.672  0.00  0.00    +0.000 C 
ATOM     21  O   UNL     1       2.368  12.166  18.068  0.00  0.00    +0.000 OA
ATOM     22  N   UNL     1       0.310  11.983  18.947  0.00  0.00    +0.000 N 
ATOM     23  H   UNL     1      -0.466  12.447  19.435  0.00  0.00    +0.000 HD
BRANCH  20  25
ATOM     24  C   UNL     1       0.271  14.929  18.861  0.00  0.00    +0.000 C 
ATOM     25  C   UNL     1       1.585  14.174  19.102  0.00  0.00    +0.000 C 
ATOM     26  C   UNL     1       2.689  14.888  18.298  0.00  0.00    +0.000 C 
BRANCH  25  27
ATOM     27  N   UNL     1       1.914  14.249  20.536  0.00  0.00    +0.000 NA
ATOM     28  H   UNL     1       1.576  13.396  21.041  0.00  0.00    +0.000 HD
ATOM     29  H   UNL     1       1.411  15.062  20.963  0.00  0.00    +0.000 HD
ENDBRANCH  25  27
ENDBRANCH  20  25
ENDBRANCH   1  22
BRANCH   1  30
ATOM     30  C   UNL     1      -1.352  10.354  18.087  0.00  0.00    +0.000 C 
BRANCH  30  31
ATOM     31  C   UNL     1      -2.259  11.571  18.357  0.00  0.00    +0.000 C 
BRANCH  31  32
ATOM     32  C   UNL     1      -3.580  11.528  17.590  0.00  0.00    +0.000 C 
BRANCH  32  33
ATOM     33  C   UNL     1      -4.724  11.594  18.531  0.00  0.00    +0.000 A 
ATOM     34  C   UNL     1      -5.889  10.856  18.262  0.00  0.00    +0.000 A 
ATOM     35  C   UNL     1      -6.994  10.980  19.095  0.00  0.00    +0.000 A 
ATOM     36  C   UNL     1      -6.933  11.820  20.209  0.00  0.00    +0.000 A 
ATOM     37  C   UNL     1      -5.764  12.533  20.492  0.00  0.00    +0.000 A 
ATOM     38  C   UNL     1      -4.661  12.423  19.656  0.00  0.00    +0.000 A 
ENDBRANCH  32  33
ENDBRANCH  31  32
ENDBRANCH  30  31
ENDBRANCH   1  30
TORSDOF 9
ENDMDL
MODEL 4
REMARK VINA RESULT:      -7.7      2.224     10.074
REMARK  Name = 
REMARK  11 active torsions:
REMARK  status: ('A' for Active; 'I' for Inactive)
REMARK    1  A    between atoms: C_1  and  C_2
REMARK    2  A    between atoms: C_2  and  C_3
REMARK    3  A    between atoms: C_2  and  N_4
REMARK    4  A    between atoms: C_2  and  C_5
REMARK    5  A    between atoms: N_7  and  C_8
REMARK    6  A    between atoms: C_8  and  C_9
REMARK    7  A    between atoms: C_8  and  C_18
REMARK    8  A    between atoms: C_9  and  C_10
REMARK    9  A    between atoms: C_10  and  C_11
REMARK   10  A    between atoms: C_11  and  C_12
REMARK   11  A    between atoms: C_27  and  O_28
REMARK                            x       y       z     vdW  Elec       q    Type
REMARK                         _______ _______ _______ _____ _____    ______ ____
ROOT
ATOM      1  C   UNL     1       0.027  10.507  18.672  0.00  0.00    +0.000 C 
ENDROOT
BRANCH   1   2
ATOM      2  C   UNL     1       0.582   9.617  19.786  0.00  0.00    +0.000 C 
ATOM      3  O   UNL     1       0.309   9.891  20.950  0.00  0.00    +0.000 OA
ATOM      4  N   UNL     1       1.419   8.565  19.516  0.00  0.00    +0.000 N 
ATOM      5  C   UNL     1       1.981   7.799  20.623  0.00  0.00    +0.000 C 
ATOM      6  C   UNL     1       2.140   6.408  20.138  0.00  0.00    +0.000 C 
ATOM      7  C   UNL     1       3.360   6.461  18.721  0.00  0.00    +0.000 C 
ATOM      8  C   UNL     1       1.905   6.707  17.909  0.00  0.00    +0.000 C 
ATOM      9  C   UNL     1       1.822   8.214  18.129  0.00  0.00    +0.000 C 
ATOM     10  C   UNL     1       3.721   5.507  19.504  0.00  0.00    +0.000 C 
ATOM     11  C   UNL     1       4.130   4.568  18.392  0.00  0.00    +0.000 C 
ATOM     12  C   UNL     1       5.431   4.958  18.489  0.00  0.00    +0.000 A 
ATOM     13  C   UNL     1       6.484   5.301  19.538  0.00  0.00    +0.000 A 
ATOM     14  C   UNL     1       7.690   5.769  19.129  0.00  0.00    +0.000 A 
ATOM     15  C   UNL     1       7.823   5.782  17.756  0.00  0.00    +0.000 A 
ATOM     16  C   UNL     1       6.540   5.892  17.038  0.00  0.00    +0.000 A 
ATOM     17  C   UNL     1       5.302   6.093  17.974  0.00  0.00    +0.000 A 
BRANCH  11  18
ATOM     18  O   UNL     1       3.591   4.881  16.946  0.00  0.00    +0.000 OA
ATOM     19  H   UNL     1       4.010   4.398  16.080  0.00  0.00    +0.000 HD
ENDBRANCH  11  18
ENDBRANCH   1   2
BRANCH   1  22
ATOM     20  C   UNL     1       1.515  12.528  18.659  0.00  0.00    +0.000 C 
ATOM     21  O   UNL     1       2.408  11.898  18.106  0.00  0.00    +0.000 OA
ATOM     22  N   UNL     1       0.328  11.909  18.952  0.00  0.00    +0.000 N 
ATOM     23  H   UNL     1      -0.421  12.453  19.397  0.00  0.00    +0.000 HD
BRANCH  20  25
ATOM     24  C   UNL     1       2.846  14.605  18.106  0.00  0.00    +0.000 C 
ATOM     25  C   UNL     1       1.748  14.014  19.002  0.00  0.00    +0.000 C 
ATOM     26  C   UNL     1       2.196  14.185  20.465  0.00  0.00    +0.000 C 
BRANCH  25  27
ATOM     27  N   UNL     1       0.507  14.778  18.789  0.00  0.00    +0.000 NA
ATOM     28  H   UNL     1      -0.237  14.472  19.459  0.00  0.00    +0.000 HD
ATOM     29  H   UNL     1       0.140  14.580  17.830  0.00  0.00    +0.000 HD
ENDBRANCH  25  27
ENDBRANCH  20  25
ENDBRANCH   1  22
BRANCH   1  30
ATOM     30  C   UNL     1      -1.467  10.326  18.299  0.00  0.00    +0.000 C 
BRANCH  30  31
ATOM     31  C   UNL     1      -2.125  11.654  17.873  0.00  0.00    +0.000 C 
BRANCH  31  32
ATOM     32  C   UNL     1      -3.486  11.472  17.205  0.00  0.00    +0.000 C 
BRANCH  32  33
ATOM     33  C   UNL     1      -4.570  11.559  18.213  0.00  0.00    +0.000 A 
ATOM     34  C   UNL     1      -4.372  12.312  19.383  0.00  0.00    +0.000 A 
ATOM     35  C   UNL     1      -5.351  12.329  20.368  0.00  0.00    +0.000 A 
ATOM     36  C   UNL     1      -6.538  11.617  20.180  0.00  0.00    +0.000 A 
ATOM     37  C   UNL     1      -6.747  10.890  19.003  0.00  0.00    +0.000 A 
ATOM     38  C   UNL     1      -5.765  10.860  18.021  0.00  0.00    +0.000 A 
ENDBRANCH  32  33
ENDBRANCH  31  32
ENDBRANCH  30  31
ENDBRANCH   1  30
TORSDOF 9
ENDMDL
MODEL 5
REMARK VINA RESULT:      -7.6      0.932      1.092
REMARK  Name = 
REMARK  11 active torsions:
REMARK  status: ('A' for Active; 'I' for Inactive)
REMARK    1  A    between atoms: C_1  and  C_2
REMARK    2  A    between atoms: C_2  and  C_3
REMARK    3  A    between atoms: C_2  and  N_4
REMARK    4  A    between atoms: C_2  and  C_5
REMARK    5  A    between atoms: N_7  and  C_8
REMARK    6  A    between atoms: C_8  and  C_9
REMARK    7  A    between atoms: C_8  and  C_18
REMARK    8  A    between atoms: C_9  and  C_10
REMARK    9  A    between atoms: C_10  and  C_11
REMARK   10  A    between atoms: C_11  and  C_12
REMARK   11  A    between atoms: C_27  and  O_28
REMARK                            x       y       z     vdW  Elec       q    Type
REMARK                         _______ _______ _______ _____ _____    ______ ____
ROOT
ATOM      1  C   UNL     1       2.477   6.855  18.860  0.00  0.00    +0.000 C 
ENDROOT
BRANCH   1   2
ATOM      2  C   UNL     1       1.764   7.602  19.988  0.00  0.00    +0.000 C 
ATOM      3  O   UNL     1       1.901   7.202  21.140  0.00  0.00    +0.000 OA
ATOM      4  N   UNL     1       0.933   8.664  19.735  0.00  0.00    +0.000 N 
ATOM      5  C   UNL     1       0.218   9.289  20.842  0.00  0.00    +0.000 C 
ATOM      6  C   UNL     1       0.076  10.724  20.499  0.00  0.00    +0.000 C 
ATOM      7  C   UNL     1      -0.960  10.812  18.944  0.00  0.00    +0.000 C 
ATOM      8  C   UNL     1       0.590  10.685  18.298  0.00  0.00    +0.000 C 
ATOM      9  C   UNL     1       0.692   9.164  18.357  0.00  0.00    +0.000 C 
ATOM     10  C   UNL     1      -1.443  11.664  19.778  0.00  0.00    +0.000 C 
ATOM     11  C   UNL     1      -1.742  12.717  18.735  0.00  0.00    +0.000 C 
ATOM     12  C   UNL     1      -3.033  12.297  18.625  0.00  0.00    +0.000 A 
ATOM     13  C   UNL     1      -4.194  11.819  19.490  0.00  0.00    +0.000 A 
ATOM     14  C   UNL     1      -5.327  11.380  18.885  0.00  0.00    +0.000 A 
ATOM     15  C   UNL     1      -5.291  11.523  17.514  0.00  0.00    +0.000 A 
ATOM     16  C   UNL     1      -3.927  11.516  16.952  0.00  0.00    +0.000 A 
ATOM     17  C   UNL     1      -2.807  11.231  18.007  0.00  0.00    +0.000 A 
BRANCH  11  18
ATOM     18  O   UNL     1      -1.022  12.581  17.341  0.00  0.00    +0.000 OA
ATOM     19  H   UNL     1      -0.423  13.382  16.944  0.00  0.00    +0.000 HD
ENDBRANCH  11  18
ENDBRANCH   1   2
BRANCH   1  22
ATOM     20  C   UNL     1       2.370   4.358  18.627  0.00  0.00    +0.000 C 
ATOM     21  O   UNL     1       1.701   4.457  17.605  0.00  0.00    +0.000 OA
ATOM     22  N   UNL     1       2.785   5.490  19.279  0.00  0.00    +0.000 N 
ATOM     23  H   UNL     1       3.363   5.395  20.123  0.00  0.00    +0.000 HD
BRANCH  20  25
ATOM     24  C   UNL     1       1.603   1.960  18.856  0.00  0.00    +0.000 C 
ATOM     25  C   UNL     1       2.736   2.953  19.149  0.00  0.00    +0.000 C 
ATOM     26  C   UNL     1       2.963   2.966  20.673  0.00  0.00    +0.000 C 
BRANCH  25  27
ATOM     27  N   UNL     1       3.962   2.477  18.488  0.00  0.00    +0.000 NA
ATOM     28  H   UNL     1       4.814   2.850  18.969  0.00  0.00    +0.000 HD
ATOM     29  H   UNL     1       3.991   2.845  17.509  0.00  0.00    +0.000 HD
ENDBRANCH  25  27
ENDBRANCH  20  25
ENDBRANCH   1  22
BRANCH   1  30
ATOM     30  C   UNL     1       3.722   7.536  18.235  0.00  0.00    +0.000 C 
BRANCH  30  31
ATOM     31  C   UNL     1       3.880   7.197  16.739  0.00  0.00    +0.000 C 
BRANCH  31  32
ATOM     32  C   UNL     1       4.887   6.080  16.473  0.00  0.00    +0.000 C 
BRANCH  32  33
ATOM     33  C   UNL     1       6.077   6.240  17.344  0.00  0.00    +0.000 A 
ATOM     34  C   UNL     1       6.324   5.303  18.362  0.00  0.00    +0.000 A 
ATOM     35  C   UNL     1       7.389   5.494  19.233  0.00  0.00    +0.000 A 
ATOM     36  C   UNL     1       8.223   6.604  19.078  0.00  0.00    +0.000 A 
ATOM     37  C   UNL     1       7.993   7.521  18.047  0.00  0.00    +0.000 A 
ATOM     38  C   UNL     1       6.922   7.341  17.181  0.00  0.00    +0.000 A 
ENDBRANCH  32  33
ENDBRANCH  31  32
ENDBRANCH  30  31
ENDBRANCH   1  30
TORSDOF 9
ENDMDL
MODEL 6
REMARK VINA RESULT:      -7.6      1.064      1.932
REMARK  Name = 
REMARK  11 active torsions:
REMARK  status: ('A' for Active; 'I' for Inactive)
REMARK    1  A    between atoms: C_1  and  C_2
REMARK    2  A    between atoms: C_2  and  C_3
REMARK    3  A    between atoms: C_2  and  N_4
REMARK    4  A    between atoms: C_2  and  C_5
REMARK    5  A    between atoms: N_7  and  C_8
REMARK    6  A    between atoms: C_8  and  C_9
REMARK    7  A    between atoms: C_8  and  C_18
REMARK    8  A    between atoms: C_9  and  C_10
REMARK    9  A    between atoms: C_10  and  C_11
REMARK   10  A    between atoms: C_11  and  C_12
REMARK   11  A    between atoms: C_27  and  O_28
REMARK                            x       y       z     vdW  Elec       q    Type
REMARK                         _______ _______ _______ _____ _____    ______ ____
ROOT
ATOM      1  C   UNL     1       2.498   6.649  18.703  0.00  0.00    +0.000 C 
ENDROOT
BRANCH   1   2
ATOM      2  C   UNL     1       1.960   7.462  19.881  0.00  0.00    +0.000 C 
ATOM      3  O   UNL     1       2.190   7.071  21.021  0.00  0.00    +0.000 OA
ATOM      4  N   UNL     1       1.182   8.576  19.691  0.00  0.00    +0.000 N 
ATOM      5  C   UNL     1       0.631   9.266  20.852  0.00  0.00    +0.000 C 
ATOM      6  C   UNL     1       0.551  10.702  20.493  0.00  0.00    +0.000 C 
ATOM      7  C   UNL     1      -0.634  10.838  19.053  0.00  0.00    +0.000 C 
ATOM      8  C   UNL     1       0.827  10.593  18.251  0.00  0.00    +0.000 C 
ATOM      9  C   UNL     1       0.831   9.070  18.334  0.00  0.00    +0.000 C 
ATOM     10  C   UNL     1      -0.968  11.735  19.912  0.00  0.00    +0.000 C 
ATOM     11  C   UNL     1      -1.302  12.790  18.882  0.00  0.00    +0.000 C 
ATOM     12  C   UNL     1      -2.623  12.460  18.916  0.00  0.00    +0.000 A 
ATOM     13  C   UNL     1      -3.716  12.078  19.908  0.00  0.00    +0.000 A 
ATOM     14  C   UNL     1      -4.934  11.710  19.434  0.00  0.00    +0.000 A 
ATOM     15  C   UNL     1      -5.033  11.828  18.063  0.00  0.00    +0.000 A 
ATOM     16  C   UNL     1      -3.739  11.718  17.364  0.00  0.00    +0.000 A 
ATOM     17  C   UNL     1      -2.536  11.370  18.303  0.00  0.00    +0.000 A 
BRANCH  11  18
ATOM     18  O   UNL     1      -0.743  12.582  17.425  0.00  0.00    +0.000 OA
ATOM     19  H   UNL     1       0.006  13.239  17.017  0.00  0.00    +0.000 HD
ENDBRANCH  11  18
ENDBRANCH   1   2
BRANCH   1  22
ATOM     20  C   UNL     1       1.874   4.232  18.443  0.00  0.00    +0.000 C 
ATOM     21  O   UNL     1       1.130   4.498  17.507  0.00  0.00    +0.000 OA
ATOM     22  N   UNL     1       2.574   5.235  19.061  0.00  0.00    +0.000 N 
ATOM     23  H   UNL     1       3.211   4.997  19.831  0.00  0.00    +0.000 HD
BRANCH  20  25
ATOM     24  C   UNL     1       1.920   2.666  20.427  0.00  0.00    +0.000 C 
ATOM     25  C   UNL     1       2.010   2.764  18.898  0.00  0.00    +0.000 C 
ATOM     26  C   UNL     1       3.365   2.171  18.470  0.00  0.00    +0.000 C 
BRANCH  25  27
ATOM     27  N   UNL     1       0.928   1.955  18.311  0.00  0.00    +0.000 NA
ATOM     28  H   UNL     1       0.154   1.812  19.001  0.00  0.00    +0.000 HD
ATOM     29  H   UNL     1       1.296   1.004  18.079  0.00  0.00    +0.000 HD
ENDBRANCH  25  27
ENDBRANCH  20  25
ENDBRANCH   1  22
BRANCH   1  30
ATOM     30  C   UNL     1       3.824   7.128  18.058  0.00  0.00    +0.000 C 
BRANCH  30  31
ATOM     31  C   UNL     1       4.956   6.093  18.218  0.00  0.00    +0.000 C 
BRANCH  31  32
ATOM     32  C   UNL     1       6.174   6.384  17.343  0.00  0.00    +0.000 C 
BRANCH  32  33
ATOM     33  C   UNL     1       6.152   5.532  16.129  0.00  0.00    +0.000 A 
ATOM     34  C   UNL     1       5.159   4.547  15.990  0.00  0.00    +0.000 A 
ATOM     35  C   UNL     1       5.183   3.692  14.896  0.00  0.00    +0.000 A 
ATOM     36  C   UNL     1       6.181   3.830  13.928  0.00  0.00    +0.000 A 
ATOM     37  C   UNL     1       7.152   4.829  14.052  0.00  0.00    +0.000 A 
ATOM     38  C   UNL     1       7.139   5.678  15.151  0.00  0.00    +0.000 A 
ENDBRANCH  32  33
ENDBRANCH  31  32
ENDBRANCH  30  31
ENDBRANCH   1  30
TORSDOF 9
ENDMDL
MODEL 7
REMARK VINA RESULT:      -7.6      3.377      6.086
REMARK  Name = 
REMARK  11 active torsions:
REMARK  status: ('A' for Active; 'I' for Inactive)
REMARK    1  A    between atoms: C_1  and  C_2
REMARK    2  A    between atoms: C_2  and  C_3
REMARK    3  A    between atoms: C_2  and  N_4
REMARK    4  A    between atoms: C_2  and  C_5
REMARK    5  A    between atoms: N_7  and  C_8
REMARK    6  A    between atoms: C_8  and  C_9
REMARK    7  A    between atoms: C_8  and  C_18
REMARK    8  A    between atoms: C_9  and  C_10
REMARK    9  A    between atoms: C_10  and  C_11
REMARK   10  A    between atoms: C_11  and  C_12
REMARK   11  A    between atoms: C_27  and  O_28
REMARK                            x       y       z     vdW  Elec       q    Type
REMARK                         _______ _______ _______ _____ _____    ______ ____
ROOT
ATOM      1  C   UNL     1       1.207   9.891  18.533  0.00  0.00    +0.000 C 
ENDROOT
BRANCH   1   2
ATOM      2  C   UNL     1       1.185  10.787  19.772  0.00  0.00    +0.000 C 
ATOM      3  O   UNL     1       1.056  10.266  20.874  0.00  0.00    +0.000 OA
ATOM      4  N   UNL     1       1.245  12.154  19.671  0.00  0.00    +0.000 N 
ATOM      5  C   UNL     1       1.140  12.962  20.881  0.00  0.00    +0.000 C 
ATOM      6  C   UNL     1       1.962  14.174  20.654  0.00  0.00    +0.000 C 
ATOM      7  C   UNL     1       1.197  15.088  19.212  0.00  0.00    +0.000 C 
ATOM      8  C   UNL     1       2.270  14.062  18.416  0.00  0.00    +0.000 C 
ATOM      9  C   UNL     1       1.354  12.844  18.360  0.00  0.00    +0.000 C 
ATOM     10  C   UNL     1       1.410  15.949  20.144  0.00  0.00    +0.000 C 
ATOM     11  C   UNL     1       1.846  17.054  19.210  0.00  0.00    +0.000 C 
ATOM     12  C   UNL     1       0.593  17.586  19.191  0.00  0.00    +0.000 A 
ATOM     13  C   UNL     1      -0.577  17.879  20.125  0.00  0.00    +0.000 A 
ATOM     14  C   UNL     1      -1.736  18.351  19.599  0.00  0.00    +0.000 A 
ATOM     15  C   UNL     1      -1.649  18.591  18.243  0.00  0.00    +0.000 A 
ATOM     16  C   UNL     1      -0.636  17.767  17.558  0.00  0.00    +0.000 A 
ATOM     17  C   UNL     1       0.050  16.706  18.482  0.00  0.00    +0.000 A 
BRANCH  11  18
ATOM     18  O   UNL     1       2.267  16.643  17.749  0.00  0.00    +0.000 OA
ATOM     19  H   UNL     1       1.695  15.928  17.185  0.00  0.00    +0.000 HD
ENDBRANCH  11  18
ENDBRANCH   1   2
BRANCH   1  22
ATOM     20  C   UNL     1      -1.238  10.159  18.036  0.00  0.00    +0.000 C 
ATOM     21  O   UNL     1      -1.532   9.843  19.182  0.00  0.00    +0.000 OA
ATOM     22  N   UNL     1       0.080  10.210  17.661  0.00  0.00    +0.000 N 
ATOM     23  H   UNL     1       0.315  10.497  16.703  0.00  0.00    +0.000 HD
BRANCH  20  25
ATOM     24  C   UNL     1      -3.729  10.474  17.746  0.00  0.00    +0.000 C 
ATOM     25  C   UNL     1      -2.366  10.504  17.041  0.00  0.00    +0.000 C 
ATOM     26  C   UNL     1      -2.416   9.492  15.881  0.00  0.00    +0.000 C 
BRANCH  25  27
ATOM     27  N   UNL     1      -2.153  11.853  16.490  0.00  0.00    +0.000 NA
ATOM     28  H   UNL     1      -1.892  12.528  17.247  0.00  0.00    +0.000 HD
ATOM     29  H   UNL     1      -3.049  12.203  16.079  0.00  0.00    +0.000 HD
ENDBRANCH  25  27
ENDBRANCH  20  25
ENDBRANCH   1  22
BRANCH   1  30
ATOM     30  C   UNL     1       1.310   8.361  18.767  0.00  0.00    +0.000 C 
BRANCH  30  31
ATOM     31  C   UNL     1       2.593   7.764  18.155  0.00  0.00    +0.000 C 
BRANCH  31  32
ATOM     32  C   UNL     1       3.251   6.704  19.036  0.00  0.00    +0.000 C 
BRANCH  32  33
ATOM     33  C   UNL     1       2.393   5.497  19.119  0.00  0.00    +0.000 A 
ATOM     34  C   UNL     1       1.931   5.057  20.371  0.00  0.00    +0.000 A 
ATOM     35  C   UNL     1       1.197   3.881  20.462  0.00  0.00    +0.000 A 
ATOM     36  C   UNL     1       0.902   3.155  19.306  0.00  0.00    +0.000 A 
ATOM     37  C   UNL     1       1.338   3.609  18.057  0.00  0.00    +0.000 A 
ATOM     38  C   UNL     1       2.083   4.777  17.962  0.00  0.00    +0.000 A 
ENDBRANCH  32  33
ENDBRANCH  31  32
ENDBRANCH  30  31
ENDBRANCH   1  30
TORSDOF 9
ENDMDL
MODEL 8
REMARK VINA RESULT:      -7.5      2.442      9.619
REMARK  Name = 
REMARK  11 active torsions:
REMARK  status: ('A' for Active; 'I' for Inactive)
REMARK    1  A    between atoms: C_1  and  C_2
REMARK    2  A    between atoms: C_2  and  C_3
REMARK    3  A    between atoms: C_2  and  N_4
REMARK    4  A    between atoms: C_2  and  C_5
REMARK    5  A    between atoms: N_7  and  C_8
REMARK    6  A    between atoms: C_8  and  C_9
REMARK    7  A    between atoms: C_8  and  C_18
REMARK    8  A    between atoms: C_9  and  C_10
REMARK    9  A    between atoms: C_10  and  C_11
REMARK   10  A    between atoms: C_11  and  C_12
REMARK   11  A    between atoms: C_27  and  O_28
REMARK                            x       y       z     vdW  Elec       q    Type
REMARK                         _______ _______ _______ _____ _____    ______ ____
ROOT
ATOM      1  C   UNL     1       0.212  10.647  18.751  0.00  0.00    +0.000 C 
ENDROOT
BRANCH   1   2
ATOM      2  C   UNL     1       0.661   9.639  19.810  0.00  0.00    +0.000 C 
ATOM      3  O   UNL     1       0.301   9.805  20.971  0.00  0.00    +0.000 OA
ATOM      4  N   UNL     1       1.499   8.598  19.502  0.00  0.00    +0.000 N 
ATOM      5  C   UNL     1       1.957   7.714  20.568  0.00  0.00    +0.000 C 
ATOM      6  C   UNL     1       2.131   6.373  19.961  0.00  0.00    +0.000 C 
ATOM      7  C   UNL     1       3.460   6.534  18.656  0.00  0.00    +0.000 C 
ATOM      8  C   UNL     1       2.079   6.894  17.762  0.00  0.00    +0.000 C 
ATOM      9  C   UNL     1       2.005   8.374  18.123  0.00  0.00    +0.000 C 
ATOM     10  C   UNL     1       3.742   5.499  19.366  0.00  0.00    +0.000 C 
ATOM     11  C   UNL     1       4.221   4.664  18.201  0.00  0.00    +0.000 C 
ATOM     12  C   UNL     1       5.517   5.009  18.436  0.00  0.00    +0.000 A 
ATOM     13  C   UNL     1       6.488   5.222  19.592  0.00  0.00    +0.000 A 
ATOM     14  C   UNL     1       7.732   5.697  19.327  0.00  0.00    +0.000 A 
ATOM     15  C   UNL     1       7.973   5.840  17.977  0.00  0.00    +0.000 A 
ATOM     16  C   UNL     1       6.754   6.053  17.175  0.00  0.00    +0.000 A 
ATOM     17  C   UNL     1       5.449   6.192  18.028  0.00  0.00    +0.000 A 
BRANCH  11  18
ATOM     18  O   UNL     1       3.804   5.129  16.755  0.00  0.00    +0.000 OA
ATOM     19  H   UNL     1       4.545   5.373  16.014  0.00  0.00    +0.000 HD
ENDBRANCH  11  18
ENDBRANCH   1   2
BRANCH   1  22
ATOM     20  C   UNL     1       1.907  12.494  18.632  0.00  0.00    +0.000 C 
ATOM     21  O   UNL     1       2.619  11.827  17.891  0.00  0.00    +0.000 OA
ATOM     22  N   UNL     1       0.718  11.978  19.077  0.00  0.00    +0.000 N 
ATOM     23  H   UNL     1       0.119  12.554  19.681  0.00  0.00    +0.000 HD
BRANCH  20  25
ATOM     24  C   UNL     1       1.188  14.891  18.986  0.00  0.00    +0.000 C 
ATOM     25  C   UNL     1       2.367  13.910  19.038  0.00  0.00    +0.000 C 
ATOM     26  C   UNL     1       3.456  14.437  18.086  0.00  0.00    +0.000 C 
BRANCH  25  27
ATOM     27  N   UNL     1       2.901  13.889  20.410  0.00  0.00    +0.000 NA
ATOM     28  H   UNL     1       2.562  14.718  20.954  0.00  0.00    +0.000 HD
ATOM     29  H   UNL     1       3.943  13.966  20.376  0.00  0.00    +0.000 HD
ENDBRANCH  25  27
ENDBRANCH  20  25
ENDBRANCH   1  22
BRANCH   1  30
ATOM     30  C   UNL     1      -1.302  10.698  18.417  0.00  0.00    +0.000 C 
BRANCH  30  31
ATOM     31  C   UNL     1      -1.876  12.123  18.537  0.00  0.00    +0.000 C 
BRANCH  31  32
ATOM     32  C   UNL     1      -2.897  12.274  19.663  0.00  0.00    +0.000 C 
BRANCH  32  33
ATOM     33  C   UNL     1      -2.271  12.917  20.844  0.00  0.00    +0.000 A 
ATOM     34  C   UNL     1      -1.937  14.281  20.797  0.00  0.00    +0.000 A 
ATOM     35  C   UNL     1      -1.274  14.867  21.868  0.00  0.00    +0.000 A 
ATOM     36  C   UNL     1      -0.964  14.103  22.995  0.00  0.00    +0.000 A 
ATOM     37  C   UNL     1      -1.322  12.752  23.053  0.00  0.00    +0.000 A 
ATOM     38  C   UNL     1      -1.973  12.158  21.980  0.00  0.00    +0.000 A 
ENDBRANCH  32  33
ENDBRANCH  31  32
ENDBRANCH  30  31
ENDBRANCH   1  30
TORSDOF 9
ENDMDL
MODEL 9
REMARK VINA RESULT:      -7.5      3.005      5.839
REMARK  Name = 
REMARK  11 active torsions:
REMARK  status: ('A' for Active; 'I' for Inactive)
REMARK    1  A    between atoms: C_1  and  C_2
REMARK    2  A    between atoms: C_2  and  C_3
REMARK    3  A    between atoms: C_2  and  N_4
REMARK    4  A    between atoms: C_2  and  C_5
REMARK    5  A    between atoms: N_7  and  C_8
REMARK    6  A    between atoms: C_8  and  C_9
REMARK    7  A    between atoms: C_8  and  C_18
REMARK    8  A    between atoms: C_9  and  C_10
REMARK    9  A    between atoms: C_10  and  C_11
REMARK   10  A    between atoms: C_11  and  C_12
REMARK   11  A    between atoms: C_27  and  O_28
REMARK                            x       y       z     vdW  Elec       q    Type
REMARK                         _______ _______ _______ _____ _____    ______ ____
ROOT
ATOM      1  C   UNL     1       0.322  10.590  18.722  0.00  0.00    +0.000 C 
ENDROOT
BRANCH   1   2
ATOM      2  C   UNL     1       0.050  10.229  20.183  0.00  0.00    +0.000 C 
ATOM      3  O   UNL     1       0.500   9.176  20.623  0.00  0.00    +0.000 OA
ATOM      4  N   UNL     1      -0.728  11.022  20.988  0.00  0.00    +0.000 N 
ATOM      5  C   UNL     1      -1.018  10.587  22.350  0.00  0.00    +0.000 C 
ATOM      6  C   UNL     1      -1.140  11.816  23.169  0.00  0.00    +0.000 C 
ATOM      7  C   UNL     1      -2.591  12.782  22.489  0.00  0.00    +0.000 C 
ATOM      8  C   UNL     1      -1.328  13.386  21.552  0.00  0.00    +0.000 C 
ATOM      9  C   UNL     1      -1.338  12.285  20.496  0.00  0.00    +0.000 C 
ATOM     10  C   UNL     1      -2.725  12.735  23.768  0.00  0.00    +0.000 C 
ATOM     11  C   UNL     1      -3.241  14.149  23.901  0.00  0.00    +0.000 C 
ATOM     12  C   UNL     1      -4.533  13.720  23.885  0.00  0.00    +0.000 A 
ATOM     13  C   UNL     1      -5.410  12.600  24.436  0.00  0.00    +0.000 A 
ATOM     14  C   UNL     1      -6.706  12.524  24.038  0.00  0.00    +0.000 A 
ATOM     15  C   UNL     1      -7.079  13.574  23.225  0.00  0.00    +0.000 A 
ATOM     16  C   UNL     1      -5.957  14.174  22.480  0.00  0.00    +0.000 A 
ATOM     17  C   UNL     1      -4.595  13.426  22.669  0.00  0.00    +0.000 A 
BRANCH  11  18
ATOM     18  O   UNL     1      -2.994  15.127  22.692  0.00  0.00    +0.000 OA
ATOM     19  H   UNL     1      -3.279  14.856  21.690  0.00  0.00    +0.000 HD
ENDBRANCH  11  18
ENDBRANCH   1   2
BRANCH   1  22
ATOM     20  C   UNL     1      -1.697  11.102  17.321  0.00  0.00    +0.000 C 
ATOM     21  O   UNL     1      -1.536  12.305  17.483  0.00  0.00    +0.000 OA
ATOM     22  N   UNL     1      -0.820  10.216  17.892  0.00  0.00    +0.000 N 
ATOM     23  H   UNL     1      -0.953   9.210  17.731  0.00  0.00    +0.000 HD
BRANCH  20  25
ATOM     24  C   UNL     1      -4.130  10.416  17.340  0.00  0.00    +0.000 C 
ATOM     25  C   UNL     1      -2.885  10.613  16.465  0.00  0.00    +0.000 C 
ATOM     26  C   UNL     1      -2.569   9.265  15.791  0.00  0.00    +0.000 C 
BRANCH  25  27
ATOM     27  N   UNL     1      -3.194  11.608  15.424  0.00  0.00    +0.000 NA
ATOM     28  H   UNL     1      -2.325  11.899  14.918  0.00  0.00    +0.000 HD
ATOM     29  H   UNL     1      -3.576  12.471  15.874  0.00  0.00    +0.000 HD
ENDBRANCH  25  27
ENDBRANCH  20  25
ENDBRANCH   1  22
BRANCH   1  30
ATOM     30  C   UNL     1       1.648  10.081  18.100  0.00  0.00    +0.000 C 
BRANCH  30  31
ATOM     31  C   UNL     1       1.717   8.541  18.060  0.00  0.00    +0.000 C 
BRANCH  31  32
ATOM     32  C   UNL     1       3.142   7.999  17.957  0.00  0.00    +0.000 C 
BRANCH  32  33
ATOM     33  C   UNL     1       3.122   6.526  17.792  0.00  0.00    +0.000 A 
ATOM     34  C   UNL     1       4.239   5.873  17.244  0.00  0.00    +0.000 A 
ATOM     35  C   UNL     1       4.193   4.504  17.010  0.00  0.00    +0.000 A 
ATOM     36  C   UNL     1       3.045   3.780  17.343  0.00  0.00    +0.000 A 
ATOM     37  C   UNL     1       1.945   4.426  17.915  0.00  0.00    +0.000 A 
ATOM     38  C   UNL     1       1.981   5.796  18.139  0.00  0.00    +0.000 A 
ENDBRANCH  32  33
ENDBRANCH  31  32
ENDBRANCH  30  31
ENDBRANCH   1  30
TORSDOF 9
ENDMDL
