MODEL 1
REMARK VINA RESULT:      -7.6      0.000      0.000
REMARK  Name = 
REMARK  8 active torsions:
REMARK  status: ('A' for Active; 'I' for Inactive)
REMARK    1  A    between atoms: C_1  and  C_2
REMARK    2  A    between atoms: C_2  and  O_3
REMARK    3  A    between atoms: O_3  and  C_4
REMARK    4  A    between atoms: C_4  and  C_6
REMARK    5  A    between atoms: N_10  and  C_11
REMARK    6  A    between atoms: N_19  and  C_20
REMARK    7  A    between atoms: C_23  and  O_24
REMARK    8  A    between atoms: O_24  and  C_25
REMARK                            x       y       z     vdW  Elec       q    Type
REMARK                         _______ _______ _______ _____ _____    ______ ____
ROOT
ATOM      1  C   UNL     1       3.160   6.766  18.340  0.00  0.00    +0.000 A 
ATOM      2  N   UNL     1       3.221   7.736  17.387  0.00  0.00    +0.000 NA
ATOM      3  C   UNL     1       2.574   8.897  17.579  0.00  0.00    +0.000 A 
ATOM      4  N   UNL     1       1.864   9.267  18.648  0.00  0.00    +0.000 NA
ATOM      5  C   UNL     1       1.771   8.286  19.568  0.00  0.00    +0.000 A 
ATOM      6  C   UNL     1       2.328   7.025  19.448  0.00  0.00    +0.000 A 
ATOM      7  C   UNL     1       1.822   6.327  20.562  0.00  0.00    +0.000 A 
ATOM      8  N   UNL     1       1.152   7.098  21.414  0.00  0.00    +0.000 NA
ATOM      9  N   UNL     1       1.146   8.323  20.813  0.00  0.00    +0.000 N 
ENDROOT
BRANCH   1  14
ATOM     10  C   UNL     1       3.364   3.316  17.518  0.00  0.00    +0.000 C 
ATOM     11  C   UNL     1       4.396   2.814  18.532  0.00  0.00    +0.000 C 
ATOM     12  C   UNL     1       4.612   3.797  19.685  0.00  0.00    +0.000 C 
ATOM     13  C   UNL     1       4.882   5.227  19.210  0.00  0.00    +0.000 C 
ATOM     14  N   UNL     1       3.922   5.626  18.186  0.00  0.00    +0.000 N 
ATOM     15  C   UNL     1       3.733   4.720  17.059  0.00  0.00    +0.000 C 
BRANCH  10  16
ATOM     16  C   UNL     1       1.943   3.179  18.046  0.00  0.00    +0.000 C 
ATOM     17  O   UNL     1       1.005   3.849  17.612  0.00  0.00    +0.000 OA
BRANCH  16  18
ATOM     18  O   UNL     1       1.844   2.338  19.106  0.00  0.00    +0.000 OA
BRANCH  18  20
ATOM     19  C   UNL     1       1.655   2.675  21.519  0.00  0.00    +0.000 C 
ATOM     20  C   UNL     1       0.967   2.763  20.167  0.00  0.00    +0.000 C 
ENDBRANCH  18  20
ENDBRANCH  16  18
ENDBRANCH  10  16
ENDBRANCH   1  14
BRANCH   9  21
ATOM     21  C   UNL     1       0.520   9.422  21.464  0.00  0.00    +0.000 A 
ATOM     22  C   UNL     1      -0.261   9.207  22.610  0.00  0.00    +0.000 A 
ATOM     23  C   UNL     1      -0.950  10.272  23.195  0.00  0.00    +0.000 A 
ATOM     24  C   UNL     1      -0.855  11.555  22.657  0.00  0.00    +0.000 A 
ATOM     25  C   UNL     1      -0.059  11.771  21.534  0.00  0.00    +0.000 A 
ATOM     26  C   UNL     1       0.639  10.717  20.954  0.00  0.00    +0.000 A 
BRANCH  24  27
ATOM     27  O   UNL     1      -1.616  12.515  23.263  0.00  0.00    +0.000 OA
ATOM     28  C   UNL     1      -1.138  13.848  23.103  0.00  0.00    +0.000 C 
ENDBRANCH  24  27
ENDBRANCH   9  21
TORSDOF 6
ENDMDL
MODEL 2
REMARK VINA RESULT:      -7.6      2.962      4.489
REMARK  Name = 
REMARK  8 active torsions:
REMARK  status: ('A' for Active; 'I' for Inactive)
REMARK    1  A    between atoms: C_1  and  C_2
REMARK    2  A    between atoms: C_2  and  O_3
REMARK    3  A    between atoms: O_3  and  C_4
REMARK    4  A    between atoms: C_4  and  C_6
REMARK    5  A    between atoms: N_10  and  C_11
REMARK    6  A    between atoms: N_19  and  C_20
REMARK    7  A    between atoms: C_23  and  O_24
REMARK    8  A    between atoms: O_24  and  C_25
REMARK                            x       y       z     vdW  Elec       q    Type
REMARK                         _______ _______ _______ _____ _____    ______ ____
ROOT
ATOM      1  C   UNL     1       3.707   5.387  18.931  0.00  0.00    +0.000 A 
ATOM      2  N   UNL     1       3.208   4.896  20.099  0.00  0.00    +0.000 NA
ATOM      3  C   UNL     1       2.278   5.595  20.770  0.00  0.00    +0.000 A 
ATOM      4  N   UNL     1       1.720   6.756  20.417  0.00  0.00    +0.000 NA
ATOM      5  C   UNL     1       2.251   7.258  19.284  0.00  0.00    +0.000 A 
ATOM      6  C   UNL     1       3.263   6.668  18.548  0.00  0.00    +0.000 A 
ATOM      7  C   UNL     1       3.576   7.635  17.573  0.00  0.00    +0.000 A 
ATOM      8  N   UNL     1       2.739   8.668  17.559  0.00  0.00    +0.000 NA
ATOM      9  N   UNL     1       1.894   8.420  18.602  0.00  0.00    +0.000 N 
ENDROOT
BRANCH   1  14
ATOM     10  C   UNL     1       6.863   4.983  17.353  0.00  0.00    +0.000 C 
ATOM     11  C   UNL     1       6.481   4.223  16.079  0.00  0.00    +0.000 C 
ATOM     12  C   UNL     1       4.980   4.292  15.783  0.00  0.00    +0.000 C 
ATOM     13  C   UNL     1       4.115   3.920  16.989  0.00  0.00    +0.000 C 
ATOM     14  N   UNL     1       4.573   4.607  18.192  0.00  0.00    +0.000 N 
ATOM     15  C   UNL     1       5.993   4.518  18.512  0.00  0.00    +0.000 C 
BRANCH  10  16
ATOM     16  C   UNL     1       6.865   6.488  17.130  0.00  0.00    +0.000 C 
ATOM     17  O   UNL     1       6.266   7.024  16.196  0.00  0.00    +0.000 OA
BRANCH  16  18
ATOM     18  O   UNL     1       7.678   7.157  17.987  0.00  0.00    +0.000 OA
BRANCH  18  20
ATOM     19  C   UNL     1       8.759   9.210  18.754  0.00  0.00    +0.000 C 
ATOM     20  C   UNL     1       7.899   8.549  17.690  0.00  0.00    +0.000 C 
ENDBRANCH  18  20
ENDBRANCH  16  18
ENDBRANCH  10  16
ENDBRANCH   1  14
BRANCH   9  21
ATOM     21  C   UNL     1       0.835   9.327  18.880  0.00  0.00    +0.000 A 
ATOM     22  C   UNL     1      -0.138   9.591  17.903  0.00  0.00    +0.000 A 
ATOM     23  C   UNL     1      -1.125  10.550  18.143  0.00  0.00    +0.000 A 
ATOM     24  C   UNL     1      -1.161  11.239  19.355  0.00  0.00    +0.000 A 
ATOM     25  C   UNL     1      -0.210  10.957  20.333  0.00  0.00    +0.000 A 
ATOM     26  C   UNL     1       0.769   9.995  20.105  0.00  0.00    +0.000 A 
BRANCH  24  27
ATOM     27  O   UNL     1      -2.126  12.201  19.466  0.00  0.00    +0.000 OA
ATOM     28  C   UNL     1      -2.108  12.928  20.692  0.00  0.00    +0.000 C 
ENDBRANCH  24  27
ENDBRANCH   9  21
TORSDOF 6
ENDMDL
MODEL 3
REMARK VINA RESULT:      -7.4      1.485      2.444
REMARK  Name = 
REMARK  8 active torsions:
REMARK  status: ('A' for Active; 'I' for Inactive)
REMARK    1  A    between atoms: C_1  and  C_2
REMARK    2  A    between atoms: C_2  and  O_3
REMARK    3  A    between atoms: O_3  and  C_4
REMARK    4  A    between atoms: C_4  and  C_6
REMARK    5  A    between atoms: N_10  and  C_11
REMARK    6  A    between atoms: N_19  and  C_20
REMARK    7  A    between atoms: C_23  and  O_24
REMARK    8  A    between atoms: O_24  and  C_25
REMARK                            x       y       z     vdW  Elec       q    Type
REMARK                         _______ _______ _______ _____ _____    ______ ____
ROOT
ATOM      1  C   UNL     1       2.612   6.569  18.849  0.00  0.00    +0.000 A 
ATOM      2  N   UNL     1       2.404   5.963  20.050  0.00  0.00    +0.000 NA
ATOM      3  C   UNL     1       1.736   6.615  21.016  0.00  0.00    +0.000 A 
ATOM      4  N   UNL     1       1.191   7.833  20.949  0.00  0.00    +0.000 NA
ATOM      5  C   UNL     1       1.440   8.444  19.773  0.00  0.00    +0.000 A 
ATOM      6  C   UNL     1       2.178   7.905  18.734  0.00  0.00    +0.000 A 
ATOM      7  C   UNL     1       2.293   8.967  17.817  0.00  0.00    +0.000 A 
ATOM      8  N   UNL     1       1.559  10.029  18.138  0.00  0.00    +0.000 NA
ATOM      9  N   UNL     1       1.002   9.694  19.337  0.00  0.00    +0.000 N 
ENDROOT
BRANCH   1  14
ATOM     10  C   UNL     1       3.796   3.466  17.588  0.00  0.00    +0.000 C 
ATOM     11  C   UNL     1       5.049   3.899  16.819  0.00  0.00    +0.000 C 
ATOM     12  C   UNL     1       5.515   5.306  17.202  0.00  0.00    +0.000 C 
ATOM     13  C   UNL     1       4.390   6.343  17.152  0.00  0.00    +0.000 C 
ATOM     14  N   UNL     1       3.195   5.848  17.826  0.00  0.00    +0.000 N 
ATOM     15  C   UNL     1       2.712   4.525  17.445  0.00  0.00    +0.000 C 
BRANCH  10  16
ATOM     16  C   UNL     1       4.122   3.086  19.025  0.00  0.00    +0.000 C 
ATOM     17  O   UNL     1       5.212   3.326  19.546  0.00  0.00    +0.000 OA
BRANCH  16  18
ATOM     18  O   UNL     1       3.141   2.365  19.625  0.00  0.00    +0.000 OA
BRANCH  18  20
ATOM     19  C   UNL     1       1.352   2.818  21.227  0.00  0.00    +0.000 C 
ATOM     20  C   UNL     1       2.850   2.711  20.992  0.00  0.00    +0.000 C 
ENDBRANCH  18  20
ENDBRANCH  16  18
ENDBRANCH  10  16
ENDBRANCH   1  14
BRANCH   9  21
ATOM     21  C   UNL     1       0.122  10.605  19.983  0.00  0.00    +0.000 A 
ATOM     22  C   UNL     1       0.336  10.957  21.324  0.00  0.00    +0.000 A 
ATOM     23  C   UNL     1      -0.580  11.779  21.985  0.00  0.00    +0.000 A 
ATOM     24  C   UNL     1      -1.701  12.269  21.315  0.00  0.00    +0.000 A 
ATOM     25  C   UNL     1      -1.898  11.939  19.976  0.00  0.00    +0.000 A 
ATOM     26  C   UNL     1      -0.983  11.130  19.309  0.00  0.00    +0.000 A 
BRANCH  24  27
ATOM     27  O   UNL     1      -2.568  13.011  22.065  0.00  0.00    +0.000 OA
ATOM     28  C   UNL     1      -2.941  12.423  23.309  0.00  0.00    +0.000 C 
ENDBRANCH  24  27
ENDBRANCH   9  21
TORSDOF 6
ENDMDL
MODEL 4
REMARK VINA RESULT:      -7.4      1.567      2.564
REMARK  Name = 
REMARK  8 active torsions:
REMARK  status: ('A' for Active; 'I' for Inactive)
REMARK    1  A    between atoms: C_1  and  C_2
REMARK    2  A    between atoms: C_2  and  O_3
REMARK    3  A    between atoms: O_3  and  C_4
REMARK    4  A    between atoms: C_4  and  C_6
REMARK    5  A    between atoms: N_10  and  C_11
REMARK    6  A    between atoms: N_19  and  C_20
REMARK    7  A    between atoms: C_23  and  O_24
REMARK    8  A    between atoms: O_24  and  C_25
REMARK                            x       y       z     vdW  Elec       q    Type
REMARK                         _______ _______ _______ _____ _____    ______ ____
ROOT
ATOM      1  C   UNL     1       2.612   6.529  18.826  0.00  0.00    +0.000 A 
ATOM      2  N   UNL     1       2.376   5.960  20.040  0.00  0.00    +0.000 NA
ATOM      3  C   UNL     1       1.725   6.658  20.985  0.00  0.00    +0.000 A 
ATOM      4  N   UNL     1       1.222   7.892  20.885  0.00  0.00    +0.000 NA
ATOM      5  C   UNL     1       1.499   8.465  19.697  0.00  0.00    +0.000 A 
ATOM      6  C   UNL     1       2.225   7.876  18.676  0.00  0.00    +0.000 A 
ATOM      7  C   UNL     1       2.382   8.910  17.735  0.00  0.00    +0.000 A 
ATOM      8  N   UNL     1       1.683  10.005  18.024  0.00  0.00    +0.000 NA
ATOM      9  N   UNL     1       1.108   9.718  19.227  0.00  0.00    +0.000 N 
ENDROOT
BRANCH   1  14
ATOM     10  C   UNL     1       3.697   3.358  17.649  0.00  0.00    +0.000 C 
ATOM     11  C   UNL     1       4.969   3.728  16.879  0.00  0.00    +0.000 C 
ATOM     12  C   UNL     1       5.480   5.128  17.230  0.00  0.00    +0.000 C 
ATOM     13  C   UNL     1       4.391   6.201  17.148  0.00  0.00    +0.000 C 
ATOM     14  N   UNL     1       3.176   5.763  17.826  0.00  0.00    +0.000 N 
ATOM     15  C   UNL     1       2.651   4.449  17.474  0.00  0.00    +0.000 C 
BRANCH  10  16
ATOM     16  C   UNL     1       4.001   3.003  19.097  0.00  0.00    +0.000 C 
ATOM     17  O   UNL     1       5.115   3.155  19.601  0.00  0.00    +0.000 OA
BRANCH  16  18
ATOM     18  O   UNL     1       2.962   2.402  19.732  0.00  0.00    +0.000 OA
BRANCH  18  20
ATOM     19  C   UNL     1       1.405   2.760  21.581  0.00  0.00    +0.000 C 
ATOM     20  C   UNL     1       2.857   2.654  21.146  0.00  0.00    +0.000 C 
ENDBRANCH  18  20
ENDBRANCH  16  18
ENDBRANCH  10  16
ENDBRANCH   1  14
BRANCH   9  21
ATOM     21  C   UNL     1       0.255  10.674  19.845  0.00  0.00    +0.000 A 
ATOM     22  C   UNL     1      -1.026  10.913  19.324  0.00  0.00    +0.000 A 
ATOM     23  C   UNL     1      -1.827  11.916  19.874  0.00  0.00    +0.000 A 
ATOM     24  C   UNL     1      -1.369  12.676  20.950  0.00  0.00    +0.000 A 
ATOM     25  C   UNL     1      -0.107  12.421  21.482  0.00  0.00    +0.000 A 
ATOM     26  C   UNL     1       0.691  11.415  20.946  0.00  0.00    +0.000 A 
BRANCH  24  27
ATOM     27  O   UNL     1      -2.200  13.674  21.374  0.00  0.00    +0.000 OA
ATOM     28  C   UNL     1      -3.587  13.437  21.143  0.00  0.00    +0.000 C 
ENDBRANCH  24  27
ENDBRANCH   9  21
TORSDOF 6
ENDMDL
MODEL 5
REMARK VINA RESULT:      -7.3      2.691      4.200
REMARK  Name = 
REMARK  8 active torsions:
REMARK  status: ('A' for Active; 'I' for Inactive)
REMARK    1  A    between atoms: C_1  and  C_2
REMARK    2  A    between atoms: C_2  and  O_3
REMARK    3  A    between atoms: O_3  and  C_4
REMARK    4  A    between atoms: C_4  and  C_6
REMARK    5  A    between atoms: N_10  and  C_11
REMARK    6  A    between atoms: N_19  and  C_20
REMARK    7  A    between atoms: C_23  and  O_24
REMARK    8  A    between atoms: O_24  and  C_25
REMARK                            x       y       z     vdW  Elec       q    Type
REMARK                         _______ _______ _______ _____ _____    ______ ____
ROOT
ATOM      1  C   UNL     1       2.286   6.130  19.650  0.00  0.00    +0.000 A 
ATOM      2  N   UNL     1       1.792   6.242  20.914  0.00  0.00    +0.000 NA
ATOM      3  C   UNL     1       1.314   7.423  21.338  0.00  0.00    +0.000 A 
ATOM      4  N   UNL     1       1.223   8.561  20.645  0.00  0.00    +0.000 NA
ATOM      5  C   UNL     1       1.755   8.455  19.410  0.00  0.00    +0.000 A 
ATOM      6  C   UNL     1       2.343   7.315  18.890  0.00  0.00    +0.000 A 
ATOM      7  C   UNL     1       2.883   7.746  17.663  0.00  0.00    +0.000 A 
ATOM      8  N   UNL     1       2.532   8.986  17.333  0.00  0.00    +0.000 NA
ATOM      9  N   UNL     1       1.804   9.417  18.403  0.00  0.00    +0.000 N 
ENDROOT
BRANCH   1  14
ATOM     10  C   UNL     1       4.797   4.004  18.309  0.00  0.00    +0.000 C 
ATOM     11  C   UNL     1       3.994   3.165  17.309  0.00  0.00    +0.000 C 
ATOM     12  C   UNL     1       2.633   3.785  16.983  0.00  0.00    +0.000 C 
ATOM     13  C   UNL     1       1.832   4.162  18.232  0.00  0.00    +0.000 C 
ATOM     14  N   UNL     1       2.665   4.887  19.186  0.00  0.00    +0.000 N 
ATOM     15  C   UNL     1       3.948   4.291  19.540  0.00  0.00    +0.000 C 
BRANCH  10  16
ATOM     16  C   UNL     1       5.394   5.241  17.654  0.00  0.00    +0.000 C 
ATOM     17  O   UNL     1       5.347   5.439  16.438  0.00  0.00    +0.000 OA
BRANCH  16  18
ATOM     18  O   UNL     1       6.075   6.033  18.521  0.00  0.00    +0.000 OA
BRANCH  18  20
ATOM     19  C   UNL     1       7.789   7.568  17.699  0.00  0.00    +0.000 C 
ATOM     20  C   UNL     1       7.483   6.190  18.260  0.00  0.00    +0.000 C 
ENDBRANCH  18  20
ENDBRANCH  16  18
ENDBRANCH  10  16
ENDBRANCH   1  14
BRANCH   9  21
ATOM     21  C   UNL     1       1.239  10.722  18.389  0.00  0.00    +0.000 A 
ATOM     22  C   UNL     1       2.075  11.848  18.325  0.00  0.00    +0.000 A 
ATOM     23  C   UNL     1       1.526  13.130  18.404  0.00  0.00    +0.000 A 
ATOM     24  C   UNL     1       0.148  13.302  18.531  0.00  0.00    +0.000 A 
ATOM     25  C   UNL     1      -0.682  12.184  18.568  0.00  0.00    +0.000 A 
ATOM     26  C   UNL     1      -0.143  10.904  18.479  0.00  0.00    +0.000 A 
BRANCH  24  27
ATOM     27  O   UNL     1      -0.284  14.591  18.664  0.00  0.00    +0.000 OA
ATOM     28  C   UNL     1       0.745  15.544  18.924  0.00  0.00    +0.000 C 
ENDBRANCH  24  27
ENDBRANCH   9  21
TORSDOF 6
ENDMDL
MODEL 6
REMARK VINA RESULT:      -7.3      2.615      4.128
REMARK  Name = 
REMARK  8 active torsions:
REMARK  status: ('A' for Active; 'I' for Inactive)
REMARK    1  A    between atoms: C_1  and  C_2
REMARK    2  A    between atoms: C_2  and  O_3
REMARK    3  A    between atoms: O_3  and  C_4
REMARK    4  A    between atoms: C_4  and  C_6
REMARK    5  A    between atoms: N_10  and  C_11
REMARK    6  A    between atoms: N_19  and  C_20
REMARK    7  A    between atoms: C_23  and  O_24
REMARK    8  A    between atoms: O_24  and  C_25
REMARK                            x       y       z     vdW  Elec       q    Type
REMARK                         _______ _______ _______ _____ _____    ______ ____
ROOT
ATOM      1  C   UNL     1       2.086   6.003  19.722  0.00  0.00    +0.000 A 
ATOM      2  N   UNL     1       1.589   6.163  20.980  0.00  0.00    +0.000 NA
ATOM      3  C   UNL     1       1.203   7.381  21.391  0.00  0.00    +0.000 A 
ATOM      4  N   UNL     1       1.210   8.518  20.690  0.00  0.00    +0.000 NA
ATOM      5  C   UNL     1       1.744   8.361  19.462  0.00  0.00    +0.000 A 
ATOM      6  C   UNL     1       2.245   7.175  18.955  0.00  0.00    +0.000 A 
ATOM      7  C   UNL     1       2.829   7.552  17.731  0.00  0.00    +0.000 A 
ATOM      8  N   UNL     1       2.582   8.814  17.389  0.00  0.00    +0.000 NA
ATOM      9  N   UNL     1       1.879   9.309  18.449  0.00  0.00    +0.000 N 
ENDROOT
BRANCH   1  14
ATOM     10  C   UNL     1       4.473   3.459  19.054  0.00  0.00    +0.000 C 
ATOM     11  C   UNL     1       3.931   2.855  17.755  0.00  0.00    +0.000 C 
ATOM     12  C   UNL     1       2.906   3.762  17.069  0.00  0.00    +0.000 C 
ATOM     13  C   UNL     1       1.803   4.242  18.017  0.00  0.00    +0.000 C 
ATOM     14  N   UNL     1       2.369   4.730  19.269  0.00  0.00    +0.000 N 
ATOM     15  C   UNL     1       3.317   3.862  19.958  0.00  0.00    +0.000 C 
BRANCH  10  16
ATOM     16  C   UNL     1       5.476   4.570  18.781  0.00  0.00    +0.000 C 
ATOM     17  O   UNL     1       5.664   5.505  19.562  0.00  0.00    +0.000 OA
BRANCH  16  18
ATOM     18  O   UNL     1       6.049   4.488  17.553  0.00  0.00    +0.000 OA
BRANCH  18  20
ATOM     19  C   UNL     1       5.673   5.515  15.368  0.00  0.00    +0.000 C 
ATOM     20  C   UNL     1       6.119   5.718  16.806  0.00  0.00    +0.000 C 
ENDBRANCH  18  20
ENDBRANCH  16  18
ENDBRANCH  10  16
ENDBRANCH   1  14
BRANCH   9  21
ATOM     21  C   UNL     1       1.421  10.655  18.421  0.00  0.00    +0.000 A 
ATOM     22  C   UNL     1       2.335  11.704  18.237  0.00  0.00    +0.000 A 
ATOM     23  C   UNL     1       1.898  13.030  18.301  0.00  0.00    +0.000 A 
ATOM     24  C   UNL     1       0.554  13.320  18.532  0.00  0.00    +0.000 A 
ATOM     25  C   UNL     1      -0.356  12.277  18.689  0.00  0.00    +0.000 A 
ATOM     26  C   UNL     1       0.071  10.955  18.615  0.00  0.00    +0.000 A 
BRANCH  24  27
ATOM     27  O   UNL     1       0.239  14.645  18.640  0.00  0.00    +0.000 OA
ATOM     28  C   UNL     1       1.352  15.511  18.842  0.00  0.00    +0.000 C 
ENDBRANCH  24  27
ENDBRANCH   9  21
TORSDOF 6
ENDMDL
MODEL 7
REMARK VINA RESULT:      -7.3      2.690      3.923
REMARK  Name = 
REMARK  8 active torsions:
REMARK  status: ('A' for Active; 'I' for Inactive)
REMARK    1  A    between atoms: C_1  and  C_2
REMARK    2  A    between atoms: C_2  and  O_3
REMARK    3  A    between atoms: O_3  and  C_4
REMARK    4  A    between atoms: C_4  and  C_6
REMARK    5  A    between atoms: N_10  and  C_11
REMARK    6  A    between atoms: N_19  and  C_20
REMARK    7  A    between atoms: C_23  and  O_24
REMARK    8  A    between atoms: O_24  and  C_25
REMARK                            x       y       z     vdW  Elec       q    Type
REMARK                         _______ _______ _______ _____ _____    ______ ____
ROOT
ATOM      1  C   UNL     1       3.425   6.669  18.363  0.00  0.00    +0.000 A 
ATOM      2  N   UNL     1       3.445   7.643  17.412  0.00  0.00    +0.000 NA
ATOM      3  C   UNL     1       2.675   8.733  17.563  0.00  0.00    +0.000 A 
ATOM      4  N   UNL     1       1.870   9.027  18.587  0.00  0.00    +0.000 NA
ATOM      5  C   UNL     1       1.821   8.038  19.502  0.00  0.00    +0.000 A 
ATOM      6  C   UNL     1       2.508   6.839  19.420  0.00  0.00    +0.000 A 
ATOM      7  C   UNL     1       2.010   6.091  20.503  0.00  0.00    +0.000 A 
ATOM      8  N   UNL     1       1.217   6.788  21.312  0.00  0.00    +0.000 NA
ATOM      9  N   UNL     1       1.124   8.009  20.709  0.00  0.00    +0.000 N 
ENDROOT
BRANCH   1  14
ATOM     10  C   UNL     1       6.770   5.479  18.229  0.00  0.00    +0.000 C 
ATOM     11  C   UNL     1       6.659   4.353  17.197  0.00  0.00    +0.000 C 
ATOM     12  C   UNL     1       5.371   4.436  16.374  0.00  0.00    +0.000 C 
ATOM     13  C   UNL     1       4.117   4.584  17.239  0.00  0.00    +0.000 C 
ATOM     14  N   UNL     1       4.305   5.611  18.258  0.00  0.00    +0.000 N 
ATOM     15  C   UNL     1       5.507   5.525  19.079  0.00  0.00    +0.000 C 
BRANCH  10  16
ATOM     16  C   UNL     1       7.140   6.804  17.579  0.00  0.00    +0.000 C 
ATOM     17  O   UNL     1       6.719   7.143  16.472  0.00  0.00    +0.000 OA
BRANCH  16  18
ATOM     18  O   UNL     1       8.060   7.510  18.284  0.00  0.00    +0.000 OA
BRANCH  18  20
ATOM     19  C   UNL     1       8.990   9.662  18.973  0.00  0.00    +0.000 C 
ATOM     20  C   UNL     1       8.206   8.896  17.921  0.00  0.00    +0.000 C 
ENDBRANCH  18  20
ENDBRANCH  16  18
ENDBRANCH  10  16
ENDBRANCH   1  14
BRANCH   9  21
ATOM     21  C   UNL     1       0.354   9.037  21.319  0.00  0.00    +0.000 A 
ATOM     22  C   UNL     1      -0.104  10.120  20.553  0.00  0.00    +0.000 A 
ATOM     23  C   UNL     1      -0.781  11.174  21.169  0.00  0.00    +0.000 A 
ATOM     24  C   UNL     1      -1.021  11.153  22.543  0.00  0.00    +0.000 A 
ATOM     25  C   UNL     1      -0.589  10.065  23.298  0.00  0.00    +0.000 A 
ATOM     26  C   UNL     1       0.076   9.006  22.688  0.00  0.00    +0.000 A 
BRANCH  24  27
ATOM     27  O   UNL     1      -1.634  12.260  23.059  0.00  0.00    +0.000 OA
ATOM     28  C   UNL     1      -1.450  13.454  22.304  0.00  0.00    +0.000 C 
ENDBRANCH  24  27
ENDBRANCH   9  21
TORSDOF 6
ENDMDL
MODEL 8
REMARK VINA RESULT:      -7.2      2.917      4.426
REMARK  Name = 
REMARK  8 active torsions:
REMARK  status: ('A' for Active; 'I' for Inactive)
REMARK    1  A    between atoms: C_1  and  C_2
REMARK    2  A    between atoms: C_2  and  O_3
REMARK    3  A    between atoms: O_3  and  C_4
REMARK    4  A    between atoms: C_4  and  C_6
REMARK    5  A    between atoms: N_10  and  C_11
REMARK    6  A    between atoms: N_19  and  C_20
REMARK    7  A    between atoms: C_23  and  O_24
REMARK    8  A    between atoms: O_24  and  C_25
REMARK                            x       y       z     vdW  Elec       q    Type
REMARK                         _______ _______ _______ _____ _____    ______ ____
ROOT
ATOM      1  C   UNL     1       3.859   5.096  18.666  0.00  0.00    +0.000 A 
ATOM      2  N   UNL     1       3.384   4.562  19.825  0.00  0.00    +0.000 NA
ATOM      3  C   UNL     1       2.509   5.259  20.568  0.00  0.00    +0.000 A 
ATOM      4  N   UNL     1       1.986   6.458  20.299  0.00  0.00    +0.000 NA
ATOM      5  C   UNL     1       2.494   7.000  19.174  0.00  0.00    +0.000 A 
ATOM      6  C   UNL     1       3.454   6.413  18.368  0.00  0.00    +0.000 A 
ATOM      7  C   UNL     1       3.770   7.418  17.434  0.00  0.00    +0.000 A 
ATOM      8  N   UNL     1       2.975   8.482  17.508  0.00  0.00    +0.000 NA
ATOM      9  N   UNL     1       2.160   8.211  18.568  0.00  0.00    +0.000 N 
ENDROOT
BRANCH   1  14
ATOM     10  C   UNL     1       7.023   4.528  17.155  0.00  0.00    +0.000 C 
ATOM     11  C   UNL     1       6.619   4.002  15.773  0.00  0.00    +0.000 C 
ATOM     12  C   UNL     1       5.154   4.295  15.439  0.00  0.00    +0.000 C 
ATOM     13  C   UNL     1       4.191   3.870  16.550  0.00  0.00    +0.000 C 
ATOM     14  N   UNL     1       4.664   4.325  17.853  0.00  0.00    +0.000 N 
ATOM     15  C   UNL     1       6.046   4.019  18.206  0.00  0.00    +0.000 C 
BRANCH  10  16
ATOM     16  C   UNL     1       7.212   6.037  17.149  0.00  0.00    +0.000 C 
ATOM     17  O   UNL     1       7.412   6.679  16.116  0.00  0.00    +0.000 OA
BRANCH  16  18
ATOM     18  O   UNL     1       7.253   6.579  18.392  0.00  0.00    +0.000 OA
BRANCH  18  20
ATOM     19  C   UNL     1       8.061   8.834  17.907  0.00  0.00    +0.000 C 
ATOM     20  C   UNL     1       8.313   7.524  18.634  0.00  0.00    +0.000 C 
ENDBRANCH  18  20
ENDBRANCH  16  18
ENDBRANCH  10  16
ENDBRANCH   1  14
BRANCH   9  21
ATOM     21  C   UNL     1       1.150   9.142  18.935  0.00  0.00    +0.000 A 
ATOM     22  C   UNL     1       0.943   9.457  20.286  0.00  0.00    +0.000 A 
ATOM     23  C   UNL     1      -0.109  10.301  20.653  0.00  0.00    +0.000 A 
ATOM     24  C   UNL     1      -0.948  10.846  19.682  0.00  0.00    +0.000 A 
ATOM     25  C   UNL     1      -0.725  10.552  18.338  0.00  0.00    +0.000 A 
ATOM     26  C   UNL     1       0.328   9.722  17.966  0.00  0.00    +0.000 A 
BRANCH  24  27
ATOM     27  O   UNL     1      -1.984  11.607  20.147  0.00  0.00    +0.000 OA
ATOM     28  C   UNL     1      -2.010  12.946  19.660  0.00  0.00    +0.000 C 
ENDBRANCH  24  27
ENDBRANCH   9  21
TORSDOF 6
ENDMDL
MODEL 9
REMARK VINA RESULT:      -7.1      1.819      2.599
REMARK  Name = 
REMARK  8 active torsions:
REMARK  status: ('A' for Active; 'I' for Inactive)
REMARK    1  A    between atoms: C_1  and  C_2
REMARK    2  A    between atoms: C_2  and  O_3
REMARK    3  A    between atoms: O_3  and  C_4
REMARK    4  A    between atoms: C_4  and  C_6
REMARK    5  A    between atoms: N_10  and  C_11
REMARK    6  A    between atoms: N_19  and  C_20
REMARK    7  A    between atoms: C_23  and  O_24
REMARK    8  A    between atoms: O_24  and  C_25
REMARK                            x       y       z     vdW  Elec       q    Type
REMARK                         _______ _______ _______ _____ _____    ______ ____
ROOT
ATOM      1  C   UNL     1       2.679   6.029  19.191  0.00  0.00    +0.000 A 
ATOM      2  N   UNL     1       2.208   5.805  20.448  0.00  0.00    +0.000 NA
ATOM      3  C   UNL     1       1.527   6.771  21.084  0.00  0.00    +0.000 A 
ATOM      4  N   UNL     1       1.201   7.980  20.618  0.00  0.00    +0.000 NA
ATOM      5  C   UNL     1       1.709   8.212  19.391  0.00  0.00    +0.000 A 
ATOM      6  C   UNL     1       2.488   7.325  18.669  0.00  0.00    +0.000 A 
ATOM      7  C   UNL     1       2.901   8.074  17.551  0.00  0.00    +0.000 A 
ATOM      8  N   UNL     1       2.312   9.262  17.458  0.00  0.00    +0.000 NA
ATOM      9  N   UNL     1       1.545   9.337  18.585  0.00  0.00    +0.000 N 
ENDROOT
BRANCH   1  14
ATOM     10  C   UNL     1       2.411   2.855  17.619  0.00  0.00    +0.000 C 
ATOM     11  C   UNL     1       3.741   2.201  18.006  0.00  0.00    +0.000 C 
ATOM     12  C   UNL     1       4.433   2.922  19.166  0.00  0.00    +0.000 C 
ATOM     13  C   UNL     1       4.545   4.433  18.949  0.00  0.00    +0.000 C 
ATOM     14  N   UNL     1       3.274   4.992  18.502  0.00  0.00    +0.000 N 
ATOM     15  C   UNL     1       2.620   4.343  17.372  0.00  0.00    +0.000 C 
BRANCH  10  16
ATOM     16  C   UNL     1       1.312   2.530  18.620  0.00  0.00    +0.000 C 
ATOM     17  O   UNL     1       0.124   2.776  18.406  0.00  0.00    +0.000 OA
BRANCH  16  18
ATOM     18  O   UNL     1       1.784   2.056  19.801  0.00  0.00    +0.000 OA
BRANCH  18  20
ATOM     19  C   UNL     1       2.249   2.917  22.040  0.00  0.00    +0.000 C 
ATOM     20  C   UNL     1       1.195   2.620  20.987  0.00  0.00    +0.000 C 
ENDBRANCH  18  20
ENDBRANCH  16  18
ENDBRANCH  10  16
ENDBRANCH   1  14
BRANCH   9  21
ATOM     21  C   UNL     1       0.743  10.489  18.813  0.00  0.00    +0.000 A 
ATOM     22  C   UNL     1       1.347  11.710  19.151  0.00  0.00    +0.000 A 
ATOM     23  C   UNL     1       0.555  12.817  19.465  0.00  0.00    +0.000 A 
ATOM     24  C   UNL     1      -0.836  12.723  19.431  0.00  0.00    +0.000 A 
ATOM     25  C   UNL     1      -1.434  11.517  19.071  0.00  0.00    +0.000 A 
ATOM     26  C   UNL     1      -0.650  10.414  18.746  0.00  0.00    +0.000 A 
BRANCH  24  27
ATOM     27  O   UNL     1      -1.520  13.842  19.816  0.00  0.00    +0.000 OA
ATOM     28  C   UNL     1      -1.496  14.106  21.216  0.00  0.00    +0.000 C 
ENDBRANCH  24  27
ENDBRANCH   9  21
TORSDOF 6
ENDMDL
