MODEL 1
REMARK VINA RESULT:      -8.0      0.000      0.000
REMARK  Name = 
REMARK  5 active torsions:
REMARK  status: ('A' for Active; 'I' for Inactive)
REMARK    1  A    between atoms: C_1  and  C_2
REMARK    2  A    between atoms: C_5  and  C_6
REMARK    3  A    between atoms: C_12  and  C_13
REMARK    4  A    between atoms: C_16  and  C_17
REMARK    5  A    between atoms: N_24  and  C_25
REMARK                            x       y       z     vdW  Elec       q    Type
REMARK                         _______ _______ _______ _____ _____    ______ ____
ROOT
ATOM      1  C   UNL     1       0.378   8.328  21.042  0.00  0.00    +0.000 C 
ATOM      2  O   UNL     1      -0.645   8.015  21.648  0.00  0.00    +0.000 OA
ATOM      3  N   UNL     1       1.296   7.381  20.628  0.00  0.00    +0.000 N 
ATOM      4  C   UNL     1       1.011   5.950  20.533  0.00  0.00    +0.000 C 
ATOM      5  C   UNL     1       2.259   5.828  19.624  0.00  0.00    +0.000 C 
ATOM      6  C   UNL     1       2.205   5.186  18.240  0.00  0.00    +0.000 C 
ATOM      7  C   UNL     1       3.543   4.443  18.084  0.00  0.00    +0.000 C 
ATOM      8  N   UNL     1       4.263   4.537  19.371  0.00  0.00    +0.000 NA
ATOM      9  C   UNL     1       4.827   3.248  19.767  0.00  0.00    +0.000 C 
ATOM     10  C   UNL     1       3.367   5.097  20.377  0.00  0.00    +0.000 C 
ATOM     11  C   UNL     1       2.230   7.375  19.515  0.00  0.00    +0.000 C 
ENDROOT
BRANCH   1  16
ATOM     12  C   UNL     1       1.279  13.938  20.210  0.00  0.00    +0.000 C 
ATOM     13  C   UNL     1       1.048  12.463  20.364  0.00  0.00    +0.000 A 
ATOM     14  C   UNL     1       1.019  11.623  19.256  0.00  0.00    +0.000 A 
ATOM     15  C   UNL     1       0.810  10.255  19.445  0.00  0.00    +0.000 A 
ATOM     16  C   UNL     1       0.612   9.757  20.731  0.00  0.00    +0.000 A 
ATOM     17  C   UNL     1       0.688  10.665  21.782  0.00  0.00    +0.000 A 
ATOM     18  N   UNL     1       0.889  12.002  21.626  0.00  0.00    +0.000 NA
ENDBRANCH   1  16
BRANCH   7  19
ATOM     19  C   UNL     1       4.389   4.987  16.972  0.00  0.00    +0.000 A 
ATOM     20  N   UNL     1       4.747   6.233  16.740  0.00  0.00    +0.000 NA
ATOM     21  N   UNL     1       5.415   6.226  15.533  0.00  0.00    +0.000 NA
ATOM     22  C   UNL     1       5.413   4.978  15.104  0.00  0.00    +0.000 A 
ATOM     23  O   UNL     1       4.804   4.123  15.988  0.00  0.00    +0.000 OA
BRANCH  22  24
ATOM     24  C   UNL     1       5.928   4.418  13.857  0.00  0.00    +0.000 A 
ATOM     25  C   UNL     1       7.151   4.880  13.351  0.00  0.00    +0.000 A 
ATOM     26  C   UNL     1       7.664   4.392  12.141  0.00  0.00    +0.000 A 
ATOM     27  C   UNL     1       6.942   3.434  11.429  0.00  0.00    +0.000 A 
ATOM     28  C   UNL     1       5.735   2.959  11.921  0.00  0.00    +0.000 A 
ATOM     29  C   UNL     1       5.225   3.448  13.128  0.00  0.00    +0.000 A 
ENDBRANCH  22  24
ENDBRANCH   7  19
TORSDOF 3
ENDMDL
MODEL 2
REMARK VINA RESULT:      -7.8      4.472      8.330
REMARK  Name = 
REMARK  5 active torsions:
REMARK  status: ('A' for Active; 'I' for Inactive)
REMARK    1  A    between atoms: C_1  and  C_2
REMARK    2  A    between atoms: C_5  and  C_6
REMARK    3  A    between atoms: C_12  and  C_13
REMARK    4  A    between atoms: C_16  and  C_17
REMARK    5  A    between atoms: N_24  and  C_25
REMARK                            x       y       z     vdW  Elec       q    Type
REMARK                         _______ _______ _______ _____ _____    ______ ____
ROOT
ATOM      1  C   UNL     1       3.788  15.733  18.804  0.00  0.00    +0.000 C 
ATOM      2  O   UNL     1       3.447  16.683  18.102  0.00  0.00    +0.000 OA
ATOM      3  N   UNL     1       2.876  15.028  19.566  0.00  0.00    +0.000 N 
ATOM      4  C   UNL     1       1.428  15.076  19.363  0.00  0.00    +0.000 C 
ATOM      5  C   UNL     1       1.334  13.770  20.192  0.00  0.00    +0.000 C 
ATOM      6  C   UNL     1       0.628  12.520  19.673  0.00  0.00    +0.000 C 
ATOM      7  C   UNL     1      -0.047  11.894  20.905  0.00  0.00    +0.000 C 
ATOM      8  N   UNL     1       0.145  12.818  22.042  0.00  0.00    +0.000 NA
ATOM      9  C   UNL     1      -1.092  13.003  22.798  0.00  0.00    +0.000 C 
ATOM     10  C   UNL     1       0.699  14.073  21.546  0.00  0.00    +0.000 C 
ATOM     11  C   UNL     1       2.870  13.647  20.020  0.00  0.00    +0.000 C 
ENDROOT
BRANCH   1  16
ATOM     12  C   UNL     1       9.331  14.280  19.183  0.00  0.00    +0.000 C 
ATOM     13  C   UNL     1       7.882  14.636  19.025  0.00  0.00    +0.000 A 
ATOM     14  C   UNL     1       7.200  14.354  17.845  0.00  0.00    +0.000 A 
ATOM     15  C   UNL     1       5.849  14.694  17.744  0.00  0.00    +0.000 A 
ATOM     16  C   UNL     1       5.213  15.327  18.809  0.00  0.00    +0.000 A 
ATOM     17  C   UNL     1       5.964  15.541  19.960  0.00  0.00    +0.000 A 
ATOM     18  N   UNL     1       7.281  15.222  20.086  0.00  0.00    +0.000 NA
ENDBRANCH   1  16
BRANCH   7  19
ATOM     19  C   UNL     1       0.493  10.536  21.241  0.00  0.00    +0.000 A 
ATOM     20  N   UNL     1       0.868  10.062  22.412  0.00  0.00    +0.000 NA
ATOM     21  N   UNL     1       1.403   8.813  22.171  0.00  0.00    +0.000 NA
ATOM     22  C   UNL     1       1.327   8.611  20.869  0.00  0.00    +0.000 A 
ATOM     23  O   UNL     1       0.726   9.655  20.212  0.00  0.00    +0.000 OA
BRANCH  22  24
ATOM     24  C   UNL     1       1.801   7.484  20.070  0.00  0.00    +0.000 A 
ATOM     25  C   UNL     1       1.684   6.184  20.580  0.00  0.00    +0.000 A 
ATOM     26  C   UNL     1       2.156   5.078  19.859  0.00  0.00    +0.000 A 
ATOM     27  C   UNL     1       2.755   5.278  18.615  0.00  0.00    +0.000 A 
ATOM     28  C   UNL     1       2.870   6.558  18.092  0.00  0.00    +0.000 A 
ATOM     29  C   UNL     1       2.399   7.659  18.813  0.00  0.00    +0.000 A 
ENDBRANCH  22  24
ENDBRANCH   7  19
TORSDOF 3
ENDMDL
MODEL 3
REMARK VINA RESULT:      -7.5      3.719      6.574
REMARK  Name = 
REMARK  5 active torsions:
REMARK  status: ('A' for Active; 'I' for Inactive)
REMARK    1  A    between atoms: C_1  and  C_2
REMARK    2  A    between atoms: C_5  and  C_6
REMARK    3  A    between atoms: C_12  and  C_13
REMARK    4  A    between atoms: C_16  and  C_17
REMARK    5  A    between atoms: N_24  and  C_25
REMARK                            x       y       z     vdW  Elec       q    Type
REMARK                         _______ _______ _______ _____ _____    ______ ____
ROOT
ATOM      1  C   UNL     1       1.843  15.521  20.363  0.00  0.00    +0.000 C 
ATOM      2  O   UNL     1       0.992  16.395  20.514  0.00  0.00    +0.000 OA
ATOM      3  N   UNL     1       1.531  14.178  20.463  0.00  0.00    +0.000 N 
ATOM      4  C   UNL     1       0.170  13.645  20.394  0.00  0.00    +0.000 C 
ATOM      5  C   UNL     1       0.798  12.259  20.105  0.00  0.00    +0.000 C 
ATOM      6  C   UNL     1       0.405  11.418  18.893  0.00  0.00    +0.000 C 
ATOM      7  C   UNL     1       0.438   9.960  19.381  0.00  0.00    +0.000 C 
ATOM      8  N   UNL     1       0.697   9.979  20.835  0.00  0.00    +0.000 NA
ATOM      9  C   UNL     1      -0.192   9.066  21.551  0.00  0.00    +0.000 C 
ATOM     10  C   UNL     1       0.607  11.352  21.317  0.00  0.00    +0.000 C 
ATOM     11  C   UNL     1       2.132  13.006  19.848  0.00  0.00    +0.000 C 
ENDROOT
BRANCH   1  16
ATOM     12  C   UNL     1       7.092  17.251  18.806  0.00  0.00    +0.000 C 
ATOM     13  C   UNL     1       5.746  16.775  19.267  0.00  0.00    +0.000 A 
ATOM     14  C   UNL     1       5.595  16.127  20.489  0.00  0.00    +0.000 A 
ATOM     15  C   UNL     1       4.322  15.709  20.883  0.00  0.00    +0.000 A 
ATOM     16  C   UNL     1       3.232  15.926  20.044  0.00  0.00    +0.000 A 
ATOM     17  C   UNL     1       3.470  16.610  18.856  0.00  0.00    +0.000 A 
ATOM     18  N   UNL     1       4.700  17.026  18.447  0.00  0.00    +0.000 NA
ENDBRANCH   1  16
BRANCH   7  19
ATOM     19  C   UNL     1       1.471   9.130  18.678  0.00  0.00    +0.000 A 
ATOM     20  N   UNL     1       2.152   9.410  17.586  0.00  0.00    +0.000 NA
ATOM     21  N   UNL     1       2.877   8.276  17.281  0.00  0.00    +0.000 NA
ATOM     22  C   UNL     1       2.584   7.378  18.203  0.00  0.00    +0.000 A 
ATOM     23  O   UNL     1       1.716   7.863  19.149  0.00  0.00    +0.000 OA
BRANCH  22  24
ATOM     24  C   UNL     1       3.023   5.990  18.326  0.00  0.00    +0.000 A 
ATOM     25  C   UNL     1       4.272   5.713  18.898  0.00  0.00    +0.000 A 
ATOM     26  C   UNL     1       4.743   4.397  19.006  0.00  0.00    +0.000 A 
ATOM     27  C   UNL     1       3.956   3.348  18.532  0.00  0.00    +0.000 A 
ATOM     28  C   UNL     1       2.713   3.604  17.971  0.00  0.00    +0.000 A 
ATOM     29  C   UNL     1       2.245   4.917  17.865  0.00  0.00    +0.000 A 
ENDBRANCH  22  24
ENDBRANCH   7  19
TORSDOF 3
ENDMDL
MODEL 4
REMARK VINA RESULT:      -7.5      4.470      8.085
REMARK  Name = 
REMARK  5 active torsions:
REMARK  status: ('A' for Active; 'I' for Inactive)
REMARK    1  A    between atoms: C_1  and  C_2
REMARK    2  A    between atoms: C_5  and  C_6
REMARK    3  A    between atoms: C_12  and  C_13
REMARK    4  A    between atoms: C_16  and  C_17
REMARK    5  A    between atoms: N_24  and  C_25
REMARK                            x       y       z     vdW  Elec       q    Type
REMARK                         _______ _______ _______ _____ _____    ______ ____
ROOT
ATOM      1  C   UNL     1       1.575  16.011  18.794  0.00  0.00    +0.000 C 
ATOM      2  O   UNL     1       0.927  16.814  18.126  0.00  0.00    +0.000 OA
ATOM      3  N   UNL     1       0.961  15.085  19.615  0.00  0.00    +0.000 N 
ATOM      4  C   UNL     1      -0.450  14.712  19.519  0.00  0.00    +0.000 C 
ATOM      5  C   UNL     1      -0.105  13.446  20.342  0.00  0.00    +0.000 C 
ATOM      6  C   UNL     1      -0.457  12.039  19.867  0.00  0.00    +0.000 C 
ATOM      7  C   UNL     1      -0.833  11.262  21.140  0.00  0.00    +0.000 C 
ATOM      8  N   UNL     1      -0.834  12.218  22.266  0.00  0.00    +0.000 NA
ATOM      9  C   UNL     1      -2.014  12.051  23.112  0.00  0.00    +0.000 C 
ATOM     10  C   UNL     1      -0.700  13.572  21.741  0.00  0.00    +0.000 C 
ATOM     11  C   UNL     1       1.386  13.767  20.058  0.00  0.00    +0.000 C 
ENDROOT
BRANCH   1  16
ATOM     12  C   UNL     1       7.304  16.379  18.645  0.00  0.00    +0.000 C 
ATOM     13  C   UNL     1       5.811  16.232  18.645  0.00  0.00    +0.000 A 
ATOM     14  C   UNL     1       5.190  15.224  17.914  0.00  0.00    +0.000 A 
ATOM     15  C   UNL     1       3.798  15.118  17.950  0.00  0.00    +0.000 A 
ATOM     16  C   UNL     1       3.054  16.031  18.693  0.00  0.00    +0.000 A 
ATOM     17  C   UNL     1       3.759  16.987  19.416  0.00  0.00    +0.000 A 
ATOM     18  N   UNL     1       5.114  17.114  19.398  0.00  0.00    +0.000 NA
ENDBRANCH   1  16
BRANCH   7  19
ATOM     19  C   UNL     1       0.096  10.121  21.426  0.00  0.00    +0.000 A 
ATOM     20  N   UNL     1       0.853   9.916  22.485  0.00  0.00    +0.000 NA
ATOM     21  N   UNL     1       1.610   8.796  22.209  0.00  0.00    +0.000 NA
ATOM     22  C   UNL     1       1.271   8.396  20.998  0.00  0.00    +0.000 A 
ATOM     23  O   UNL     1       0.285   9.175  20.447  0.00  0.00    +0.000 OA
BRANCH  22  24
ATOM     24  C   UNL     1       1.805   7.300  20.194  0.00  0.00    +0.000 A 
ATOM     25  C   UNL     1       2.419   7.584  18.966  0.00  0.00    +0.000 A 
ATOM     26  C   UNL     1       2.915   6.558  18.150  0.00  0.00    +0.000 A 
ATOM     27  C   UNL     1       2.791   5.233  18.566  0.00  0.00    +0.000 A 
ATOM     28  C   UNL     1       2.194   4.935  19.783  0.00  0.00    +0.000 A 
ATOM     29  C   UNL     1       1.700   5.960  20.595  0.00  0.00    +0.000 A 
ENDBRANCH  22  24
ENDBRANCH   7  19
TORSDOF 3
ENDMDL
MODEL 5
REMARK VINA RESULT:      -7.4      5.366      9.326
REMARK  Name = 
REMARK  5 active torsions:
REMARK  status: ('A' for Active; 'I' for Inactive)
REMARK    1  A    between atoms: C_1  and  C_2
REMARK    2  A    between atoms: C_5  and  C_6
REMARK    3  A    between atoms: C_12  and  C_13
REMARK    4  A    between atoms: C_16  and  C_17
REMARK    5  A    between atoms: N_24  and  C_25
REMARK                            x       y       z     vdW  Elec       q    Type
REMARK                         _______ _______ _______ _____ _____    ______ ____
ROOT
ATOM      1  C   UNL     1       2.649  17.004  19.186  0.00  0.00    +0.000 C 
ATOM      2  O   UNL     1       2.254  18.038  18.651  0.00  0.00    +0.000 OA
ATOM      3  N   UNL     1       1.865  16.302  20.082  0.00  0.00    +0.000 N 
ATOM      4  C   UNL     1       0.420  16.478  20.218  0.00  0.00    +0.000 C 
ATOM      5  C   UNL     1       0.389  15.112  20.948  0.00  0.00    +0.000 C 
ATOM      6  C   UNL     1      -0.529  13.971  20.514  0.00  0.00    +0.000 C 
ATOM      7  C   UNL     1      -0.971  13.286  21.818  0.00  0.00    +0.000 C 
ATOM      8  N   UNL     1      -0.447  14.084  22.945  0.00  0.00    +0.000 NA
ATOM      9  C   UNL     1      -1.463  14.291  23.975  0.00  0.00    +0.000 C 
ATOM     10  C   UNL     1       0.100  15.334  22.430  0.00  0.00    +0.000 C 
ATOM     11  C   UNL     1       1.830  14.889  20.422  0.00  0.00    +0.000 C 
ENDROOT
BRANCH   1  16
ATOM     12  C   UNL     1       8.011  15.272  18.078  0.00  0.00    +0.000 C 
ATOM     13  C   UNL     1       6.589  15.679  18.327  0.00  0.00    +0.000 A 
ATOM     14  C   UNL     1       5.536  15.030  17.691  0.00  0.00    +0.000 A 
ATOM     15  C   UNL     1       4.226  15.436  17.959  0.00  0.00    +0.000 A 
ATOM     16  C   UNL     1       3.996  16.492  18.836  0.00  0.00    +0.000 A 
ATOM     17  C   UNL     1       5.106  17.062  19.450  0.00  0.00    +0.000 A 
ATOM     18  N   UNL     1       6.392  16.688  19.206  0.00  0.00    +0.000 NA
ENDBRANCH   1  16
BRANCH   7  19
ATOM     19  C   UNL     1      -0.502  11.866  21.922  0.00  0.00    +0.000 A 
ATOM     20  N   UNL     1      -0.406  11.103  22.991  0.00  0.00    +0.000 NA
ATOM     21  N   UNL     1       0.195   9.932  22.579  0.00  0.00    +0.000 NA
ATOM     22  C   UNL     1       0.433  10.060  21.287  0.00  0.00    +0.000 A 
ATOM     23  O   UNL     1      -0.014  11.258  20.790  0.00  0.00    +0.000 OA
BRANCH  22  24
ATOM     24  C   UNL     1       1.105   9.146  20.367  0.00  0.00    +0.000 A 
ATOM     25  C   UNL     1       1.255   9.514  19.022  0.00  0.00    +0.000 A 
ATOM     26  C   UNL     1       1.865   8.653  18.100  0.00  0.00    +0.000 A 
ATOM     27  C   UNL     1       2.327   7.408  18.528  0.00  0.00    +0.000 A 
ATOM     28  C   UNL     1       2.194   7.033  19.858  0.00  0.00    +0.000 A 
ATOM     29  C   UNL     1       1.585   7.893  20.776  0.00  0.00    +0.000 A 
ENDBRANCH  22  24
ENDBRANCH   7  19
TORSDOF 3
ENDMDL
MODEL 6
REMARK VINA RESULT:      -7.4      5.434      9.514
REMARK  Name = 
REMARK  5 active torsions:
REMARK  status: ('A' for Active; 'I' for Inactive)
REMARK    1  A    between atoms: C_1  and  C_2
REMARK    2  A    between atoms: C_5  and  C_6
REMARK    3  A    between atoms: C_12  and  C_13
REMARK    4  A    between atoms: C_16  and  C_17
REMARK    5  A    between atoms: N_24  and  C_25
REMARK                            x       y       z     vdW  Elec       q    Type
REMARK                         _______ _______ _______ _____ _____    ______ ____
ROOT
ATOM      1  C   UNL     1       5.523  16.435  19.122  0.00  0.00    +0.000 C 
ATOM      2  O   UNL     1       5.783  17.634  19.051  0.00  0.00    +0.000 OA
ATOM      3  N   UNL     1       4.286  15.983  19.540  0.00  0.00    +0.000 N 
ATOM      4  C   UNL     1       3.084  16.814  19.590  0.00  0.00    +0.000 C 
ATOM      5  C   UNL     1       2.259  15.504  19.649  0.00  0.00    +0.000 C 
ATOM      6  C   UNL     1       1.125  15.205  18.672  0.00  0.00    +0.000 C 
ATOM      7  C   UNL     1       0.064  14.459  19.497  0.00  0.00    +0.000 C 
ATOM      8  N   UNL     1       0.508  14.458  20.906  0.00  0.00    +0.000 NA
ATOM      9  C   UNL     1      -0.585  14.803  21.814  0.00  0.00    +0.000 C 
ATOM     10  C   UNL     1       1.659  15.343  21.043  0.00  0.00    +0.000 C 
ATOM     11  C   UNL     1       3.556  14.764  19.230  0.00  0.00    +0.000 C 
ENDROOT
BRANCH   1  16
ATOM     12  C   UNL     1       9.765  12.770  17.875  0.00  0.00    +0.000 C 
ATOM     13  C   UNL     1       8.623  13.702  18.153  0.00  0.00    +0.000 A 
ATOM     14  C   UNL     1       7.461  13.660  17.388  0.00  0.00    +0.000 A 
ATOM     15  C   UNL     1       6.418  14.540  17.687  0.00  0.00    +0.000 A 
ATOM     16  C   UNL     1       6.563  15.457  18.725  0.00  0.00    +0.000 A 
ATOM     17  C   UNL     1       7.746  15.407  19.456  0.00  0.00    +0.000 A 
ATOM     18  N   UNL     1       8.778  14.562  19.186  0.00  0.00    +0.000 NA
ENDBRANCH   1  16
BRANCH   7  19
ATOM     19  C   UNL     1      -0.166  13.055  19.023  0.00  0.00    +0.000 A 
ATOM     20  N   UNL     1      -1.236  12.540  18.451  0.00  0.00    +0.000 NA
ATOM     21  N   UNL     1      -0.994  11.188  18.324  0.00  0.00    +0.000 NA
ATOM     22  C   UNL     1       0.202  10.965  18.834  0.00  0.00    +0.000 A 
ATOM     23  O   UNL     1       0.806  12.116  19.272  0.00  0.00    +0.000 OA
BRANCH  22  24
ATOM     24  C   UNL     1       0.922   9.706  19.011  0.00  0.00    +0.000 A 
ATOM     25  C   UNL     1       0.949   9.103  20.276  0.00  0.00    +0.000 A 
ATOM     26  C   UNL     1       1.655   7.912  20.495  0.00  0.00    +0.000 A 
ATOM     27  C   UNL     1       2.344   7.321  19.436  0.00  0.00    +0.000 A 
ATOM     28  C   UNL     1       2.320   7.901  18.176  0.00  0.00    +0.000 A 
ATOM     29  C   UNL     1       1.615   9.089  17.960  0.00  0.00    +0.000 A 
ENDBRANCH  22  24
ENDBRANCH   7  19
TORSDOF 3
ENDMDL
MODEL 7
REMARK VINA RESULT:      -7.4      3.804      7.549
REMARK  Name = 
REMARK  5 active torsions:
REMARK  status: ('A' for Active; 'I' for Inactive)
REMARK    1  A    between atoms: C_1  and  C_2
REMARK    2  A    between atoms: C_5  and  C_6
REMARK    3  A    between atoms: C_12  and  C_13
REMARK    4  A    between atoms: C_16  and  C_17
REMARK    5  A    between atoms: N_24  and  C_25
REMARK                            x       y       z     vdW  Elec       q    Type
REMARK                         _______ _______ _______ _____ _____    ______ ____
ROOT
ATOM      1  C   UNL     1       3.448  15.508  18.694  0.00  0.00    +0.000 C 
ATOM      2  O   UNL     1       3.078  16.502  18.074  0.00  0.00    +0.000 OA
ATOM      3  N   UNL     1       2.548  14.645  19.290  0.00  0.00    +0.000 N 
ATOM      4  C   UNL     1       1.123  14.596  18.966  0.00  0.00    +0.000 C 
ATOM      5  C   UNL     1       1.085  13.199  19.634  0.00  0.00    +0.000 C 
ATOM      6  C   UNL     1       0.541  11.964  18.921  0.00  0.00    +0.000 C 
ATOM      7  C   UNL     1      -0.168  11.144  20.012  0.00  0.00    +0.000 C 
ATOM      8  N   UNL     1      -0.152  11.940  21.255  0.00  0.00    +0.000 NA
ATOM      9  C   UNL     1      -1.456  11.932  21.915  0.00  0.00    +0.000 C 
ATOM     10  C   UNL     1       0.321  13.286  20.952  0.00  0.00    +0.000 C 
ATOM     11  C   UNL     1       2.635  13.225  19.587  0.00  0.00    +0.000 C 
ENDROOT
BRANCH   1  16
ATOM     12  C   UNL     1       9.061  14.512  19.394  0.00  0.00    +0.000 C 
ATOM     13  C   UNL     1       7.600  14.751  19.151  0.00  0.00    +0.000 A 
ATOM     14  C   UNL     1       7.022  14.464  17.918  0.00  0.00    +0.000 A 
ATOM     15  C   UNL     1       5.656  14.692  17.738  0.00  0.00    +0.000 A 
ATOM     16  C   UNL     1       4.900  15.223  18.781  0.00  0.00    +0.000 A 
ATOM     17  C   UNL     1       5.554  15.451  19.987  0.00  0.00    +0.000 A 
ATOM     18  N   UNL     1       6.883  15.239  20.189  0.00  0.00    +0.000 NA
ENDBRANCH   1  16
BRANCH   7  19
ATOM     19  C   UNL     1       0.467   9.805  20.243  0.00  0.00    +0.000 A 
ATOM     20  N   UNL     1       0.595   9.134  21.369  0.00  0.00    +0.000 NA
ATOM     21  N   UNL     1       1.358   8.023  21.074  0.00  0.00    +0.000 NA
ATOM     22  C   UNL     1       1.652   8.094  19.789  0.00  0.00    +0.000 A 
ATOM     23  O   UNL     1       1.089   9.189  19.184  0.00  0.00    +0.000 OA
BRANCH  22  24
ATOM     24  C   UNL     1       2.483   7.213  18.972  0.00  0.00    +0.000 A 
ATOM     25  C   UNL     1       3.304   7.769  17.981  0.00  0.00    +0.000 A 
ATOM     26  C   UNL     1       4.092   6.956  17.155  0.00  0.00    +0.000 A 
ATOM     27  C   UNL     1       4.054   5.572  17.320  0.00  0.00    +0.000 A 
ATOM     28  C   UNL     1       3.254   5.006  18.302  0.00  0.00    +0.000 A 
ATOM     29  C   UNL     1       2.468   5.819  19.125  0.00  0.00    +0.000 A 
ENDBRANCH  22  24
ENDBRANCH   7  19
TORSDOF 3
ENDMDL
MODEL 8
REMARK VINA RESULT:      -7.4      5.254      9.202
REMARK  Name = 
REMARK  5 active torsions:
REMARK  status: ('A' for Active; 'I' for Inactive)
REMARK    1  A    between atoms: C_1  and  C_2
REMARK    2  A    between atoms: C_5  and  C_6
REMARK    3  A    between atoms: C_12  and  C_13
REMARK    4  A    between atoms: C_16  and  C_17
REMARK    5  A    between atoms: N_24  and  C_25
REMARK                            x       y       z     vdW  Elec       q    Type
REMARK                         _______ _______ _______ _____ _____    ______ ____
ROOT
ATOM      1  C   UNL     1       5.206  16.176  19.348  0.00  0.00    +0.000 C 
ATOM      2  O   UNL     1       5.412  17.381  19.216  0.00  0.00    +0.000 OA
ATOM      3  N   UNL     1       4.028  15.694  19.888  0.00  0.00    +0.000 N 
ATOM      4  C   UNL     1       2.804  16.483  20.017  0.00  0.00    +0.000 C 
ATOM      5  C   UNL     1       2.039  15.147  20.190  0.00  0.00    +0.000 C 
ATOM      6  C   UNL     1       0.836  14.773  19.328  0.00  0.00    +0.000 C 
ATOM      7  C   UNL     1      -0.119  14.019  20.267  0.00  0.00    +0.000 C 
ATOM      8  N   UNL     1       0.445  14.084  21.631  0.00  0.00    +0.000 NA
ATOM      9  C   UNL     1      -0.576  14.422  22.620  0.00  0.00    +0.000 C 
ATOM     10  C   UNL     1       1.569  15.014  21.636  0.00  0.00    +0.000 C 
ATOM     11  C   UNL     1       3.322  14.440  19.682  0.00  0.00    +0.000 C 
ENDROOT
BRANCH   1  16
ATOM     12  C   UNL     1       9.419  12.550  17.907  0.00  0.00    +0.000 C 
ATOM     13  C   UNL     1       8.288  13.481  18.229  0.00  0.00    +0.000 A 
ATOM     14  C   UNL     1       7.202  13.613  17.371  0.00  0.00    +0.000 A 
ATOM     15  C   UNL     1       6.166  14.485  17.714  0.00  0.00    +0.000 A 
ATOM     16  C   UNL     1       6.245  15.222  18.893  0.00  0.00    +0.000 A 
ATOM     17  C   UNL     1       7.353  15.005  19.705  0.00  0.00    +0.000 A 
ATOM     18  N   UNL     1       8.376  14.163  19.394  0.00  0.00    +0.000 NA
ENDBRANCH   1  16
BRANCH   7  19
ATOM     19  C   UNL     1      -0.335  12.592  19.860  0.00  0.00    +0.000 A 
ATOM     20  N   UNL     1      -1.464  11.918  19.775  0.00  0.00    +0.000 NA
ATOM     21  N   UNL     1      -1.116  10.615  19.482  0.00  0.00    +0.000 NA
ATOM     22  C   UNL     1       0.202  10.578  19.415  0.00  0.00    +0.000 A 
ATOM     23  O   UNL     1       0.770  11.811  19.615  0.00  0.00    +0.000 OA
BRANCH  22  24
ATOM     24  C   UNL     1       1.094   9.443  19.195  0.00  0.00    +0.000 A 
ATOM     25  C   UNL     1       1.709   9.286  17.945  0.00  0.00    +0.000 A 
ATOM     26  C   UNL     1       2.547   8.193  17.683  0.00  0.00    +0.000 A 
ATOM     27  C   UNL     1       2.768   7.246  18.682  0.00  0.00    +0.000 A 
ATOM     28  C   UNL     1       2.173   7.391  19.928  0.00  0.00    +0.000 A 
ATOM     29  C   UNL     1       1.338   8.482  20.187  0.00  0.00    +0.000 A 
ENDBRANCH  22  24
ENDBRANCH   7  19
TORSDOF 3
ENDMDL
MODEL 9
REMARK VINA RESULT:      -7.3      5.396      9.549
REMARK  Name = 
REMARK  5 active torsions:
REMARK  status: ('A' for Active; 'I' for Inactive)
REMARK    1  A    between atoms: C_1  and  C_2
REMARK    2  A    between atoms: C_5  and  C_6
REMARK    3  A    between atoms: C_12  and  C_13
REMARK    4  A    between atoms: C_16  and  C_17
REMARK    5  A    between atoms: N_24  and  C_25
REMARK                            x       y       z     vdW  Elec       q    Type
REMARK                         _______ _______ _______ _____ _____    ______ ____
ROOT
ATOM      1  C   UNL     1       6.024  16.061  19.229  0.00  0.00    +0.000 C 
ATOM      2  O   UNL     1       6.403  17.221  19.087  0.00  0.00    +0.000 OA
ATOM      3  N   UNL     1       4.722  15.760  19.584  0.00  0.00    +0.000 N 
ATOM      4  C   UNL     1       3.606  16.698  19.478  0.00  0.00    +0.000 C 
ATOM      5  C   UNL     1       2.656  15.479  19.572  0.00  0.00    +0.000 C 
ATOM      6  C   UNL     1       1.568  15.204  18.537  0.00  0.00    +0.000 C 
ATOM      7  C   UNL     1       0.385  14.629  19.332  0.00  0.00    +0.000 C 
ATOM      8  N   UNL     1       0.728  14.706  20.767  0.00  0.00    +0.000 NA
ATOM      9  C   UNL     1      -0.386  15.224  21.559  0.00  0.00    +0.000 C 
ATOM     10  C   UNL     1       1.947  15.490  20.924  0.00  0.00    +0.000 C 
ATOM     11  C   UNL     1       3.901  14.591  19.312  0.00  0.00    +0.000 C 
ENDROOT
BRANCH   1  16
ATOM     12  C   UNL     1       9.631  11.782  17.945  0.00  0.00    +0.000 C 
ATOM     13  C   UNL     1       8.715  12.902  18.339  0.00  0.00    +0.000 A 
ATOM     14  C   UNL     1       8.783  13.471  19.606  0.00  0.00    +0.000 A 
ATOM     15  C   UNL     1       7.917  14.519  19.928  0.00  0.00    +0.000 A 
ATOM     16  C   UNL     1       6.989  14.962  18.990  0.00  0.00    +0.000 A 
ATOM     17  C   UNL     1       7.013  14.356  17.738  0.00  0.00    +0.000 A 
ATOM     18  N   UNL     1       7.843  13.333  17.398  0.00  0.00    +0.000 NA
ENDBRANCH   1  16
BRANCH   7  19
ATOM     19  C   UNL     1       0.053  13.218  18.951  0.00  0.00    +0.000 A 
ATOM     20  N   UNL     1      -1.096  12.720  18.542  0.00  0.00    +0.000 NA
ATOM     21  N   UNL     1      -0.915  11.356  18.442  0.00  0.00    +0.000 NA
ATOM     22  C   UNL     1       0.331  11.111  18.803  0.00  0.00    +0.000 A 
ATOM     23  O   UNL     1       1.021  12.256  19.112  0.00  0.00    +0.000 OA
BRANCH  22  24
ATOM     24  C   UNL     1       1.029   9.835  18.939  0.00  0.00    +0.000 A 
ATOM     25  C   UNL     1       0.986   9.155  20.164  0.00  0.00    +0.000 A 
ATOM     26  C   UNL     1       1.668   7.944  20.344  0.00  0.00    +0.000 A 
ATOM     27  C   UNL     1       2.406   7.411  19.288  0.00  0.00    +0.000 A 
ATOM     28  C   UNL     1       2.451   8.066  18.066  0.00  0.00    +0.000 A 
ATOM     29  C   UNL     1       1.770   9.274  17.888  0.00  0.00    +0.000 A 
ENDBRANCH  22  24
ENDBRANCH   7  19
TORSDOF 3
ENDMDL
