MODEL 1
REMARK VINA RESULT:      -7.1      0.000      0.000
REMARK  Name = 
REMARK  7 active torsions:
REMARK  status: ('A' for Active; 'I' for Inactive)
REMARK    1  A    between atoms: C_1  and  C_2
REMARK    2  A    between atoms: C_7  and  C_8
REMARK    3  A    between atoms: C_8  and  O_10
REMARK    4  A    between atoms: O_10  and  C_11
REMARK    5  A    between atoms: C_11  and  C_12
REMARK    6  A    between atoms: C_11  and  C_13
REMARK    7  A    between atoms: C_13  and  N_14
REMARK                            x       y       z     vdW  Elec       q    Type
REMARK                         _______ _______ _______ _____ _____    ______ ____
ROOT
ATOM      1  O   UNL     1       4.432   5.687  19.082  0.00  0.00    +0.000 OA
ENDROOT
BRANCH   1   2
ATOM      2  C   UNL     1       4.449   4.348  19.280  0.00  0.00    +0.000 C 
ATOM      3  O   UNL     1       5.459   3.663  19.381  0.00  0.00    +0.000 OA
BRANCH   2  10
ATOM      4  C   UNL     1       2.916   2.701  17.135  0.00  0.00    +0.000 C 
ATOM      5  C   UNL     1       2.359   3.065  18.484  0.00  0.00    +0.000 A 
ATOM      6  C   UNL     1       1.063   2.611  18.803  0.00  0.00    +0.000 A 
ATOM      7  C   UNL     1       0.488   2.873  20.046  0.00  0.00    +0.000 A 
ATOM      8  C   UNL     1       1.199   3.591  21.002  0.00  0.00    +0.000 A 
ATOM      9  C   UNL     1       2.485   4.045  20.708  0.00  0.00    +0.000 A 
ATOM     10  C   UNL     1       3.072   3.802  19.454  0.00  0.00    +0.000 A 
ENDBRANCH   2  10
ENDBRANCH   1   2
BRANCH   1  11
ATOM     11  C   UNL     1       3.845   6.145  17.845  0.00  0.00    +0.000 C 
ATOM     12  C   UNL     1       2.530   6.866  18.179  0.00  0.00    +0.000 C 
BRANCH  11  13
ATOM     13  C   UNL     1       4.808   7.141  17.152  0.00  0.00    +0.000 C 
BRANCH  13  14
ATOM     14  N   UNL     1       6.041   6.675  16.520  0.00  0.00    +0.000 NA
ATOM     15  C   UNL     1       5.982   5.536  15.604  0.00  0.00    +0.000 C 
ATOM     16  C   UNL     1       6.548   4.213  16.154  0.00  0.00    +0.000 C 
ATOM     17  O   UNL     1       7.830   4.392  16.769  0.00  0.00    +0.000 OA
ATOM     18  C   UNL     1       7.725   5.335  17.841  0.00  0.00    +0.000 C 
ATOM     19  C   UNL     1       7.260   6.703  17.327  0.00  0.00    +0.000 C 
ENDBRANCH  13  14
ENDBRANCH  11  13
ENDBRANCH   1  11
TORSDOF 5
ENDMDL
MODEL 2
REMARK VINA RESULT:      -6.5      2.164      5.350
REMARK  Name = 
REMARK  7 active torsions:
REMARK  status: ('A' for Active; 'I' for Inactive)
REMARK    1  A    between atoms: C_1  and  C_2
REMARK    2  A    between atoms: C_7  and  C_8
REMARK    3  A    between atoms: C_8  and  O_10
REMARK    4  A    between atoms: O_10  and  C_11
REMARK    5  A    between atoms: C_11  and  C_12
REMARK    6  A    between atoms: C_11  and  C_13
REMARK    7  A    between atoms: C_13  and  N_14
REMARK                            x       y       z     vdW  Elec       q    Type
REMARK                         _______ _______ _______ _____ _____    ______ ____
ROOT
ATOM      1  O   UNL     1       3.625   5.425  18.477  0.00  0.00    +0.000 OA
ENDROOT
BRANCH   1   2
ATOM      2  C   UNL     1       4.974   5.371  18.580  0.00  0.00    +0.000 C 
ATOM      3  O   UNL     1       5.604   5.431  19.628  0.00  0.00    +0.000 OA
BRANCH   2  10
ATOM      4  C   UNL     1       7.405   6.967  17.485  0.00  0.00    +0.000 C 
ATOM      5  C   UNL     1       6.711   5.862  16.739  0.00  0.00    +0.000 A 
ATOM      6  C   UNL     1       7.210   5.514  15.467  0.00  0.00    +0.000 A 
ATOM      7  C   UNL     1       6.646   4.475  14.726  0.00  0.00    +0.000 A 
ATOM      8  C   UNL     1       5.574   3.756  15.243  0.00  0.00    +0.000 A 
ATOM      9  C   UNL     1       5.068   4.081  16.503  0.00  0.00    +0.000 A 
ATOM     10  C   UNL     1       5.616   5.135  17.255  0.00  0.00    +0.000 A 
ENDBRANCH   2  10
ENDBRANCH   1   2
BRANCH   1  11
ATOM     11  C   UNL     1       2.898   5.660  19.703  0.00  0.00    +0.000 C 
ATOM     12  C   UNL     1       2.391   7.111  19.686  0.00  0.00    +0.000 C 
BRANCH  11  13
ATOM     13  C   UNL     1       1.685   4.700  19.778  0.00  0.00    +0.000 C 
BRANCH  13  14
ATOM     14  N   UNL     1       1.878   3.254  19.864  0.00  0.00    +0.000 NA
ATOM     15  C   UNL     1       3.046   2.734  20.575  0.00  0.00    +0.000 C 
ATOM     16  C   UNL     1       4.165   2.163  19.684  0.00  0.00    +0.000 C 
ATOM     17  O   UNL     1       3.654   1.270  18.686  0.00  0.00    +0.000 OA
ATOM     18  C   UNL     1       2.707   1.956  17.862  0.00  0.00    +0.000 C 
ATOM     19  C   UNL     1       1.518   2.458  18.690  0.00  0.00    +0.000 C 
ENDBRANCH  13  14
ENDBRANCH  11  13
ENDBRANCH   1  11
TORSDOF 5
ENDMDL
MODEL 3
REMARK VINA RESULT:      -6.4      2.238      5.577
REMARK  Name = 
REMARK  7 active torsions:
REMARK  status: ('A' for Active; 'I' for Inactive)
REMARK    1  A    between atoms: C_1  and  C_2
REMARK    2  A    between atoms: C_7  and  C_8
REMARK    3  A    between atoms: C_8  and  O_10
REMARK    4  A    between atoms: O_10  and  C_11
REMARK    5  A    between atoms: C_11  and  C_12
REMARK    6  A    between atoms: C_11  and  C_13
REMARK    7  A    between atoms: C_13  and  N_14
REMARK                            x       y       z     vdW  Elec       q    Type
REMARK                         _______ _______ _______ _____ _____    ______ ____
ROOT
ATOM      1  O   UNL     1       3.537   4.804  17.031  0.00  0.00    +0.000 OA
ENDROOT
BRANCH   1   2
ATOM      2  C   UNL     1       4.752   4.219  17.139  0.00  0.00    +0.000 C 
ATOM      3  O   UNL     1       4.989   3.038  16.917  0.00  0.00    +0.000 OA
BRANCH   2  10
ATOM      4  C   UNL     1       5.294   6.836  15.553  0.00  0.00    +0.000 C 
ATOM      5  C   UNL     1       6.078   6.398  16.759  0.00  0.00    +0.000 A 
ATOM      6  C   UNL     1       7.113   7.240  17.210  0.00  0.00    +0.000 A 
ATOM      7  C   UNL     1       7.864   6.925  18.343  0.00  0.00    +0.000 A 
ATOM      8  C   UNL     1       7.591   5.761  19.054  0.00  0.00    +0.000 A 
ATOM      9  C   UNL     1       6.566   4.915  18.626  0.00  0.00    +0.000 A 
ATOM     10  C   UNL     1       5.811   5.213  17.478  0.00  0.00    +0.000 A 
ENDBRANCH   2  10
ENDBRANCH   1   2
BRANCH   1  11
ATOM     11  C   UNL     1       2.862   5.112  18.270  0.00  0.00    +0.000 C 
ATOM     12  C   UNL     1       2.430   6.586  18.224  0.00  0.00    +0.000 C 
BRANCH  11  13
ATOM     13  C   UNL     1       1.604   4.219  18.411  0.00  0.00    +0.000 C 
BRANCH  13  14
ATOM     14  N   UNL     1       1.562   3.132  19.386  0.00  0.00    +0.000 NA
ATOM     15  C   UNL     1       1.048   3.402  20.729  0.00  0.00    +0.000 C 
ATOM     16  C   UNL     1       2.109   3.473  21.843  0.00  0.00    +0.000 C 
ATOM     17  O   UNL     1       3.021   2.369  21.788  0.00  0.00    +0.000 OA
ATOM     18  C   UNL     1       3.680   2.349  20.518  0.00  0.00    +0.000 C 
ATOM     19  C   UNL     1       2.671   2.178  19.376  0.00  0.00    +0.000 C 
ENDBRANCH  13  14
ENDBRANCH  11  13
ENDBRANCH   1  11
TORSDOF 5
ENDMDL
MODEL 4
REMARK VINA RESULT:      -6.3      1.501      2.127
REMARK  Name = 
REMARK  7 active torsions:
REMARK  status: ('A' for Active; 'I' for Inactive)
REMARK    1  A    between atoms: C_1  and  C_2
REMARK    2  A    between atoms: C_7  and  C_8
REMARK    3  A    between atoms: C_8  and  O_10
REMARK    4  A    between atoms: O_10  and  C_11
REMARK    5  A    between atoms: C_11  and  C_12
REMARK    6  A    between atoms: C_11  and  C_13
REMARK    7  A    between atoms: C_13  and  N_14
REMARK                            x       y       z     vdW  Elec       q    Type
REMARK                         _______ _______ _______ _____ _____    ______ ____
ROOT
ATOM      1  O   UNL     1       5.309   3.493  20.156  0.00  0.00    +0.000 OA
ENDROOT
BRANCH   1   2
ATOM      2  C   UNL     1       4.642   2.323  20.020  0.00  0.00    +0.000 C 
ATOM      3  O   UNL     1       5.160   1.214  20.004  0.00  0.00    +0.000 OA
BRANCH   2  10
ATOM      4  C   UNL     1       2.888   2.095  17.464  0.00  0.00    +0.000 C 
ATOM      5  C   UNL     1       2.360   2.448  18.827  0.00  0.00    +0.000 A 
ATOM      6  C   UNL     1       0.974   2.670  18.956  0.00  0.00    +0.000 A 
ATOM      7  C   UNL     1       0.398   2.966  20.191  0.00  0.00    +0.000 A 
ATOM      8  C   UNL     1       1.195   3.040  21.329  0.00  0.00    +0.000 A 
ATOM      9  C   UNL     1       2.570   2.818  21.223  0.00  0.00    +0.000 A 
ATOM     10  C   UNL     1       3.166   2.534  19.982  0.00  0.00    +0.000 A 
ENDBRANCH   2  10
ENDBRANCH   1   2
BRANCH   1  11
ATOM     11  C   UNL     1       5.215   4.416  19.049  0.00  0.00    +0.000 C 
ATOM     12  C   UNL     1       4.252   5.544  19.450  0.00  0.00    +0.000 C 
BRANCH  11  13
ATOM     13  C   UNL     1       6.612   5.021  18.759  0.00  0.00    +0.000 C 
BRANCH  13  14
ATOM     14  N   UNL     1       6.943   5.539  17.433  0.00  0.00    +0.000 NA
ATOM     15  C   UNL     1       6.314   6.779  16.978  0.00  0.00    +0.000 C 
ATOM     16  C   UNL     1       5.216   6.613  15.911  0.00  0.00    +0.000 C 
ATOM     17  O   UNL     1       5.632   5.753  14.842  0.00  0.00    +0.000 OA
ATOM     18  C   UNL     1       5.974   4.464  15.363  0.00  0.00    +0.000 C 
ATOM     19  C   UNL     1       7.135   4.563  16.360  0.00  0.00    +0.000 C 
ENDBRANCH  13  14
ENDBRANCH  11  13
ENDBRANCH   1  11
TORSDOF 5
ENDMDL
MODEL 5
REMARK VINA RESULT:      -6.3      2.096      3.485
REMARK  Name = 
REMARK  7 active torsions:
REMARK  status: ('A' for Active; 'I' for Inactive)
REMARK    1  A    between atoms: C_1  and  C_2
REMARK    2  A    between atoms: C_7  and  C_8
REMARK    3  A    between atoms: C_8  and  O_10
REMARK    4  A    between atoms: O_10  and  C_11
REMARK    5  A    between atoms: C_11  and  C_12
REMARK    6  A    between atoms: C_11  and  C_13
REMARK    7  A    between atoms: C_13  and  N_14
REMARK                            x       y       z     vdW  Elec       q    Type
REMARK                         _______ _______ _______ _____ _____    ______ ____
ROOT
ATOM      1  O   UNL     1       2.481   1.940  18.315  0.00  0.00    +0.000 OA
ENDROOT
BRANCH   1   2
ATOM      2  C   UNL     1       1.344   2.645  18.522  0.00  0.00    +0.000 C 
ATOM      3  O   UNL     1       0.208   2.206  18.394  0.00  0.00    +0.000 OA
BRANCH   2  10
ATOM      4  C   UNL     1       1.550   3.429  21.522  0.00  0.00    +0.000 C 
ATOM      5  C   UNL     1       1.717   4.393  20.381  0.00  0.00    +0.000 A 
ATOM      6  C   UNL     1       2.007   5.737  20.693  0.00  0.00    +0.000 A 
ATOM      7  C   UNL     1       2.213   6.686  19.692  0.00  0.00    +0.000 A 
ATOM      8  C   UNL     1       2.141   6.312  18.354  0.00  0.00    +0.000 A 
ATOM      9  C   UNL     1       1.861   4.985  18.024  0.00  0.00    +0.000 A 
ATOM     10  C   UNL     1       1.635   4.020  19.021  0.00  0.00    +0.000 A 
ENDBRANCH   2  10
ENDBRANCH   1   2
BRANCH   1  11
ATOM     11  C   UNL     1       3.718   2.606  18.647  0.00  0.00    +0.000 C 
ATOM     12  C   UNL     1       4.481   1.724  19.648  0.00  0.00    +0.000 C 
BRANCH  11  13
ATOM     13  C   UNL     1       4.574   2.778  17.367  0.00  0.00    +0.000 C 
BRANCH  13  14
ATOM     14  N   UNL     1       5.106   4.086  16.991  0.00  0.00    +0.000 NA
ATOM     15  C   UNL     1       5.329   4.382  15.576  0.00  0.00    +0.000 C 
ATOM     16  C   UNL     1       6.801   4.392  15.125  0.00  0.00    +0.000 C 
ATOM     17  O   UNL     1       7.629   5.156  16.010  0.00  0.00    +0.000 OA
ATOM     18  C   UNL     1       7.551   4.616  17.333  0.00  0.00    +0.000 C 
ATOM     19  C   UNL     1       6.116   4.677  17.869  0.00  0.00    +0.000 C 
ENDBRANCH  13  14
ENDBRANCH  11  13
ENDBRANCH   1  11
TORSDOF 5
ENDMDL
MODEL 6
REMARK VINA RESULT:      -6.1      1.352      2.386
REMARK  Name = 
REMARK  7 active torsions:
REMARK  status: ('A' for Active; 'I' for Inactive)
REMARK    1  A    between atoms: C_1  and  C_2
REMARK    2  A    between atoms: C_7  and  C_8
REMARK    3  A    between atoms: C_8  and  O_10
REMARK    4  A    between atoms: O_10  and  C_11
REMARK    5  A    between atoms: C_11  and  C_12
REMARK    6  A    between atoms: C_11  and  C_13
REMARK    7  A    between atoms: C_13  and  N_14
REMARK                            x       y       z     vdW  Elec       q    Type
REMARK                         _______ _______ _______ _____ _____    ______ ____
ROOT
ATOM      1  O   UNL     1       4.405   5.859  18.949  0.00  0.00    +0.000 OA
ENDROOT
BRANCH   1   2
ATOM      2  C   UNL     1       4.525   4.536  19.213  0.00  0.00    +0.000 C 
ATOM      3  O   UNL     1       5.565   3.971  19.524  0.00  0.00    +0.000 OA
BRANCH   2  10
ATOM      4  C   UNL     1       2.049   5.349  20.908  0.00  0.00    +0.000 C 
ATOM      5  C   UNL     1       2.075   4.196  19.944  0.00  0.00    +0.000 A 
ATOM      6  C   UNL     1       0.892   3.447  19.784  0.00  0.00    +0.000 A 
ATOM      7  C   UNL     1       0.822   2.385  18.882  0.00  0.00    +0.000 A 
ATOM      8  C   UNL     1       1.932   2.051  18.115  0.00  0.00    +0.000 A 
ATOM      9  C   UNL     1       3.113   2.783  18.254  0.00  0.00    +0.000 A 
ATOM     10  C   UNL     1       3.203   3.847  19.169  0.00  0.00    +0.000 A 
ENDBRANCH   2  10
ENDBRANCH   1   2
BRANCH   1  11
ATOM     11  C   UNL     1       3.869   6.208  17.655  0.00  0.00    +0.000 C 
ATOM     12  C   UNL     1       3.178   7.575  17.778  0.00  0.00    +0.000 C 
BRANCH  11  13
ATOM     13  C   UNL     1       5.022   6.312  16.627  0.00  0.00    +0.000 C 
BRANCH  13  14
ATOM     14  N   UNL     1       5.769   5.125  16.215  0.00  0.00    +0.000 NA
ATOM     15  C   UNL     1       7.147   5.280  15.747  0.00  0.00    +0.000 C 
ATOM     16  C   UNL     1       7.353   5.124  14.229  0.00  0.00    +0.000 C 
ATOM     17  O   UNL     1       6.699   3.956  13.716  0.00  0.00    +0.000 OA
ATOM     18  C   UNL     1       5.296   4.028  13.990  0.00  0.00    +0.000 C 
ATOM     19  C   UNL     1       5.032   4.084  15.500  0.00  0.00    +0.000 C 
ENDBRANCH  13  14
ENDBRANCH  11  13
ENDBRANCH   1  11
TORSDOF 5
ENDMDL
MODEL 7
REMARK VINA RESULT:      -6.1      2.049      5.616
REMARK  Name = 
REMARK  7 active torsions:
REMARK  status: ('A' for Active; 'I' for Inactive)
REMARK    1  A    between atoms: C_1  and  C_2
REMARK    2  A    between atoms: C_7  and  C_8
REMARK    3  A    between atoms: C_8  and  O_10
REMARK    4  A    between atoms: O_10  and  C_11
REMARK    5  A    between atoms: C_11  and  C_12
REMARK    6  A    between atoms: C_11  and  C_13
REMARK    7  A    between atoms: C_13  and  N_14
REMARK                            x       y       z     vdW  Elec       q    Type
REMARK                         _______ _______ _______ _____ _____    ______ ____
ROOT
ATOM      1  O   UNL     1       4.769   5.436  19.099  0.00  0.00    +0.000 OA
ENDROOT
BRANCH   1   2
ATOM      2  C   UNL     1       4.944   4.242  18.486  0.00  0.00    +0.000 C 
ATOM      3  O   UNL     1       4.528   3.168  18.901  0.00  0.00    +0.000 OA
BRANCH   2  10
ATOM      4  C   UNL     1       7.908   5.113  18.144  0.00  0.00    +0.000 C 
ATOM      5  C   UNL     1       6.978   4.804  17.004  0.00  0.00    +0.000 A 
ATOM      6  C   UNL     1       7.492   4.896  15.695  0.00  0.00    +0.000 A 
ATOM      7  C   UNL     1       6.706   4.590  14.583  0.00  0.00    +0.000 A 
ATOM      8  C   UNL     1       5.389   4.179  14.757  0.00  0.00    +0.000 A 
ATOM      9  C   UNL     1       4.862   4.076  16.046  0.00  0.00    +0.000 A 
ATOM     10  C   UNL     1       5.638   4.395  17.174  0.00  0.00    +0.000 A 
ENDBRANCH   2  10
ENDBRANCH   1   2
BRANCH   1  11
ATOM     11  C   UNL     1       3.524   6.116  18.833  0.00  0.00    +0.000 C 
ATOM     12  C   UNL     1       3.774   7.151  17.725  0.00  0.00    +0.000 C 
BRANCH  11  13
ATOM     13  C   UNL     1       2.469   5.093  18.343  0.00  0.00    +0.000 C 
BRANCH  13  14
ATOM     14  N   UNL     1       1.483   4.533  19.265  0.00  0.00    +0.000 NA
ATOM     15  C   UNL     1       1.611   4.811  20.696  0.00  0.00    +0.000 C 
ATOM     16  C   UNL     1       2.105   3.635  21.558  0.00  0.00    +0.000 C 
ATOM     17  O   UNL     1       1.399   2.422  21.268  0.00  0.00    +0.000 OA
ATOM     18  C   UNL     1       1.560   2.087  19.886  0.00  0.00    +0.000 C 
ATOM     19  C   UNL     1       0.989   3.186  18.982  0.00  0.00    +0.000 C 
ENDBRANCH  13  14
ENDBRANCH  11  13
ENDBRANCH   1  11
TORSDOF 5
ENDMDL
MODEL 8
REMARK VINA RESULT:      -6.1      2.138      5.894
REMARK  Name = 
REMARK  7 active torsions:
REMARK  status: ('A' for Active; 'I' for Inactive)
REMARK    1  A    between atoms: C_1  and  C_2
REMARK    2  A    between atoms: C_7  and  C_8
REMARK    3  A    between atoms: C_8  and  O_10
REMARK    4  A    between atoms: O_10  and  C_11
REMARK    5  A    between atoms: C_11  and  C_12
REMARK    6  A    between atoms: C_11  and  C_13
REMARK    7  A    between atoms: C_13  and  N_14
REMARK                            x       y       z     vdW  Elec       q    Type
REMARK                         _______ _______ _______ _____ _____    ______ ____
ROOT
ATOM      1  O   UNL     1       4.266   3.810  17.426  0.00  0.00    +0.000 OA
ENDROOT
BRANCH   1   2
ATOM      2  C   UNL     1       5.412   3.952  16.720  0.00  0.00    +0.000 C 
ATOM      3  O   UNL     1       5.731   3.276  15.750  0.00  0.00    +0.000 OA
BRANCH   2  10
ATOM      4  C   UNL     1       5.126   6.871  15.693  0.00  0.00    +0.000 C 
ATOM      5  C   UNL     1       6.110   6.434  16.742  0.00  0.00    +0.000 A 
ATOM      6  C   UNL     1       6.943   7.418  17.312  0.00  0.00    +0.000 A 
ATOM      7  C   UNL     1       7.857   7.103  18.317  0.00  0.00    +0.000 A 
ATOM      8  C   UNL     1       7.954   5.795  18.781  0.00  0.00    +0.000 A 
ATOM      9  C   UNL     1       7.134   4.806  18.234  0.00  0.00    +0.000 A 
ATOM     10  C   UNL     1       6.219   5.106  17.210  0.00  0.00    +0.000 A 
ENDBRANCH   2  10
ENDBRANCH   1   2
BRANCH   1  11
ATOM     11  C   UNL     1       3.946   2.472  17.865  0.00  0.00    +0.000 C 
ATOM     12  C   UNL     1       4.257   2.376  19.367  0.00  0.00    +0.000 C 
BRANCH  11  13
ATOM     13  C   UNL     1       2.437   2.201  17.641  0.00  0.00    +0.000 C 
BRANCH  13  14
ATOM     14  N   UNL     1       1.425   3.106  18.180  0.00  0.00    +0.000 NA
ATOM     15  C   UNL     1       1.689   4.545  18.186  0.00  0.00    +0.000 C 
ATOM     16  C   UNL     1       2.013   5.154  19.564  0.00  0.00    +0.000 C 
ATOM     17  O   UNL     1       1.081   4.736  20.568  0.00  0.00    +0.000 OA
ATOM     18  C   UNL     1       1.092   3.309  20.676  0.00  0.00    +0.000 C 
ATOM     19  C   UNL     1       0.677   2.653  19.354  0.00  0.00    +0.000 C 
ENDBRANCH  13  14
ENDBRANCH  11  13
ENDBRANCH   1  11
TORSDOF 5
ENDMDL
MODEL 9
REMARK VINA RESULT:      -6.1      1.704      2.430
REMARK  Name = 
REMARK  7 active torsions:
REMARK  status: ('A' for Active; 'I' for Inactive)
REMARK    1  A    between atoms: C_1  and  C_2
REMARK    2  A    between atoms: C_7  and  C_8
REMARK    3  A    between atoms: C_8  and  O_10
REMARK    4  A    between atoms: O_10  and  C_11
REMARK    5  A    between atoms: C_11  and  C_12
REMARK    6  A    between atoms: C_11  and  C_13
REMARK    7  A    between atoms: C_13  and  N_14
REMARK                            x       y       z     vdW  Elec       q    Type
REMARK                         _______ _______ _______ _____ _____    ______ ____
ROOT
ATOM      1  O   UNL     1       3.983   6.331  19.397  0.00  0.00    +0.000 OA
ENDROOT
BRANCH   1   2
ATOM      2  C   UNL     1       2.646   6.326  19.611  0.00  0.00    +0.000 C 
ATOM      3  O   UNL     1       1.909   7.296  19.489  0.00  0.00    +0.000 OA
BRANCH   2  10
ATOM      4  C   UNL     1       1.361   4.386  17.551  0.00  0.00    +0.000 C 
ATOM      5  C   UNL     1       1.548   4.072  19.009  0.00  0.00    +0.000 A 
ATOM      6  C   UNL     1       1.131   2.806  19.467  0.00  0.00    +0.000 A 
ATOM      7  C   UNL     1       1.304   2.422  20.797  0.00  0.00    +0.000 A 
ATOM      8  C   UNL     1       1.902   3.294  21.699  0.00  0.00    +0.000 A 
ATOM      9  C   UNL     1       2.327   4.551  21.265  0.00  0.00    +0.000 A 
ATOM     10  C   UNL     1       2.147   4.958  19.931  0.00  0.00    +0.000 A 
ENDBRANCH   2  10
ENDBRANCH   1   2
BRANCH   1  11
ATOM     11  C   UNL     1       4.425   5.888  18.096  0.00  0.00    +0.000 C 
ATOM     12  C   UNL     1       4.692   7.132  17.234  0.00  0.00    +0.000 C 
BRANCH  11  13
ATOM     13  C   UNL     1       5.738   5.080  18.242  0.00  0.00    +0.000 C 
BRANCH  13  14
ATOM     14  N   UNL     1       6.199   4.198  17.171  0.00  0.00    +0.000 NA
ATOM     15  C   UNL     1       7.465   4.496  16.502  0.00  0.00    +0.000 C 
ATOM     16  C   UNL     1       7.343   5.068  15.077  0.00  0.00    +0.000 C 
ATOM     17  O   UNL     1       6.430   4.313  14.271  0.00  0.00    +0.000 OA
ATOM     18  C   UNL     1       5.136   4.306  14.883  0.00  0.00    +0.000 C 
ATOM     19  C   UNL     1       5.185   3.653  16.269  0.00  0.00    +0.000 C 
ENDBRANCH  13  14
ENDBRANCH  11  13
ENDBRANCH   1  11
TORSDOF 5
ENDMDL
