MODEL 1
REMARK VINA RESULT:      -7.7      0.000      0.000
REMARK  Name = 
REMARK  5 active torsions:
REMARK  status: ('A' for Active; 'I' for Inactive)
REMARK    1  A    between atoms: C_1  and  O_2
REMARK    2  A    between atoms: O_2  and  C_3
REMARK    3  A    between atoms: C_7  and  C_8
REMARK    4  A    between atoms: C_8  and  C_9
REMARK    5  A    between atoms: N_11  and  C_12
REMARK                            x       y       z     vdW  Elec       q    Type
REMARK                         _______ _______ _______ _____ _____    ______ ____
ROOT
ATOM      1  C   UNL     1       4.174   4.474  17.409  0.00  0.00    +0.000 C 
ATOM      2  C   UNL     1       3.236   3.530  16.641  0.00  0.00    +0.000 C 
ATOM      3  N   UNL     1       1.990   3.292  17.376  0.00  0.00    +0.000 NA
ATOM      4  C   UNL     1       1.354   4.582  17.691  0.00  0.00    +0.000 C 
ATOM      5  C   UNL     1       2.315   5.626  18.299  0.00  0.00    +0.000 C 
ATOM      6  O   UNL     1       3.526   5.757  17.534  0.00  0.00    +0.000 OA
ENDROOT
BRANCH   3   7
ATOM      7  C   UNL     1       1.910   2.225  18.392  0.00  0.00    +0.000 C 
ATOM      8  C   UNL     1       3.250   1.822  19.052  0.00  0.00    +0.000 C 
ATOM      9  C   UNL     1       3.660   2.701  20.235  0.00  0.00    +0.000 C 
ATOM     10  C   UNL     1       2.570   2.813  21.291  0.00  0.00    +0.000 C 
ATOM     11  C   UNL     1       1.175   3.090  20.742  0.00  0.00    +0.000 C 
ATOM     12  C   UNL     1       0.826   2.281  19.494  0.00  0.00    +0.000 C 
ENDBRANCH   3   7
BRANCH   1  13
ATOM     13  C   UNL     1       5.532   4.604  16.710  0.00  0.00    +0.000 C 
BRANCH  13  18
ATOM     14  C   UNL     1       7.596   7.675  17.667  0.00  0.00    +0.000 A 
ATOM     15  C   UNL     1       8.292   7.178  18.771  0.00  0.00    +0.000 A 
ATOM     16  C   UNL     1       8.061   5.884  19.236  0.00  0.00    +0.000 A 
ATOM     17  C   UNL     1       7.143   5.067  18.586  0.00  0.00    +0.000 A 
ATOM     18  C   UNL     1       6.436   5.546  17.477  0.00  0.00    +0.000 A 
ATOM     19  C   UNL     1       6.655   6.864  17.029  0.00  0.00    +0.000 A 
BRANCH  14  21
ATOM     20  C   UNL     1       8.620   9.737  18.273  0.00  0.00    +0.000 C 
ATOM     21  O   UNL     1       7.948   8.947  17.302  0.00  0.00    +0.000 OA
ENDBRANCH  14  21
ENDBRANCH  13  18
ENDBRANCH   1  13
TORSDOF 4
ENDMDL
MODEL 2
REMARK VINA RESULT:      -7.6      2.193      3.044
REMARK  Name = 
REMARK  5 active torsions:
REMARK  status: ('A' for Active; 'I' for Inactive)
REMARK    1  A    between atoms: C_1  and  O_2
REMARK    2  A    between atoms: O_2  and  C_3
REMARK    3  A    between atoms: C_7  and  C_8
REMARK    4  A    between atoms: C_8  and  C_9
REMARK    5  A    between atoms: N_11  and  C_12
REMARK                            x       y       z     vdW  Elec       q    Type
REMARK                         _______ _______ _______ _____ _____    ______ ____
ROOT
ATOM      1  C   UNL     1       2.998   5.713  18.725  0.00  0.00    +0.000 C 
ATOM      2  C   UNL     1       1.806   5.005  18.065  0.00  0.00    +0.000 C 
ATOM      3  N   UNL     1       1.155   4.070  18.988  0.00  0.00    +0.000 NA
ATOM      4  C   UNL     1       0.774   4.783  20.220  0.00  0.00    +0.000 C 
ATOM      5  C   UNL     1       1.900   5.656  20.814  0.00  0.00    +0.000 C 
ATOM      6  O   UNL     1       2.506   6.506  19.825  0.00  0.00    +0.000 OA
ENDROOT
BRANCH   3   7
ATOM      7  C   UNL     1       1.647   2.686  19.125  0.00  0.00    +0.000 C 
ATOM      8  C   UNL     1       2.404   2.116  17.902  0.00  0.00    +0.000 C 
ATOM      9  C   UNL     1       3.891   2.474  17.859  0.00  0.00    +0.000 C 
ATOM     10  C   UNL     1       4.622   2.108  19.144  0.00  0.00    +0.000 C 
ATOM     11  C   UNL     1       3.903   2.515  20.425  0.00  0.00    +0.000 C 
ATOM     12  C   UNL     1       2.399   2.252  20.405  0.00  0.00    +0.000 C 
ENDBRANCH   3   7
BRANCH   1  13
ATOM     13  C   UNL     1       3.764   6.577  17.716  0.00  0.00    +0.000 C 
BRANCH  13  18
ATOM     14  C   UNL     1       6.633   4.944  15.789  0.00  0.00    +0.000 A 
ATOM     15  C   UNL     1       7.470   4.578  16.845  0.00  0.00    +0.000 A 
ATOM     16  C   UNL     1       7.142   4.901  18.161  0.00  0.00    +0.000 A 
ATOM     17  C   UNL     1       5.958   5.576  18.435  0.00  0.00    +0.000 A 
ATOM     18  C   UNL     1       5.104   5.950  17.390  0.00  0.00    +0.000 A 
ATOM     19  C   UNL     1       5.456   5.645  16.061  0.00  0.00    +0.000 A 
BRANCH  14  21
ATOM     20  C   UNL     1       6.106   3.915  13.708  0.00  0.00    +0.000 C 
ATOM     21  O   UNL     1       7.064   4.533  14.556  0.00  0.00    +0.000 OA
ENDBRANCH  14  21
ENDBRANCH  13  18
ENDBRANCH   1  13
TORSDOF 4
ENDMDL
MODEL 3
REMARK VINA RESULT:      -7.3      4.065      6.151
REMARK  Name = 
REMARK  5 active torsions:
REMARK  status: ('A' for Active; 'I' for Inactive)
REMARK    1  A    between atoms: C_1  and  O_2
REMARK    2  A    between atoms: O_2  and  C_3
REMARK    3  A    between atoms: C_7  and  C_8
REMARK    4  A    between atoms: C_8  and  C_9
REMARK    5  A    between atoms: N_11  and  C_12
REMARK                            x       y       z     vdW  Elec       q    Type
REMARK                         _______ _______ _______ _____ _____    ______ ____
ROOT
ATOM      1  C   UNL     1       6.672   4.418  15.214  0.00  0.00    +0.000 C 
ATOM      2  C   UNL     1       5.430   5.185  15.689  0.00  0.00    +0.000 C 
ATOM      3  N   UNL     1       5.065   4.824  17.063  0.00  0.00    +0.000 NA
ATOM      4  C   UNL     1       6.224   5.030  17.947  0.00  0.00    +0.000 C 
ATOM      5  C   UNL     1       7.540   4.426  17.410  0.00  0.00    +0.000 C 
ATOM      6  O   UNL     1       7.788   4.800  16.044  0.00  0.00    +0.000 OA
ENDROOT
BRANCH   3   7
ATOM      7  C   UNL     1       4.203   3.657  17.328  0.00  0.00    +0.000 C 
ATOM      8  C   UNL     1       4.226   3.119  18.779  0.00  0.00    +0.000 C 
ATOM      9  C   UNL     1       3.273   3.841  19.734  0.00  0.00    +0.000 C 
ATOM     10  C   UNL     1       1.843   3.888  19.216  0.00  0.00    +0.000 C 
ATOM     11  C   UNL     1       1.707   4.290  17.751  0.00  0.00    +0.000 C 
ATOM     12  C   UNL     1       2.739   3.643  16.830  0.00  0.00    +0.000 C 
ENDBRANCH   3   7
BRANCH   1  13
ATOM     13  C   UNL     1       6.963   4.686  13.733  0.00  0.00    +0.000 C 
BRANCH  13  18
ATOM     14  C   UNL     1       5.988   1.812  11.410  0.00  0.00    +0.000 A 
ATOM     15  C   UNL     1       4.697   2.206  11.048  0.00  0.00    +0.000 A 
ATOM     16  C   UNL     1       4.125   3.357  11.589  0.00  0.00    +0.000 A 
ATOM     17  C   UNL     1       4.850   4.138  12.482  0.00  0.00    +0.000 A 
ATOM     18  C   UNL     1       6.146   3.761  12.856  0.00  0.00    +0.000 A 
ATOM     19  C   UNL     1       6.706   2.582  12.326  0.00  0.00    +0.000 A 
BRANCH  14  21
ATOM     20  C   UNL     1       6.120  -0.565  11.381  0.00  0.00    +0.000 C 
ATOM     21  O   UNL     1       6.432   0.682  10.777  0.00  0.00    +0.000 OA
ENDBRANCH  14  21
ENDBRANCH  13  18
ENDBRANCH   1  13
TORSDOF 4
ENDMDL
MODEL 4
REMARK VINA RESULT:      -7.2      1.969      2.890
REMARK  Name = 
REMARK  5 active torsions:
REMARK  status: ('A' for Active; 'I' for Inactive)
REMARK    1  A    between atoms: C_1  and  O_2
REMARK    2  A    between atoms: O_2  and  C_3
REMARK    3  A    between atoms: C_7  and  C_8
REMARK    4  A    between atoms: C_8  and  C_9
REMARK    5  A    between atoms: N_11  and  C_12
REMARK                            x       y       z     vdW  Elec       q    Type
REMARK                         _______ _______ _______ _____ _____    ______ ____
ROOT
ATOM      1  C   UNL     1       2.827   5.498  18.615  0.00  0.00    +0.000 C 
ATOM      2  C   UNL     1       1.632   4.628  18.201  0.00  0.00    +0.000 C 
ATOM      3  N   UNL     1       1.072   3.901  19.345  0.00  0.00    +0.000 NA
ATOM      4  C   UNL     1       0.728   4.857  20.412  0.00  0.00    +0.000 C 
ATOM      5  C   UNL     1       1.847   5.872  20.730  0.00  0.00    +0.000 C 
ATOM      6  O   UNL     1       2.362   6.500  19.542  0.00  0.00    +0.000 OA
ENDROOT
BRANCH   3   7
ATOM      7  C   UNL     1       1.628   2.597  19.751  0.00  0.00    +0.000 C 
ATOM      8  C   UNL     1       2.041   1.652  18.597  0.00  0.00    +0.000 C 
ATOM      9  C   UNL     1       3.447   1.904  18.048  0.00  0.00    +0.000 C 
ATOM     10  C   UNL     1       4.513   1.898  19.135  0.00  0.00    +0.000 C 
ATOM     11  C   UNL     1       4.158   2.703  20.380  0.00  0.00    +0.000 C 
ATOM     12  C   UNL     1       2.716   2.523  20.848  0.00  0.00    +0.000 C 
ENDBRANCH   3   7
BRANCH   1  13
ATOM     13  C   UNL     1       3.500   6.140  17.396  0.00  0.00    +0.000 C 
BRANCH  13  18
ATOM     14  C   UNL     1       7.062   4.811  17.792  0.00  0.00    +0.000 A 
ATOM     15  C   UNL     1       7.340   4.437  16.476  0.00  0.00    +0.000 A 
ATOM     16  C   UNL     1       6.372   4.559  15.480  0.00  0.00    +0.000 A 
ATOM     17  C   UNL     1       5.120   5.080  15.789  0.00  0.00    +0.000 A 
ATOM     18  C   UNL     1       4.823   5.463  17.103  0.00  0.00    +0.000 A 
ATOM     19  C   UNL     1       5.797   5.311  18.109  0.00  0.00    +0.000 A 
BRANCH  14  21
ATOM     20  C   UNL     1       8.194   5.582  19.740  0.00  0.00    +0.000 C 
ATOM     21  O   UNL     1       8.115   4.667  18.656  0.00  0.00    +0.000 OA
ENDBRANCH  14  21
ENDBRANCH  13  18
ENDBRANCH   1  13
TORSDOF 4
ENDMDL
MODEL 5
REMARK VINA RESULT:      -7.1      1.236      1.845
REMARK  Name = 
REMARK  5 active torsions:
REMARK  status: ('A' for Active; 'I' for Inactive)
REMARK    1  A    between atoms: C_1  and  O_2
REMARK    2  A    between atoms: O_2  and  C_3
REMARK    3  A    between atoms: C_7  and  C_8
REMARK    4  A    between atoms: C_8  and  C_9
REMARK    5  A    between atoms: N_11  and  C_12
REMARK                            x       y       z     vdW  Elec       q    Type
REMARK                         _______ _______ _______ _____ _____    ______ ____
ROOT
ATOM      1  C   UNL     1       3.046   5.293  18.643  0.00  0.00    +0.000 C 
ATOM      2  C   UNL     1       1.813   4.513  18.165  0.00  0.00    +0.000 C 
ATOM      3  N   UNL     1       1.103   3.887  19.285  0.00  0.00    +0.000 NA
ATOM      4  C   UNL     1       0.764   4.915  20.285  0.00  0.00    +0.000 C 
ATOM      5  C   UNL     1       1.941   5.842  20.656  0.00  0.00    +0.000 C 
ATOM      6  O   UNL     1       2.601   6.371  19.493  0.00  0.00    +0.000 OA
ENDROOT
BRANCH   3   7
ATOM      7  C   UNL     1       1.507   2.559  19.782  0.00  0.00    +0.000 C 
ATOM      8  C   UNL     1       1.998   1.559  18.709  0.00  0.00    +0.000 C 
ATOM      9  C   UNL     1       3.479   1.700  18.348  0.00  0.00    +0.000 C 
ATOM     10  C   UNL     1       4.389   1.649  19.566  0.00  0.00    +0.000 C 
ATOM     11  C   UNL     1       3.933   2.507  20.741  0.00  0.00    +0.000 C 
ATOM     12  C   UNL     1       2.432   2.438  21.015  0.00  0.00    +0.000 C 
ENDBRANCH   3   7
BRANCH   1  13
ATOM     13  C   UNL     1       3.866   5.821  17.461  0.00  0.00    +0.000 C 
BRANCH  13  18
ATOM     14  C   UNL     1       7.323   7.441  17.663  0.00  0.00    +0.000 A 
ATOM     15  C   UNL     1       7.965   6.557  18.533  0.00  0.00    +0.000 A 
ATOM     16  C   UNL     1       7.278   5.480  19.092  0.00  0.00    +0.000 A 
ATOM     17  C   UNL     1       5.943   5.266  18.768  0.00  0.00    +0.000 A 
ATOM     18  C   UNL     1       5.282   6.139  17.896  0.00  0.00    +0.000 A 
ATOM     19  C   UNL     1       5.975   7.240  17.357  0.00  0.00    +0.000 A 
BRANCH  14  21
ATOM     20  C   UNL     1       8.364   9.555  18.000  0.00  0.00    +0.000 C 
ATOM     21  O   UNL     1       8.128   8.430  17.165  0.00  0.00    +0.000 OA
ENDBRANCH  14  21
ENDBRANCH  13  18
ENDBRANCH   1  13
TORSDOF 4
ENDMDL
MODEL 6
REMARK VINA RESULT:      -6.9      2.244      3.389
REMARK  Name = 
REMARK  5 active torsions:
REMARK  status: ('A' for Active; 'I' for Inactive)
REMARK    1  A    between atoms: C_1  and  O_2
REMARK    2  A    between atoms: O_2  and  C_3
REMARK    3  A    between atoms: C_7  and  C_8
REMARK    4  A    between atoms: C_8  and  C_9
REMARK    5  A    between atoms: N_11  and  C_12
REMARK                            x       y       z     vdW  Elec       q    Type
REMARK                         _______ _______ _______ _____ _____    ______ ____
ROOT
ATOM      1  C   UNL     1       3.256   6.542  18.598  0.00  0.00    +0.000 C 
ATOM      2  C   UNL     1       2.221   5.464  18.244  0.00  0.00    +0.000 C 
ATOM      3  N   UNL     1       1.636   4.862  19.446  0.00  0.00    +0.000 NA
ATOM      4  C   UNL     1       1.074   5.921  20.301  0.00  0.00    +0.000 C 
ATOM      5  C   UNL     1       2.025   7.115  20.530  0.00  0.00    +0.000 C 
ATOM      6  O   UNL     1       2.582   7.608  19.299  0.00  0.00    +0.000 OA
ENDROOT
BRANCH   3   7
ATOM      7  C   UNL     1       2.298   3.726  20.114  0.00  0.00    +0.000 C 
ATOM      8  C   UNL     1       1.634   2.343  19.907  0.00  0.00    +0.000 C 
ATOM      9  C   UNL     1       2.055   1.628  18.621  0.00  0.00    +0.000 C 
ATOM     10  C   UNL     1       3.566   1.510  18.481  0.00  0.00    +0.000 C 
ATOM     11  C   UNL     1       4.338   2.790  18.783  0.00  0.00    +0.000 C 
ATOM     12  C   UNL     1       3.830   3.547  20.008  0.00  0.00    +0.000 C 
ENDBRANCH   3   7
BRANCH   1  13
ATOM     13  C   UNL     1       3.970   7.064  17.347  0.00  0.00    +0.000 C 
BRANCH  13  18
ATOM     14  C   UNL     1       6.457   4.728  15.623  0.00  0.00    +0.000 A 
ATOM     15  C   UNL     1       7.382   4.540  16.653  0.00  0.00    +0.000 A 
ATOM     16  C   UNL     1       7.237   5.201  17.872  0.00  0.00    +0.000 A 
ATOM     17  C   UNL     1       6.149   6.042  18.080  0.00  0.00    +0.000 A 
ATOM     18  C   UNL     1       5.210   6.242  17.061  0.00  0.00    +0.000 A 
ATOM     19  C   UNL     1       5.378   5.592  15.823  0.00  0.00    +0.000 A 
BRANCH  14  21
ATOM     20  C   UNL     1       5.673   3.925  13.524  0.00  0.00    +0.000 C 
ATOM     21  O   UNL     1       6.707   3.992  14.496  0.00  0.00    +0.000 OA
ENDBRANCH  14  21
ENDBRANCH  13  18
ENDBRANCH   1  13
TORSDOF 4
ENDMDL
MODEL 7
REMARK VINA RESULT:      -6.8      3.067      4.663
REMARK  Name = 
REMARK  5 active torsions:
REMARK  status: ('A' for Active; 'I' for Inactive)
REMARK    1  A    between atoms: C_1  and  O_2
REMARK    2  A    between atoms: O_2  and  C_3
REMARK    3  A    between atoms: C_7  and  C_8
REMARK    4  A    between atoms: C_8  and  C_9
REMARK    5  A    between atoms: N_11  and  C_12
REMARK                            x       y       z     vdW  Elec       q    Type
REMARK                         _______ _______ _______ _____ _____    ______ ____
ROOT
ATOM      1  C   UNL     1       5.946   4.946  17.090  0.00  0.00    +0.000 C 
ATOM      2  C   UNL     1       4.733   4.010  17.189  0.00  0.00    +0.000 C 
ATOM      3  N   UNL     1       3.661   4.598  17.999  0.00  0.00    +0.000 NA
ATOM      4  C   UNL     1       3.308   5.921  17.456  0.00  0.00    +0.000 C 
ATOM      5  C   UNL     1       4.523   6.829  17.170  0.00  0.00    +0.000 C 
ATOM      6  O   UNL     1       5.538   6.150  16.409  0.00  0.00    +0.000 OA
ENDROOT
BRANCH   3   7
ATOM      7  C   UNL     1       3.655   4.439  19.465  0.00  0.00    +0.000 C 
ATOM      8  C   UNL     1       2.621   5.298  20.231  0.00  0.00    +0.000 C 
ATOM      9  C   UNL     1       1.225   4.679  20.315  0.00  0.00    +0.000 C 
ATOM     10  C   UNL     1       1.242   3.262  20.872  0.00  0.00    +0.000 C 
ATOM     11  C   UNL     1       2.309   2.353  20.272  0.00  0.00    +0.000 C 
ATOM     12  C   UNL     1       3.669   3.025  20.093  0.00  0.00    +0.000 C 
ENDBRANCH   3   7
BRANCH   1  13
ATOM     13  C   UNL     1       7.117   4.270  16.370  0.00  0.00    +0.000 C 
BRANCH  13  18
ATOM     14  C   UNL     1       6.040   3.656  12.754  0.00  0.00    +0.000 A 
ATOM     15  C   UNL     1       6.900   4.528  12.082  0.00  0.00    +0.000 A 
ATOM     16  C   UNL     1       7.780   5.347  12.789  0.00  0.00    +0.000 A 
ATOM     17  C   UNL     1       7.823   5.283  14.177  0.00  0.00    +0.000 A 
ATOM     18  C   UNL     1       6.971   4.414  14.869  0.00  0.00    +0.000 A 
ATOM     19  C   UNL     1       6.066   3.610  14.149  0.00  0.00    +0.000 A 
BRANCH  14  21
ATOM     20  C   UNL     1       5.813   1.674  11.454  0.00  0.00    +0.000 C 
ATOM     21  O   UNL     1       5.256   2.890  11.933  0.00  0.00    +0.000 OA
ENDBRANCH  14  21
ENDBRANCH  13  18
ENDBRANCH   1  13
TORSDOF 4
ENDMDL
MODEL 8
REMARK VINA RESULT:      -6.7      2.087      3.130
REMARK  Name = 
REMARK  5 active torsions:
REMARK  status: ('A' for Active; 'I' for Inactive)
REMARK    1  A    between atoms: C_1  and  O_2
REMARK    2  A    between atoms: O_2  and  C_3
REMARK    3  A    between atoms: C_7  and  C_8
REMARK    4  A    between atoms: C_8  and  C_9
REMARK    5  A    between atoms: N_11  and  C_12
REMARK                            x       y       z     vdW  Elec       q    Type
REMARK                         _______ _______ _______ _____ _____    ______ ____
ROOT
ATOM      1  C   UNL     1       3.129   6.618  18.671  0.00  0.00    +0.000 C 
ATOM      2  C   UNL     1       2.113   5.514  18.341  0.00  0.00    +0.000 C 
ATOM      3  N   UNL     1       1.559   4.909  19.556  0.00  0.00    +0.000 NA
ATOM      4  C   UNL     1       0.986   5.964  20.410  0.00  0.00    +0.000 C 
ATOM      5  C   UNL     1       1.913   7.181  20.615  0.00  0.00    +0.000 C 
ATOM      6  O   UNL     1       2.441   7.675  19.372  0.00  0.00    +0.000 OA
ENDROOT
BRANCH   3   7
ATOM      7  C   UNL     1       2.256   3.795  20.224  0.00  0.00    +0.000 C 
ATOM      8  C   UNL     1       1.562   2.415  20.133  0.00  0.00    +0.000 C 
ATOM      9  C   UNL     1       1.875   1.636  18.854  0.00  0.00    +0.000 C 
ATOM     10  C   UNL     1       3.369   1.487  18.605  0.00  0.00    +0.000 C 
ATOM     11  C   UNL     1       4.177   2.767  18.788  0.00  0.00    +0.000 C 
ATOM     12  C   UNL     1       3.774   3.587  20.011  0.00  0.00    +0.000 C 
ENDBRANCH   3   7
BRANCH   1  13
ATOM     13  C   UNL     1       3.813   7.145  17.404  0.00  0.00    +0.000 C 
BRANCH  13  18
ATOM     14  C   UNL     1       7.066   5.146  17.583  0.00  0.00    +0.000 A 
ATOM     15  C   UNL     1       7.236   4.820  16.235  0.00  0.00    +0.000 A 
ATOM     16  C   UNL     1       6.286   5.192  15.285  0.00  0.00    +0.000 A 
ATOM     17  C   UNL     1       5.164   5.916  15.674  0.00  0.00    +0.000 A 
ATOM     18  C   UNL     1       4.976   6.255  17.019  0.00  0.00    +0.000 A 
ATOM     19  C   UNL     1       5.927   5.851  17.977  0.00  0.00    +0.000 A 
BRANCH  14  21
ATOM     20  C   UNL     1       8.189   5.367  19.670  0.00  0.00    +0.000 C 
ATOM     21  O   UNL     1       8.093   4.746  18.396  0.00  0.00    +0.000 OA
ENDBRANCH  14  21
ENDBRANCH  13  18
ENDBRANCH   1  13
TORSDOF 4
ENDMDL
MODEL 9
REMARK VINA RESULT:      -6.7      3.256      4.926
REMARK  Name = 
REMARK  5 active torsions:
REMARK  status: ('A' for Active; 'I' for Inactive)
REMARK    1  A    between atoms: C_1  and  O_2
REMARK    2  A    between atoms: O_2  and  C_3
REMARK    3  A    between atoms: C_7  and  C_8
REMARK    4  A    between atoms: C_8  and  C_9
REMARK    5  A    between atoms: N_11  and  C_12
REMARK                            x       y       z     vdW  Elec       q    Type
REMARK                         _______ _______ _______ _____ _____    ______ ____
ROOT
ATOM      1  C   UNL     1       5.324   5.095  16.460  0.00  0.00    +0.000 C 
ATOM      2  C   UNL     1       4.197   5.463  17.436  0.00  0.00    +0.000 C 
ATOM      3  N   UNL     1       4.222   4.617  18.634  0.00  0.00    +0.000 NA
ATOM      4  C   UNL     1       5.554   4.693  19.258  0.00  0.00    +0.000 C 
ATOM      5  C   UNL     1       6.724   4.509  18.268  0.00  0.00    +0.000 C 
ATOM      6  O   UNL     1       6.588   5.347  17.107  0.00  0.00    +0.000 OA
ENDROOT
BRANCH   3   7
ATOM      7  C   UNL     1       3.536   3.312  18.645  0.00  0.00    +0.000 C 
ATOM      8  C   UNL     1       3.723   2.464  19.926  0.00  0.00    +0.000 C 
ATOM      9  C   UNL     1       2.750   2.807  21.055  0.00  0.00    +0.000 C 
ATOM     10  C   UNL     1       1.294   2.770  20.610  0.00  0.00    +0.000 C 
ATOM     11  C   UNL     1       1.013   3.475  19.288  0.00  0.00    +0.000 C 
ATOM     12  C   UNL     1       2.057   3.207  18.206  0.00  0.00    +0.000 C 
ENDBRANCH   3   7
BRANCH   1  13
ATOM     13  C   UNL     1       5.206   5.879  15.148  0.00  0.00    +0.000 C 
BRANCH  13  18
ATOM     14  C   UNL     1       5.849   3.283  12.417  0.00  0.00    +0.000 A 
ATOM     15  C   UNL     1       7.177   3.576  12.097  0.00  0.00    +0.000 A 
ATOM     16  C   UNL     1       7.843   4.634  12.716  0.00  0.00    +0.000 A 
ATOM     17  C   UNL     1       7.190   5.396  13.678  0.00  0.00    +0.000 A 
ATOM     18  C   UNL     1       5.860   5.117  14.014  0.00  0.00    +0.000 A 
ATOM     19  C   UNL     1       5.185   4.064  13.365  0.00  0.00    +0.000 A 
BRANCH  14  21
ATOM     20  C   UNL     1       6.261   1.310  11.149  0.00  0.00    +0.000 C 
ATOM     21  O   UNL     1       5.334   2.199  11.757  0.00  0.00    +0.000 OA
ENDBRANCH  14  21
ENDBRANCH  13  18
ENDBRANCH   1  13
TORSDOF 4
ENDMDL
