MODEL 1
REMARK VINA RESULT:      -7.2      0.000      0.000
REMARK  Name = 
REMARK  18 active torsions:
REMARK  status: ('A' for Active; 'I' for Inactive)
REMARK    1  A    between atoms: C_1  and  C_2
REMARK    2  A    between atoms: C_2  and  C_3
REMARK    3  A    between atoms: C_2  and  C_4
REMARK    4  A    between atoms: C_2  and  C_23
REMARK    5  A    between atoms: C_4  and  C_5
REMARK    6  A    between atoms: C_5  and  C_6
REMARK    7  A    between atoms: C_6  and  C_7
REMARK    8  A    between atoms: C_10  and  C_11
REMARK    9  A    between atoms: C_11  and  C_12
REMARK   10  A    between atoms: C_12  and  C_13
REMARK   11  A    between atoms: C_13  and  C_14
REMARK   12  A    between atoms: C_14  and  C_15
REMARK   13  A    between atoms: C_14  and  C_16
REMARK   14  A    between atoms: C_14  and  C_17
REMARK   15  A    between atoms: C_17  and  C_18
REMARK   16  A    between atoms: C_18  and  O_20
REMARK   17  A    between atoms: C_23  and  C_24
REMARK   18  A    between atoms: C_24  and  O_26
REMARK                            x       y       z     vdW  Elec       q    Type
REMARK                         _______ _______ _______ _____ _____    ______ ____
ROOT
ATOM      1  C   UNL     1       6.931   6.651  17.872  0.00  0.00    +0.000 C 
ATOM      2  C   UNL     1       5.403   6.582  17.726  0.00  0.00    +0.000 C 
ATOM      3  C   UNL     1       4.997   6.323  16.279  0.00  0.00    +0.000 C 
ATOM      4  C   UNL     1       5.601   5.004  15.763  0.00  0.00    +0.000 C 
ATOM      5  C   UNL     1       7.132   5.078  15.861  0.00  0.00    +0.000 C 
ATOM      6  C   UNL     1       7.612   5.409  17.271  0.00  0.00    +0.000 C 
ENDROOT
BRANCH   1   7
ATOM      7  C   UNL     1       7.513   7.954  17.276  0.00  0.00    +0.000 C 
BRANCH   7   8
ATOM      8  C   UNL     1       8.343   8.789  18.262  0.00  0.00    +0.000 C 
BRANCH   8   9
ATOM      9  C   UNL     1       8.451  10.251  17.813  0.00  0.00    +0.000 C 
BRANCH   9  11
ATOM     10  C   UNL     1       8.928  12.603  18.584  0.00  0.00    +0.000 C 
ATOM     11  C   UNL     1       9.434  11.147  18.598  0.00  0.00    +0.000 C 
ATOM     12  C   UNL     1       9.566  10.698  20.067  0.00  0.00    +0.000 C 
BRANCH  11  13
ATOM     13  C   UNL     1      10.822  11.118  17.896  0.00  0.00    +0.000 C 
BRANCH  13  14
ATOM     14  C   UNL     1      11.560  12.449  17.764  0.00  0.00    +0.000 C 
ATOM     15  O   UNL     1      12.104  13.076  18.656  0.00  0.00    +0.000 OA
BRANCH  14  16
ATOM     16  O   UNL     1      11.543  12.902  16.489  0.00  0.00    +0.000 OA
ATOM     17  H   UNL     1      12.426  12.979  16.081  0.00  0.00    +0.000 HD
ENDBRANCH  14  16
ENDBRANCH  13  14
ENDBRANCH  11  13
ENDBRANCH   9  11
ENDBRANCH   8   9
ENDBRANCH   7   8
ENDBRANCH   1   7
BRANCH   4  18
ATOM     18  C   UNL     1       5.045   3.756  16.496  0.00  0.00    +0.000 C 
BRANCH  18  19
ATOM     19  C   UNL     1       3.609   3.999  16.953  0.00  0.00    +0.000 C 
BRANCH  19  20
ATOM     20  C   UNL     1       2.950   2.799  17.631  0.00  0.00    +0.000 C 
BRANCH  20  21
ATOM     21  C   UNL     1       3.101   2.808  19.188  0.00  0.00    +0.000 C 
ATOM     22  C   UNL     1       4.323   1.966  19.614  0.00  0.00    +0.000 C 
ATOM     23  C   UNL     1       3.293   4.255  19.683  0.00  0.00    +0.000 C 
BRANCH  21  24
ATOM     24  C   UNL     1       1.802   2.204  19.780  0.00  0.00    +0.000 C 
BRANCH  24  25
ATOM     25  C   UNL     1       1.205   2.986  20.930  0.00  0.00    +0.000 C 
ATOM     26  O   UNL     1       1.400   2.725  22.107  0.00  0.00    +0.000 OA
BRANCH  25  27
ATOM     27  O   UNL     1       0.412   4.008  20.538  0.00  0.00    +0.000 OA
ATOM     28  H   UNL     1      -0.118   3.818  19.742  0.00  0.00    +0.000 HD
ENDBRANCH  25  27
ENDBRANCH  24  25
ENDBRANCH  21  24
ENDBRANCH  20  21
ENDBRANCH  19  20
ENDBRANCH  18  19
ENDBRANCH   4  18
TORSDOF 14
ENDMDL
MODEL 2
REMARK VINA RESULT:      -7.2      1.887      9.187
REMARK  Name = 
REMARK  18 active torsions:
REMARK  status: ('A' for Active; 'I' for Inactive)
REMARK    1  A    between atoms: C_1  and  C_2
REMARK    2  A    between atoms: C_2  and  C_3
REMARK    3  A    between atoms: C_2  and  C_4
REMARK    4  A    between atoms: C_2  and  C_23
REMARK    5  A    between atoms: C_4  and  C_5
REMARK    6  A    between atoms: C_5  and  C_6
REMARK    7  A    between atoms: C_6  and  C_7
REMARK    8  A    between atoms: C_10  and  C_11
REMARK    9  A    between atoms: C_11  and  C_12
REMARK   10  A    between atoms: C_12  and  C_13
REMARK   11  A    between atoms: C_13  and  C_14
REMARK   12  A    between atoms: C_14  and  C_15
REMARK   13  A    between atoms: C_14  and  C_16
REMARK   14  A    between atoms: C_14  and  C_17
REMARK   15  A    between atoms: C_17  and  C_18
REMARK   16  A    between atoms: C_18  and  O_20
REMARK   17  A    between atoms: C_23  and  C_24
REMARK   18  A    between atoms: C_24  and  O_26
REMARK                            x       y       z     vdW  Elec       q    Type
REMARK                         _______ _______ _______ _____ _____    ______ ____
ROOT
ATOM      1  C   UNL     1       5.036   5.402  16.095  0.00  0.00    +0.000 C 
ATOM      2  C   UNL     1       4.875   6.698  16.907  0.00  0.00    +0.000 C 
ATOM      3  C   UNL     1       5.656   6.630  18.215  0.00  0.00    +0.000 C 
ATOM      4  C   UNL     1       7.156   6.396  17.952  0.00  0.00    +0.000 C 
ATOM      5  C   UNL     1       7.332   5.080  17.181  0.00  0.00    +0.000 C 
ATOM      6  C   UNL     1       6.518   5.044  15.892  0.00  0.00    +0.000 C 
ENDROOT
BRANCH   1   7
ATOM      7  C   UNL     1       4.255   4.224  16.723  0.00  0.00    +0.000 C 
BRANCH   7   8
ATOM      8  C   UNL     1       2.931   4.625  17.392  0.00  0.00    +0.000 C 
BRANCH   8   9
ATOM      9  C   UNL     1       2.320   3.459  18.178  0.00  0.00    +0.000 C 
BRANCH   9  11
ATOM     10  C   UNL     1       2.492   5.118  20.068  0.00  0.00    +0.000 C 
ATOM     11  C   UNL     1       2.151   3.660  19.700  0.00  0.00    +0.000 C 
ATOM     12  C   UNL     1       0.706   3.375  20.156  0.00  0.00    +0.000 C 
BRANCH  11  13
ATOM     13  C   UNL     1       3.149   2.732  20.451  0.00  0.00    +0.000 C 
BRANCH  13  14
ATOM     14  C   UNL     1       4.523   2.531  19.813  0.00  0.00    +0.000 C 
ATOM     15  O   UNL     1       5.418   3.352  19.731  0.00  0.00    +0.000 OA
BRANCH  14  16
ATOM     16  O   UNL     1       4.656   1.284  19.305  0.00  0.00    +0.000 OA
ATOM     17  H   UNL     1       5.220   1.235  18.511  0.00  0.00    +0.000 HD
ENDBRANCH  14  16
ENDBRANCH  13  14
ENDBRANCH  11  13
ENDBRANCH   9  11
ENDBRANCH   8   9
ENDBRANCH   7   8
ENDBRANCH   1   7
BRANCH   4  18
ATOM     18  C   UNL     1       7.833   7.582  17.217  0.00  0.00    +0.000 C 
BRANCH  18  19
ATOM     19  C   UNL     1       8.218   8.677  18.208  0.00  0.00    +0.000 C 
BRANCH  19  20
ATOM     20  C   UNL     1       8.336  10.071  17.594  0.00  0.00    +0.000 C 
BRANCH  20  21
ATOM     21  C   UNL     1       9.258  11.033  18.412  0.00  0.00    +0.000 C 
ATOM     22  C   UNL     1      10.659  11.110  17.769  0.00  0.00    +0.000 C 
ATOM     23  C   UNL     1       8.641  12.445  18.440  0.00  0.00    +0.000 C 
BRANCH  21  24
ATOM     24  C   UNL     1       9.361  10.461  19.849  0.00  0.00    +0.000 C 
BRANCH  24  25
ATOM     25  C   UNL     1       9.608  11.494  20.927  0.00  0.00    +0.000 C 
ATOM     26  O   UNL     1      10.654  12.110  21.054  0.00  0.00    +0.000 OA
BRANCH  25  27
ATOM     27  O   UNL     1       8.559  11.669  21.762  0.00  0.00    +0.000 OA
ATOM     28  H   UNL     1       8.812  11.899  22.675  0.00  0.00    +0.000 HD
ENDBRANCH  25  27
ENDBRANCH  24  25
ENDBRANCH  21  24
ENDBRANCH  20  21
ENDBRANCH  19  20
ENDBRANCH  18  19
ENDBRANCH   4  18
TORSDOF 14
ENDMDL
MODEL 3
REMARK VINA RESULT:      -7.2      5.010      7.699
REMARK  Name = 
REMARK  18 active torsions:
REMARK  status: ('A' for Active; 'I' for Inactive)
REMARK    1  A    between atoms: C_1  and  C_2
REMARK    2  A    between atoms: C_2  and  C_3
REMARK    3  A    between atoms: C_2  and  C_4
REMARK    4  A    between atoms: C_2  and  C_23
REMARK    5  A    between atoms: C_4  and  C_5
REMARK    6  A    between atoms: C_5  and  C_6
REMARK    7  A    between atoms: C_6  and  C_7
REMARK    8  A    between atoms: C_10  and  C_11
REMARK    9  A    between atoms: C_11  and  C_12
REMARK   10  A    between atoms: C_12  and  C_13
REMARK   11  A    between atoms: C_13  and  C_14
REMARK   12  A    between atoms: C_14  and  C_15
REMARK   13  A    between atoms: C_14  and  C_16
REMARK   14  A    between atoms: C_14  and  C_17
REMARK   15  A    between atoms: C_17  and  C_18
REMARK   16  A    between atoms: C_18  and  O_20
REMARK   17  A    between atoms: C_23  and  C_24
REMARK   18  A    between atoms: C_24  and  O_26
REMARK                            x       y       z     vdW  Elec       q    Type
REMARK                         _______ _______ _______ _____ _____    ______ ____
ROOT
ATOM      1  C   UNL     1       2.415   6.313  20.430  0.00  0.00    +0.000 C 
ATOM      2  C   UNL     1       2.345   4.805  20.721  0.00  0.00    +0.000 C 
ATOM      3  C   UNL     1       1.423   4.095  19.736  0.00  0.00    +0.000 C 
ATOM      4  C   UNL     1       1.902   4.295  18.285  0.00  0.00    +0.000 C 
ATOM      5  C   UNL     1       1.931   5.798  17.969  0.00  0.00    +0.000 C 
ATOM      6  C   UNL     1       2.778   6.589  18.961  0.00  0.00    +0.000 C 
ENDROOT
BRANCH   1   7
ATOM      7  C   UNL     1       1.110   7.041  20.831  0.00  0.00    +0.000 C 
BRANCH   7   8
ATOM      8  C   UNL     1       1.274   8.549  21.075  0.00  0.00    +0.000 C 
BRANCH   8   9
ATOM      9  C   UNL     1       0.015   9.327  20.672  0.00  0.00    +0.000 C 
BRANCH   9  11
ATOM     10  C   UNL     1       0.968  11.570  20.029  0.00  0.00    +0.000 C 
ATOM     11  C   UNL     1       0.168  10.351  19.527  0.00  0.00    +0.000 C 
ATOM     12  C   UNL     1       0.915   9.750  18.320  0.00  0.00    +0.000 C 
BRANCH  11  13
ATOM     13  C   UNL     1      -1.241  10.850  19.098  0.00  0.00    +0.000 C 
BRANCH  13  14
ATOM     14  C   UNL     1      -1.377  12.333  18.752  0.00  0.00    +0.000 C 
ATOM     15  O   UNL     1      -1.610  13.245  19.524  0.00  0.00    +0.000 OA
BRANCH  14  16
ATOM     16  O   UNL     1      -1.216  12.550  17.426  0.00  0.00    +0.000 OA
ATOM     17  H   UNL     1      -0.390  13.014  17.195  0.00  0.00    +0.000 HD
ENDBRANCH  14  16
ENDBRANCH  13  14
ENDBRANCH  11  13
ENDBRANCH   9  11
ENDBRANCH   8   9
ENDBRANCH   7   8
ENDBRANCH   1   7
BRANCH   4  18
ATOM     18  C   UNL     1       3.273   3.628  18.004  0.00  0.00    +0.000 C 
BRANCH  18  19
ATOM     19  C   UNL     1       4.021   4.382  16.908  0.00  0.00    +0.000 C 
BRANCH  19  20
ATOM     20  C   UNL     1       5.410   3.829  16.596  0.00  0.00    +0.000 C 
BRANCH  20  21
ATOM     21  C   UNL     1       6.507   4.938  16.478  0.00  0.00    +0.000 C 
ATOM     22  C   UNL     1       7.183   4.881  15.092  0.00  0.00    +0.000 C 
ATOM     23  C   UNL     1       5.863   6.327  16.665  0.00  0.00    +0.000 C 
BRANCH  21  24
ATOM     24  C   UNL     1       7.550   4.674  17.593  0.00  0.00    +0.000 C 
BRANCH  24  25
ATOM     25  C   UNL     1       7.286   5.400  18.895  0.00  0.00    +0.000 C 
ATOM     26  O   UNL     1       6.366   5.131  19.652  0.00  0.00    +0.000 OA
BRANCH  25  27
ATOM     27  O   UNL     1       8.161   6.398  19.148  0.00  0.00    +0.000 OA
ATOM     28  H   UNL     1       8.646   6.300  19.988  0.00  0.00    +0.000 HD
ENDBRANCH  25  27
ENDBRANCH  24  25
ENDBRANCH  21  24
ENDBRANCH  20  21
ENDBRANCH  19  20
ENDBRANCH  18  19
ENDBRANCH   4  18
TORSDOF 14
ENDMDL
MODEL 4
REMARK VINA RESULT:      -7.1      1.472      2.366
REMARK  Name = 
REMARK  18 active torsions:
REMARK  status: ('A' for Active; 'I' for Inactive)
REMARK    1  A    between atoms: C_1  and  C_2
REMARK    2  A    between atoms: C_2  and  C_3
REMARK    3  A    between atoms: C_2  and  C_4
REMARK    4  A    between atoms: C_2  and  C_23
REMARK    5  A    between atoms: C_4  and  C_5
REMARK    6  A    between atoms: C_5  and  C_6
REMARK    7  A    between atoms: C_6  and  C_7
REMARK    8  A    between atoms: C_10  and  C_11
REMARK    9  A    between atoms: C_11  and  C_12
REMARK   10  A    between atoms: C_12  and  C_13
REMARK   11  A    between atoms: C_13  and  C_14
REMARK   12  A    between atoms: C_14  and  C_15
REMARK   13  A    between atoms: C_14  and  C_16
REMARK   14  A    between atoms: C_14  and  C_17
REMARK   15  A    between atoms: C_17  and  C_18
REMARK   16  A    between atoms: C_18  and  O_20
REMARK   17  A    between atoms: C_23  and  C_24
REMARK   18  A    between atoms: C_24  and  O_26
REMARK                            x       y       z     vdW  Elec       q    Type
REMARK                         _______ _______ _______ _____ _____    ______ ____
ROOT
ATOM      1  C   UNL     1       7.685   6.728  17.563  0.00  0.00    +0.000 C 
ATOM      2  C   UNL     1       7.612   5.317  18.169  0.00  0.00    +0.000 C 
ATOM      3  C   UNL     1       6.389   5.165  19.068  0.00  0.00    +0.000 C 
ATOM      4  C   UNL     1       5.090   5.433  18.286  0.00  0.00    +0.000 C 
ATOM      5  C   UNL     1       5.132   6.857  17.714  0.00  0.00    +0.000 C 
ATOM      6  C   UNL     1       6.371   7.109  16.860  0.00  0.00    +0.000 C 
ENDROOT
BRANCH   1   7
ATOM      7  C   UNL     1       8.087   7.789  18.613  0.00  0.00    +0.000 C 
BRANCH   7   8
ATOM      8  C   UNL     1       8.389   9.178  18.029  0.00  0.00    +0.000 C 
BRANCH   8   9
ATOM      9  C   UNL     1       9.042  10.098  19.068  0.00  0.00    +0.000 C 
BRANCH   9  11
ATOM     10  C   UNL     1      10.729  11.441  17.762  0.00  0.00    +0.000 C 
ATOM     11  C   UNL     1       9.432  11.515  18.593  0.00  0.00    +0.000 C 
ATOM     12  C   UNL     1       8.333  12.144  17.714  0.00  0.00    +0.000 C 
BRANCH  11  13
ATOM     13  C   UNL     1       9.711  12.410  19.834  0.00  0.00    +0.000 C 
BRANCH  13  14
ATOM     14  C   UNL     1      10.273  13.806  19.570  0.00  0.00    +0.000 C 
ATOM     15  O   UNL     1       9.662  14.773  19.154  0.00  0.00    +0.000 OA
BRANCH  14  16
ATOM     16  O   UNL     1      11.597  13.869  19.847  0.00  0.00    +0.000 OA
ATOM     17  H   UNL     1      12.055  14.622  19.432  0.00  0.00    +0.000 HD
ENDBRANCH  14  16
ENDBRANCH  13  14
ENDBRANCH  11  13
ENDBRANCH   9  11
ENDBRANCH   8   9
ENDBRANCH   7   8
ENDBRANCH   1   7
BRANCH   4  18
ATOM     18  C   UNL     1       4.824   4.382  17.176  0.00  0.00    +0.000 C 
BRANCH  18  19
ATOM     19  C   UNL     1       4.056   3.190  17.741  0.00  0.00    +0.000 C 
BRANCH  19  20
ATOM     20  C   UNL     1       3.259   3.494  19.008  0.00  0.00    +0.000 C 
BRANCH  20  21
ATOM     21  C   UNL     1       1.711   3.480  18.784  0.00  0.00    +0.000 C 
ATOM     22  C   UNL     1       1.331   4.386  17.594  0.00  0.00    +0.000 C 
ATOM     23  C   UNL     1       1.243   2.041  18.488  0.00  0.00    +0.000 C 
BRANCH  21  24
ATOM     24  C   UNL     1       1.053   4.002  20.086  0.00  0.00    +0.000 C 
BRANCH  24  25
ATOM     25  C   UNL     1       2.015   4.253  21.228  0.00  0.00    +0.000 C 
ATOM     26  O   UNL     1       2.293   3.425  22.081  0.00  0.00    +0.000 OA
BRANCH  25  27
ATOM     27  O   UNL     1       2.541   5.499  21.232  0.00  0.00    +0.000 OA
ATOM     28  H   UNL     1       2.000   6.158  21.705  0.00  0.00    +0.000 HD
ENDBRANCH  25  27
ENDBRANCH  24  25
ENDBRANCH  21  24
ENDBRANCH  20  21
ENDBRANCH  19  20
ENDBRANCH  18  19
ENDBRANCH   4  18
TORSDOF 14
ENDMDL
MODEL 5
REMARK VINA RESULT:      -7.1      1.499      2.025
REMARK  Name = 
REMARK  18 active torsions:
REMARK  status: ('A' for Active; 'I' for Inactive)
REMARK    1  A    between atoms: C_1  and  C_2
REMARK    2  A    between atoms: C_2  and  C_3
REMARK    3  A    between atoms: C_2  and  C_4
REMARK    4  A    between atoms: C_2  and  C_23
REMARK    5  A    between atoms: C_4  and  C_5
REMARK    6  A    between atoms: C_5  and  C_6
REMARK    7  A    between atoms: C_6  and  C_7
REMARK    8  A    between atoms: C_10  and  C_11
REMARK    9  A    between atoms: C_11  and  C_12
REMARK   10  A    between atoms: C_12  and  C_13
REMARK   11  A    between atoms: C_13  and  C_14
REMARK   12  A    between atoms: C_14  and  C_15
REMARK   13  A    between atoms: C_14  and  C_16
REMARK   14  A    between atoms: C_14  and  C_17
REMARK   15  A    between atoms: C_17  and  C_18
REMARK   16  A    between atoms: C_18  and  O_20
REMARK   17  A    between atoms: C_23  and  C_24
REMARK   18  A    between atoms: C_24  and  O_26
REMARK                            x       y       z     vdW  Elec       q    Type
REMARK                         _______ _______ _______ _____ _____    ______ ____
ROOT
ATOM      1  C   UNL     1       7.004   6.734  17.915  0.00  0.00    +0.000 C 
ATOM      2  C   UNL     1       5.525   6.992  17.585  0.00  0.00    +0.000 C 
ATOM      3  C   UNL     1       5.209   6.621  16.140  0.00  0.00    +0.000 C 
ATOM      4  C   UNL     1       5.524   5.138  15.868  0.00  0.00    +0.000 C 
ATOM      5  C   UNL     1       7.011   4.879  16.150  0.00  0.00    +0.000 C 
ATOM      6  C   UNL     1       7.420   5.297  17.560  0.00  0.00    +0.000 C 
ENDROOT
BRANCH   1   7
ATOM      7  C   UNL     1       7.936   7.770  17.245  0.00  0.00    +0.000 C 
BRANCH   7   8
ATOM      8  C   UNL     1       7.832   9.188  17.827  0.00  0.00    +0.000 C 
BRANCH   8   9
ATOM      9  C   UNL     1       9.056   9.539  18.681  0.00  0.00    +0.000 C 
BRANCH   9  11
ATOM     10  C   UNL     1       8.499  11.857  17.860  0.00  0.00    +0.000 C 
ATOM     11  C   UNL     1       9.464  11.028  18.731  0.00  0.00    +0.000 C 
ATOM     12  C   UNL     1       9.414  11.585  20.167  0.00  0.00    +0.000 C 
BRANCH  11  13
ATOM     13  C   UNL     1      10.894  11.184  18.139  0.00  0.00    +0.000 C 
BRANCH  13  14
ATOM     14  C   UNL     1      11.329  12.593  17.738  0.00  0.00    +0.000 C 
ATOM     15  O   UNL     1      11.332  13.067  16.616  0.00  0.00    +0.000 OA
BRANCH  14  16
ATOM     16  O   UNL     1      11.749  13.307  18.809  0.00  0.00    +0.000 OA
ATOM     17  H   UNL     1      12.494  13.907  18.622  0.00  0.00    +0.000 HD
ENDBRANCH  14  16
ENDBRANCH  13  14
ENDBRANCH  11  13
ENDBRANCH   9  11
ENDBRANCH   8   9
ENDBRANCH   7   8
ENDBRANCH   1   7
BRANCH   4  18
ATOM     18  C   UNL     1       4.616   4.169  16.670  0.00  0.00    +0.000 C 
BRANCH  18  19
ATOM     19  C   UNL     1       3.527   4.944  17.408  0.00  0.00    +0.000 C 
BRANCH  19  20
ATOM     20  C   UNL     1       3.529   4.747  18.922  0.00  0.00    +0.000 C 
BRANCH  20  21
ATOM     21  C   UNL     1       2.263   3.996  19.451  0.00  0.00    +0.000 C 
ATOM     22  C   UNL     1       1.491   4.881  20.453  0.00  0.00    +0.000 C 
ATOM     23  C   UNL     1       1.334   3.650  18.270  0.00  0.00    +0.000 C 
BRANCH  21  24
ATOM     24  C   UNL     1       2.753   2.701  20.148  0.00  0.00    +0.000 C 
BRANCH  24  25
ATOM     25  C   UNL     1       3.840   1.954  19.406  0.00  0.00    +0.000 C 
ATOM     26  O   UNL     1       3.640   1.254  18.425  0.00  0.00    +0.000 OA
BRANCH  25  27
ATOM     27  O   UNL     1       5.072   2.118  19.937  0.00  0.00    +0.000 OA
ATOM     28  H   UNL     1       5.284   3.039  20.174  0.00  0.00    +0.000 HD
ENDBRANCH  25  27
ENDBRANCH  24  25
ENDBRANCH  21  24
ENDBRANCH  20  21
ENDBRANCH  19  20
ENDBRANCH  18  19
ENDBRANCH   4  18
TORSDOF 14
ENDMDL
MODEL 6
REMARK VINA RESULT:      -7.1      1.530      2.216
REMARK  Name = 
REMARK  18 active torsions:
REMARK  status: ('A' for Active; 'I' for Inactive)
REMARK    1  A    between atoms: C_1  and  C_2
REMARK    2  A    between atoms: C_2  and  C_3
REMARK    3  A    between atoms: C_2  and  C_4
REMARK    4  A    between atoms: C_2  and  C_23
REMARK    5  A    between atoms: C_4  and  C_5
REMARK    6  A    between atoms: C_5  and  C_6
REMARK    7  A    between atoms: C_6  and  C_7
REMARK    8  A    between atoms: C_10  and  C_11
REMARK    9  A    between atoms: C_11  and  C_12
REMARK   10  A    between atoms: C_12  and  C_13
REMARK   11  A    between atoms: C_13  and  C_14
REMARK   12  A    between atoms: C_14  and  C_15
REMARK   13  A    between atoms: C_14  and  C_16
REMARK   14  A    between atoms: C_14  and  C_17
REMARK   15  A    between atoms: C_17  and  C_18
REMARK   16  A    between atoms: C_18  and  O_20
REMARK   17  A    between atoms: C_23  and  C_24
REMARK   18  A    between atoms: C_24  and  O_26
REMARK                            x       y       z     vdW  Elec       q    Type
REMARK                         _______ _______ _______ _____ _____    ______ ____
ROOT
ATOM      1  C   UNL     1       6.926   6.995  18.230  0.00  0.00    +0.000 C 
ATOM      2  C   UNL     1       5.606   6.824  17.461  0.00  0.00    +0.000 C 
ATOM      3  C   UNL     1       5.789   5.926  16.242  0.00  0.00    +0.000 C 
ATOM      4  C   UNL     1       6.304   4.534  16.653  0.00  0.00    +0.000 C 
ATOM      5  C   UNL     1       7.646   4.688  17.383  0.00  0.00    +0.000 C 
ATOM      6  C   UNL     1       7.558   5.636  18.576  0.00  0.00    +0.000 C 
ENDROOT
BRANCH   1   7
ATOM      7  C   UNL     1       7.924   7.902  17.474  0.00  0.00    +0.000 C 
BRANCH   7   8
ATOM      8  C   UNL     1       7.748   9.404  17.744  0.00  0.00    +0.000 C 
BRANCH   8   9
ATOM      9  C   UNL     1       9.023  10.026  18.326  0.00  0.00    +0.000 C 
BRANCH   9  11
ATOM     10  C   UNL     1      10.520  11.903  17.555  0.00  0.00    +0.000 C 
ATOM     11  C   UNL     1       9.165  11.560  18.205  0.00  0.00    +0.000 C 
ATOM     12  C   UNL     1       8.047  12.168  17.336  0.00  0.00    +0.000 C 
BRANCH  11  13
ATOM     13  C   UNL     1       9.147  12.187  19.628  0.00  0.00    +0.000 C 
BRANCH  13  14
ATOM     14  C   UNL     1      10.087  11.576  20.667  0.00  0.00    +0.000 C 
ATOM     15  O   UNL     1      11.302  11.649  20.685  0.00  0.00    +0.000 OA
BRANCH  14  16
ATOM     16  O   UNL     1       9.403  10.895  21.616  0.00  0.00    +0.000 OA
ATOM     17  H   UNL     1       9.916  10.717  22.426  0.00  0.00    +0.000 HD
ENDBRANCH  14  16
ENDBRANCH  13  14
ENDBRANCH  11  13
ENDBRANCH   9  11
ENDBRANCH   8   9
ENDBRANCH   7   8
ENDBRANCH   1   7
BRANCH   4  18
ATOM     18  C   UNL     1       5.281   3.738  17.505  0.00  0.00    +0.000 C 
BRANCH  18  19
ATOM     19  C   UNL     1       3.940   3.642  16.782  0.00  0.00    +0.000 C 
BRANCH  19  20
ATOM     20  C   UNL     1       2.877   2.839  17.528  0.00  0.00    +0.000 C 
BRANCH  20  21
ATOM     21  C   UNL     1       2.166   3.653  18.659  0.00  0.00    +0.000 C 
ATOM     22  C   UNL     1       1.887   5.096  18.189  0.00  0.00    +0.000 C 
ATOM     23  C   UNL     1       0.828   2.977  19.023  0.00  0.00    +0.000 C 
BRANCH  21  24
ATOM     24  C   UNL     1       3.115   3.663  19.884  0.00  0.00    +0.000 C 
BRANCH  24  25
ATOM     25  C   UNL     1       2.456   4.038  21.195  0.00  0.00    +0.000 C 
ATOM     26  O   UNL     1       2.155   3.233  22.062  0.00  0.00    +0.000 OA
BRANCH  25  27
ATOM     27  O   UNL     1       2.211   5.361  21.321  0.00  0.00    +0.000 OA
ATOM     28  H   UNL     1       3.007   5.921  21.256  0.00  0.00    +0.000 HD
ENDBRANCH  25  27
ENDBRANCH  24  25
ENDBRANCH  21  24
ENDBRANCH  20  21
ENDBRANCH  19  20
ENDBRANCH  18  19
ENDBRANCH   4  18
TORSDOF 14
ENDMDL
MODEL 7
REMARK VINA RESULT:      -7.1      5.064      7.977
REMARK  Name = 
REMARK  18 active torsions:
REMARK  status: ('A' for Active; 'I' for Inactive)
REMARK    1  A    between atoms: C_1  and  C_2
REMARK    2  A    between atoms: C_2  and  C_3
REMARK    3  A    between atoms: C_2  and  C_4
REMARK    4  A    between atoms: C_2  and  C_23
REMARK    5  A    between atoms: C_4  and  C_5
REMARK    6  A    between atoms: C_5  and  C_6
REMARK    7  A    between atoms: C_6  and  C_7
REMARK    8  A    between atoms: C_10  and  C_11
REMARK    9  A    between atoms: C_11  and  C_12
REMARK   10  A    between atoms: C_12  and  C_13
REMARK   11  A    between atoms: C_13  and  C_14
REMARK   12  A    between atoms: C_14  and  C_15
REMARK   13  A    between atoms: C_14  and  C_16
REMARK   14  A    between atoms: C_14  and  C_17
REMARK   15  A    between atoms: C_17  and  C_18
REMARK   16  A    between atoms: C_18  and  O_20
REMARK   17  A    between atoms: C_23  and  C_24
REMARK   18  A    between atoms: C_24  and  O_26
REMARK                            x       y       z     vdW  Elec       q    Type
REMARK                         _______ _______ _______ _____ _____    ______ ____
ROOT
ATOM      1  C   UNL     1       2.302   5.954  20.611  0.00  0.00    +0.000 C 
ATOM      2  C   UNL     1       1.869   4.500  20.861  0.00  0.00    +0.000 C 
ATOM      3  C   UNL     1       1.005   3.977  19.718  0.00  0.00    +0.000 C 
ATOM      4  C   UNL     1       1.761   4.043  18.378  0.00  0.00    +0.000 C 
ATOM      5  C   UNL     1       2.159   5.499  18.095  0.00  0.00    +0.000 C 
ATOM      6  C   UNL     1       2.966   6.117  19.233  0.00  0.00    +0.000 C 
ENDROOT
BRANCH   1   7
ATOM      7  C   UNL     1       1.129   6.946  20.789  0.00  0.00    +0.000 C 
BRANCH   7   8
ATOM      8  C   UNL     1       1.530   8.426  20.695  0.00  0.00    +0.000 C 
BRANCH   8   9
ATOM      9  C   UNL     1       0.372   9.294  20.187  0.00  0.00    +0.000 C 
BRANCH   9  11
ATOM     10  C   UNL     1       1.228  11.387  19.073  0.00  0.00    +0.000 C 
ATOM     11  C   UNL     1       0.582  10.008  18.834  0.00  0.00    +0.000 C 
ATOM     12  C   UNL     1       1.504   9.200  17.900  0.00  0.00    +0.000 C 
BRANCH  11  13
ATOM     13  C   UNL     1      -0.801  10.240  18.161  0.00  0.00    +0.000 C 
BRANCH  13  14
ATOM     14  C   UNL     1      -1.510  11.558  18.469  0.00  0.00    +0.000 C 
ATOM     15  O   UNL     1      -2.053  11.870  19.513  0.00  0.00    +0.000 OA
BRANCH  14  16
ATOM     16  O   UNL     1      -1.488  12.394  17.405  0.00  0.00    +0.000 OA
ATOM     17  H   UNL     1      -1.416  13.338  17.640  0.00  0.00    +0.000 HD
ENDBRANCH  14  16
ENDBRANCH  13  14
ENDBRANCH  11  13
ENDBRANCH   9  11
ENDBRANCH   8   9
ENDBRANCH   7   8
ENDBRANCH   1   7
BRANCH   4  18
ATOM     18  C   UNL     1       2.990   3.098  18.329  0.00  0.00    +0.000 C 
BRANCH  18  19
ATOM     19  C   UNL     1       4.281   3.904  18.218  0.00  0.00    +0.000 C 
BRANCH  19  20
ATOM     20  C   UNL     1       4.902   3.912  16.823  0.00  0.00    +0.000 C 
BRANCH  20  21
ATOM     21  C   UNL     1       5.889   5.104  16.591  0.00  0.00    +0.000 C 
ATOM     22  C   UNL     1       5.199   6.224  15.783  0.00  0.00    +0.000 C 
ATOM     23  C   UNL     1       6.343   5.674  17.950  0.00  0.00    +0.000 C 
BRANCH  21  24
ATOM     24  C   UNL     1       7.105   4.549  15.806  0.00  0.00    +0.000 C 
BRANCH  24  25
ATOM     25  C   UNL     1       7.003   4.681  14.302  0.00  0.00    +0.000 C 
ATOM     26  O   UNL     1       6.239   4.026  13.609  0.00  0.00    +0.000 OA
BRANCH  25  27
ATOM     27  O   UNL     1       7.853   5.592  13.777  0.00  0.00    +0.000 OA
ATOM     28  H   UNL     1       8.143   5.389  12.869  0.00  0.00    +0.000 HD
ENDBRANCH  25  27
ENDBRANCH  24  25
ENDBRANCH  21  24
ENDBRANCH  20  21
ENDBRANCH  19  20
ENDBRANCH  18  19
ENDBRANCH   4  18
TORSDOF 14
ENDMDL
MODEL 8
REMARK VINA RESULT:      -7.1      5.190      7.748
REMARK  Name = 
REMARK  18 active torsions:
REMARK  status: ('A' for Active; 'I' for Inactive)
REMARK    1  A    between atoms: C_1  and  C_2
REMARK    2  A    between atoms: C_2  and  C_3
REMARK    3  A    between atoms: C_2  and  C_4
REMARK    4  A    between atoms: C_2  and  C_23
REMARK    5  A    between atoms: C_4  and  C_5
REMARK    6  A    between atoms: C_5  and  C_6
REMARK    7  A    between atoms: C_6  and  C_7
REMARK    8  A    between atoms: C_10  and  C_11
REMARK    9  A    between atoms: C_11  and  C_12
REMARK   10  A    between atoms: C_12  and  C_13
REMARK   11  A    between atoms: C_13  and  C_14
REMARK   12  A    between atoms: C_14  and  C_15
REMARK   13  A    between atoms: C_14  and  C_16
REMARK   14  A    between atoms: C_14  and  C_17
REMARK   15  A    between atoms: C_17  and  C_18
REMARK   16  A    between atoms: C_18  and  O_20
REMARK   17  A    between atoms: C_23  and  C_24
REMARK   18  A    between atoms: C_24  and  O_26
REMARK                            x       y       z     vdW  Elec       q    Type
REMARK                         _______ _______ _______ _____ _____    ______ ____
ROOT
ATOM      1  C   UNL     1       1.690   4.384  18.236  0.00  0.00    +0.000 C 
ATOM      2  C   UNL     1       1.031   4.148  19.605  0.00  0.00    +0.000 C 
ATOM      3  C   UNL     1       1.933   4.621  20.741  0.00  0.00    +0.000 C 
ATOM      4  C   UNL     1       2.258   6.121  20.601  0.00  0.00    +0.000 C 
ATOM      5  C   UNL     1       2.959   6.361  19.256  0.00  0.00    +0.000 C 
ATOM      6  C   UNL     1       2.146   5.843  18.073  0.00  0.00    +0.000 C 
ENDROOT
BRANCH   1   7
ATOM      7  C   UNL     1       2.855   3.400  17.977  0.00  0.00    +0.000 C 
BRANCH   7   8
ATOM      8  C   UNL     1       3.952   3.944  17.049  0.00  0.00    +0.000 C 
BRANCH   8   9
ATOM      9  C   UNL     1       5.304   4.038  17.767  0.00  0.00    +0.000 C 
BRANCH   9  11
ATOM     10  C   UNL     1       5.462   6.231  16.535  0.00  0.00    +0.000 C 
ATOM     11  C   UNL     1       6.260   5.158  17.302  0.00  0.00    +0.000 C 
ATOM     12  C   UNL     1       6.961   5.840  18.494  0.00  0.00    +0.000 C 
BRANCH  11  13
ATOM     13  C   UNL     1       7.312   4.558  16.326  0.00  0.00    +0.000 C 
BRANCH  13  14
ATOM     14  C   UNL     1       6.971   4.582  14.837  0.00  0.00    +0.000 C 
ATOM     15  O   UNL     1       6.165   3.875  14.260  0.00  0.00    +0.000 OA
BRANCH  14  16
ATOM     16  O   UNL     1       7.700   5.511  14.176  0.00  0.00    +0.000 OA
ATOM     17  H   UNL     1       8.476   5.835  14.670  0.00  0.00    +0.000 HD
ENDBRANCH  14  16
ENDBRANCH  13  14
ENDBRANCH  11  13
ENDBRANCH   9  11
ENDBRANCH   8   9
ENDBRANCH   7   8
ENDBRANCH   1   7
BRANCH   4  18
ATOM     18  C   UNL     1       1.010   7.028  20.762  0.00  0.00    +0.000 C 
BRANCH  18  19
ATOM     19  C   UNL     1       1.419   8.497  20.818  0.00  0.00    +0.000 C 
BRANCH  19  20
ATOM     20  C   UNL     1       1.085   9.294  19.559  0.00  0.00    +0.000 C 
BRANCH  20  21
ATOM     21  C   UNL     1       0.189  10.546  19.838  0.00  0.00    +0.000 C 
ATOM     22  C   UNL     1      -0.425  10.463  21.252  0.00  0.00    +0.000 C 
ATOM     23  C   UNL     1       1.042  11.827  19.737  0.00  0.00    +0.000 C 
BRANCH  21  24
ATOM     24  C   UNL     1      -0.931  10.559  18.768  0.00  0.00    +0.000 C 
BRANCH  24  25
ATOM     25  C   UNL     1      -1.627  11.891  18.593  0.00  0.00    +0.000 C 
ATOM     26  O   UNL     1      -2.386  12.379  19.417  0.00  0.00    +0.000 OA
BRANCH  25  27
ATOM     27  O   UNL     1      -1.344  12.502  17.421  0.00  0.00    +0.000 OA
ATOM     28  H   UNL     1      -1.908  13.274  17.228  0.00  0.00    +0.000 HD
ENDBRANCH  25  27
ENDBRANCH  24  25
ENDBRANCH  21  24
ENDBRANCH  20  21
ENDBRANCH  19  20
ENDBRANCH  18  19
ENDBRANCH   4  18
TORSDOF 14
ENDMDL
MODEL 9
REMARK VINA RESULT:      -7.0      5.117      8.041
REMARK  Name = 
REMARK  18 active torsions:
REMARK  status: ('A' for Active; 'I' for Inactive)
REMARK    1  A    between atoms: C_1  and  C_2
REMARK    2  A    between atoms: C_2  and  C_3
REMARK    3  A    between atoms: C_2  and  C_4
REMARK    4  A    between atoms: C_2  and  C_23
REMARK    5  A    between atoms: C_4  and  C_5
REMARK    6  A    between atoms: C_5  and  C_6
REMARK    7  A    between atoms: C_6  and  C_7
REMARK    8  A    between atoms: C_10  and  C_11
REMARK    9  A    between atoms: C_11  and  C_12
REMARK   10  A    between atoms: C_12  and  C_13
REMARK   11  A    between atoms: C_13  and  C_14
REMARK   12  A    between atoms: C_14  and  C_15
REMARK   13  A    between atoms: C_14  and  C_16
REMARK   14  A    between atoms: C_14  and  C_17
REMARK   15  A    between atoms: C_17  and  C_18
REMARK   16  A    between atoms: C_18  and  O_20
REMARK   17  A    between atoms: C_23  and  C_24
REMARK   18  A    between atoms: C_24  and  O_26
REMARK                            x       y       z     vdW  Elec       q    Type
REMARK                         _______ _______ _______ _____ _____    ______ ____
ROOT
ATOM      1  C   UNL     1       2.606   5.879  20.380  0.00  0.00    +0.000 C 
ATOM      2  C   UNL     1       2.289   4.378  20.482  0.00  0.00    +0.000 C 
ATOM      3  C   UNL     1       1.330   3.941  19.379  0.00  0.00    +0.000 C 
ATOM      4  C   UNL     1       1.921   4.227  17.986  0.00  0.00    +0.000 C 
ATOM      5  C   UNL     1       2.199   5.731  17.856  0.00  0.00    +0.000 C 
ATOM      6  C   UNL     1       3.096   6.259  18.973  0.00  0.00    +0.000 C 
ENDROOT
BRANCH   1   7
ATOM      7  C   UNL     1       1.407   6.755  20.812  0.00  0.00    +0.000 C 
BRANCH   7   8
ATOM      8  C   UNL     1       1.555   8.246  20.475  0.00  0.00    +0.000 C 
BRANCH   8   9
ATOM      9  C   UNL     1       1.100   9.136  21.638  0.00  0.00    +0.000 C 
BRANCH   9  11
ATOM     10  C   UNL     1       1.045  11.569  20.978  0.00  0.00    +0.000 C 
ATOM     11  C   UNL     1       0.183  10.328  21.283  0.00  0.00    +0.000 C 
ATOM     12  C   UNL     1      -0.684  10.029  20.044  0.00  0.00    +0.000 C 
BRANCH  11  13
ATOM     13  C   UNL     1      -0.717  10.660  22.507  0.00  0.00    +0.000 C 
BRANCH  13  14
ATOM     14  C   UNL     1      -1.470  11.990  22.473  0.00  0.00    +0.000 C 
ATOM     15  O   UNL     1      -2.399  12.285  21.744  0.00  0.00    +0.000 OA
BRANCH  14  16
ATOM     16  O   UNL     1      -0.970  12.866  23.375  0.00  0.00    +0.000 OA
ATOM     17  H   UNL     1      -1.582  13.081  24.104  0.00  0.00    +0.000 HD
ENDBRANCH  14  16
ENDBRANCH  13  14
ENDBRANCH  11  13
ENDBRANCH   9  11
ENDBRANCH   8   9
ENDBRANCH   7   8
ENDBRANCH   1   7
BRANCH   4  18
ATOM     18  C   UNL     1       3.189   3.386  17.682  0.00  0.00    +0.000 C 
BRANCH  18  19
ATOM     19  C   UNL     1       3.989   4.015  16.545  0.00  0.00    +0.000 C 
BRANCH  19  20
ATOM     20  C   UNL     1       5.491   4.104  16.804  0.00  0.00    +0.000 C 
BRANCH  20  21
ATOM     21  C   UNL     1       6.168   5.332  16.109  0.00  0.00    +0.000 C 
ATOM     22  C   UNL     1       6.928   4.882  14.844  0.00  0.00    +0.000 C 
ATOM     23  C   UNL     1       5.091   6.360  15.708  0.00  0.00    +0.000 C 
BRANCH  21  24
ATOM     24  C   UNL     1       7.152   5.955  17.131  0.00  0.00    +0.000 C 
BRANCH  24  25
ATOM     25  C   UNL     1       7.583   5.025  18.246  0.00  0.00    +0.000 C 
ATOM     26  O   UNL     1       7.237   5.149  19.410  0.00  0.00    +0.000 OA
BRANCH  25  27
ATOM     27  O   UNL     1       8.409   4.035  17.839  0.00  0.00    +0.000 OA
ATOM     28  H   UNL     1       8.686   4.106  16.907  0.00  0.00    +0.000 HD
ENDBRANCH  25  27
ENDBRANCH  24  25
ENDBRANCH  21  24
ENDBRANCH  20  21
ENDBRANCH  19  20
ENDBRANCH  18  19
ENDBRANCH   4  18
TORSDOF 14
ENDMDL
