MODEL 1
REMARK VINA RESULT:      -7.6      0.000      0.000
REMARK  Name = 
REMARK  6 active torsions:
REMARK  status: ('A' for Active; 'I' for Inactive)
REMARK    1  A    between atoms: C_1  and  O_2
REMARK    2  A    between atoms: O_2  and  C_3
REMARK    3  A    between atoms: C_6  and  S_7
REMARK    4  A    between atoms: S_7  and  N_10
REMARK    5  A    between atoms: C_14  and  C_15
REMARK    6  A    between atoms: N_17  and  C_18
REMARK                            x       y       z     vdW  Elec       q    Type
REMARK                         _______ _______ _______ _____ _____    ______ ____
ROOT
ATOM      1  N   UNL     1       4.517   5.555  18.249  0.00  0.00    +0.000 NA
ATOM      2  C   UNL     1       4.239   5.163  19.664  0.00  0.00    +0.000 C 
ATOM      3  C   UNL     1       2.762   5.310  20.002  0.00  0.00    +0.000 C 
ATOM      4  C   UNL     1       2.286   6.727  19.726  0.00  0.00    +0.000 C 
ATOM      5  C   UNL     1       2.504   7.084  18.253  0.00  0.00    +0.000 C 
ATOM      6  C   UNL     1       3.970   6.896  17.869  0.00  0.00    +0.000 C 
ENDROOT
BRANCH   5   7
ATOM      7  C   UNL     1       2.110   8.544  18.001  0.00  0.00    +0.000 C 
ATOM      8  O   UNL     1       2.581   9.167  17.058  0.00  0.00    +0.000 OA
ATOM      9  N   UNL     1       1.214   9.053  18.930  0.00  0.00    +0.000 N 
ATOM     10  H   UNL     1       1.059   8.521  19.780  0.00  0.00    +0.000 HD
BRANCH   9  11
ATOM     11  C   UNL     1       0.617  10.334  18.875  0.00  0.00    +0.000 A 
ATOM     12  C   UNL     1       1.329  11.528  18.980  0.00  0.00    +0.000 A 
ATOM     13  C   UNL     1       0.656  12.749  18.959  0.00  0.00    +0.000 A 
ATOM     14  C   UNL     1      -0.722  12.740  18.816  0.00  0.00    +0.000 A 
ATOM     15  N   UNL     1      -1.448  11.612  18.674  0.00  0.00    +0.000 NA
ATOM     16  C   UNL     1      -0.762  10.440  18.702  0.00  0.00    +0.000 A 
ENDBRANCH   9  11
ENDBRANCH   5   7
BRANCH   1  17
ATOM     17  S   UNL     1       6.206   5.482  17.847  0.00  0.00    +0.000 S 
ATOM     18  O   UNL     1       6.799   4.445  18.666  0.00  0.00    +0.000 OA
ATOM     19  O   UNL     1       6.724   6.833  17.847  0.00  0.00    +0.000 OA
BRANCH  17  23
ATOM     20  C   UNL     1       6.284   4.020  13.534  0.00  0.00    +0.000 A 
ATOM     21  C   UNL     1       5.349   3.499  14.436  0.00  0.00    +0.000 A 
ATOM     22  C   UNL     1       5.299   3.962  15.751  0.00  0.00    +0.000 A 
ATOM     23  C   UNL     1       6.205   4.942  16.165  0.00  0.00    +0.000 A 
ATOM     24  C   UNL     1       7.166   5.449  15.292  0.00  0.00    +0.000 A 
ATOM     25  C   UNL     1       7.207   4.983  13.979  0.00  0.00    +0.000 A 
ATOM     26 CL   UNL     1       8.408   5.637  12.923  0.00  0.00    +0.000 Cl
BRANCH  20  28
ATOM     27  C   UNL     1       5.360   2.703  11.803  0.00  0.00    +0.000 C 
ATOM     28  O   UNL     1       6.378   3.601  12.231  0.00  0.00    +0.000 OA
ENDBRANCH  20  28
ENDBRANCH  17  23
ENDBRANCH   1  17
TORSDOF 5
ENDMDL
MODEL 2
REMARK VINA RESULT:      -7.4      1.826      2.089
REMARK  Name = 
REMARK  6 active torsions:
REMARK  status: ('A' for Active; 'I' for Inactive)
REMARK    1  A    between atoms: C_1  and  O_2
REMARK    2  A    between atoms: O_2  and  C_3
REMARK    3  A    between atoms: C_6  and  S_7
REMARK    4  A    between atoms: S_7  and  N_10
REMARK    5  A    between atoms: C_14  and  C_15
REMARK    6  A    between atoms: N_17  and  C_18
REMARK                            x       y       z     vdW  Elec       q    Type
REMARK                         _______ _______ _______ _____ _____    ______ ____
ROOT
ATOM      1  N   UNL     1       4.617   5.082  18.456  0.00  0.00    +0.000 NA
ATOM      2  C   UNL     1       4.553   4.151  19.623  0.00  0.00    +0.000 C 
ATOM      3  C   UNL     1       3.122   3.966  20.109  0.00  0.00    +0.000 C 
ATOM      4  C   UNL     1       2.492   5.307  20.448  0.00  0.00    +0.000 C 
ATOM      5  C   UNL     1       2.493   6.222  19.219  0.00  0.00    +0.000 C 
ATOM      6  C   UNL     1       3.911   6.384  18.676  0.00  0.00    +0.000 C 
ENDROOT
BRANCH   5   7
ATOM      7  C   UNL     1       1.943   7.603  19.590  0.00  0.00    +0.000 C 
ATOM      8  O   UNL     1       1.925   8.513  18.769  0.00  0.00    +0.000 OA
ATOM      9  N   UNL     1       1.504   7.700  20.902  0.00  0.00    +0.000 N 
ATOM     10  H   UNL     1       1.761   6.958  21.544  0.00  0.00    +0.000 HD
BRANCH   9  11
ATOM     11  C   UNL     1       0.866   8.828  21.471  0.00  0.00    +0.000 A 
ATOM     12  C   UNL     1      -0.201   8.747  22.365  0.00  0.00    +0.000 A 
ATOM     13  C   UNL     1      -0.801   9.910  22.846  0.00  0.00    +0.000 A 
ATOM     14  C   UNL     1      -0.300  11.132  22.428  0.00  0.00    +0.000 A 
ATOM     15  N   UNL     1       0.754  11.259  21.594  0.00  0.00    +0.000 NA
ATOM     16  C   UNL     1       1.313  10.106  21.141  0.00  0.00    +0.000 A 
ENDBRANCH   9  11
ENDBRANCH   5   7
BRANCH   1  17
ATOM     17  S   UNL     1       6.243   5.387  17.923  0.00  0.00    +0.000 S 
ATOM     18  O   UNL     1       7.116   4.522  18.690  0.00  0.00    +0.000 OA
ATOM     19  O   UNL     1       6.441   6.821  17.888  0.00  0.00    +0.000 OA
BRANCH  17  23
ATOM     20  C   UNL     1       6.308   3.905  13.617  0.00  0.00    +0.000 A 
ATOM     21  C   UNL     1       5.425   3.337  14.543  0.00  0.00    +0.000 A 
ATOM     22  C   UNL     1       5.379   3.804  15.856  0.00  0.00    +0.000 A 
ATOM     23  C   UNL     1       6.235   4.837  16.245  0.00  0.00    +0.000 A 
ATOM     24  C   UNL     1       7.145   5.393  15.348  0.00  0.00    +0.000 A 
ATOM     25  C   UNL     1       7.183   4.923  14.036  0.00  0.00    +0.000 A 
ATOM     26 CL   UNL     1       8.319   5.639  12.950  0.00  0.00    +0.000 Cl
BRANCH  20  28
ATOM     27  C   UNL     1       5.157   3.167  11.690  0.00  0.00    +0.000 C 
ATOM     28  O   UNL     1       6.396   3.485  12.314  0.00  0.00    +0.000 OA
ENDBRANCH  20  28
ENDBRANCH  17  23
ENDBRANCH   1  17
TORSDOF 5
ENDMDL
MODEL 3
REMARK VINA RESULT:      -7.4      2.885      3.831
REMARK  Name = 
REMARK  6 active torsions:
REMARK  status: ('A' for Active; 'I' for Inactive)
REMARK    1  A    between atoms: C_1  and  O_2
REMARK    2  A    between atoms: O_2  and  C_3
REMARK    3  A    between atoms: C_6  and  S_7
REMARK    4  A    between atoms: S_7  and  N_10
REMARK    5  A    between atoms: C_14  and  C_15
REMARK    6  A    between atoms: N_17  and  C_18
REMARK                            x       y       z     vdW  Elec       q    Type
REMARK                         _______ _______ _______ _____ _____    ______ ____
ROOT
ATOM      1  N   UNL     1       2.426   3.200  19.169  0.00  0.00    +0.000 NA
ATOM      2  C   UNL     1       2.936   2.713  20.487  0.00  0.00    +0.000 C 
ATOM      3  C   UNL     1       2.196   3.367  21.646  0.00  0.00    +0.000 C 
ATOM      4  C   UNL     1       2.284   4.882  21.553  0.00  0.00    +0.000 C 
ATOM      5  C   UNL     1       1.683   5.370  20.231  0.00  0.00    +0.000 C 
ATOM      6  C   UNL     1       2.372   4.691  19.049  0.00  0.00    +0.000 C 
ENDROOT
BRANCH   5   7
ATOM      7  C   UNL     1       1.859   6.887  20.102  0.00  0.00    +0.000 C 
ATOM      8  O   UNL     1       2.802   7.359  19.477  0.00  0.00    +0.000 OA
ATOM      9  N   UNL     1       0.883   7.625  20.755  0.00  0.00    +0.000 N 
ATOM     10  H   UNL     1       0.281   7.139  21.410  0.00  0.00    +0.000 HD
BRANCH   9  11
ATOM     11  C   UNL     1       0.756   9.034  20.713  0.00  0.00    +0.000 A 
ATOM     12  C   UNL     1       0.597   9.765  19.537  0.00  0.00    +0.000 A 
ATOM     13  C   UNL     1       0.521  11.157  19.583  0.00  0.00    +0.000 A 
ATOM     14  C   UNL     1       0.592  11.781  20.817  0.00  0.00    +0.000 A 
ATOM     15  N   UNL     1       0.709  11.113  21.984  0.00  0.00    +0.000 NA
ATOM     16  C   UNL     1       0.783   9.758  21.904  0.00  0.00    +0.000 A 
ENDBRANCH   9  11
ENDBRANCH   5   7
BRANCH   1  17
ATOM     17  S   UNL     1       3.302   2.541  17.821  0.00  0.00    +0.000 S 
ATOM     18  O   UNL     1       2.389   2.493  16.697  0.00  0.00    +0.000 OA
ATOM     19  O   UNL     1       4.001   1.358  18.276  0.00  0.00    +0.000 OA
BRANCH  17  23
ATOM     20  C   UNL     1       6.556   5.612  16.968  0.00  0.00    +0.000 A 
ATOM     21  C   UNL     1       5.686   5.208  15.948  0.00  0.00    +0.000 A 
ATOM     22  C   UNL     1       4.669   4.289  16.208  0.00  0.00    +0.000 A 
ATOM     23  C   UNL     1       4.535   3.763  17.495  0.00  0.00    +0.000 A 
ATOM     24  C   UNL     1       5.412   4.126  18.516  0.00  0.00    +0.000 A 
ATOM     25  C   UNL     1       6.424   5.046  18.249  0.00  0.00    +0.000 A 
ATOM     26 CL   UNL     1       7.489   5.478  19.539  0.00  0.00    +0.000 Cl
BRANCH  20  28
ATOM     27  C   UNL     1       7.355   7.809  17.311  0.00  0.00    +0.000 C 
ATOM     28  O   UNL     1       7.573   6.510  16.769  0.00  0.00    +0.000 OA
ENDBRANCH  20  28
ENDBRANCH  17  23
ENDBRANCH   1  17
TORSDOF 5
ENDMDL
MODEL 4
REMARK VINA RESULT:      -7.4      3.576      8.586
REMARK  Name = 
REMARK  6 active torsions:
REMARK  status: ('A' for Active; 'I' for Inactive)
REMARK    1  A    between atoms: C_1  and  O_2
REMARK    2  A    between atoms: O_2  and  C_3
REMARK    3  A    between atoms: C_6  and  S_7
REMARK    4  A    between atoms: S_7  and  N_10
REMARK    5  A    between atoms: C_14  and  C_15
REMARK    6  A    between atoms: N_17  and  C_18
REMARK                            x       y       z     vdW  Elec       q    Type
REMARK                         _______ _______ _______ _____ _____    ______ ____
ROOT
ATOM      1  N   UNL     1       4.829   5.824  18.374  0.00  0.00    +0.000 NA
ATOM      2  C   UNL     1       5.841   5.245  19.309  0.00  0.00    +0.000 C 
ATOM      3  C   UNL     1       7.260   5.578  18.869  0.00  0.00    +0.000 C 
ATOM      4  C   UNL     1       7.504   5.109  17.444  0.00  0.00    +0.000 C 
ATOM      5  C   UNL     1       6.510   5.773  16.487  0.00  0.00    +0.000 C 
ATOM      6  C   UNL     1       5.076   5.500  16.933  0.00  0.00    +0.000 C 
ENDROOT
BRANCH   5   7
ATOM      7  C   UNL     1       6.700   5.226  15.068  0.00  0.00    +0.000 C 
ATOM      8  O   UNL     1       7.736   5.435  14.448  0.00  0.00    +0.000 OA
ATOM      9  N   UNL     1       5.610   4.515  14.588  0.00  0.00    +0.000 N 
ATOM     10  H   UNL     1       4.736   4.586  15.098  0.00  0.00    +0.000 HD
BRANCH   9  11
ATOM     11  C   UNL     1       5.561   3.825  13.353  0.00  0.00    +0.000 A 
ATOM     12  C   UNL     1       4.412   3.715  12.571  0.00  0.00    +0.000 A 
ATOM     13  C   UNL     1       4.439   2.980  11.386  0.00  0.00    +0.000 A 
ATOM     14  C   UNL     1       5.631   2.384  11.008  0.00  0.00    +0.000 A 
ATOM     15  N   UNL     1       6.776   2.494  11.714  0.00  0.00    +0.000 NA
ATOM     16  C   UNL     1       6.714   3.214  12.864  0.00  0.00    +0.000 A 
ENDBRANCH   9  11
ENDBRANCH   5   7
BRANCH   1  17
ATOM     17  S   UNL     1       3.199   5.396  18.794  0.00  0.00    +0.000 S 
ATOM     18  O   UNL     1       3.245   4.734  20.081  0.00  0.00    +0.000 OA
ATOM     19  O   UNL     1       2.591   4.764  17.642  0.00  0.00    +0.000 OA
BRANCH  17  23
ATOM     20  C   UNL     1       1.235   9.469  19.342  0.00  0.00    +0.000 A 
ATOM     21  C   UNL     1       1.746   9.097  18.093  0.00  0.00    +0.000 A 
ATOM     22  C   UNL     1       2.323   7.840  17.909  0.00  0.00    +0.000 A 
ATOM     23  C   UNL     1       2.401   6.960  18.991  0.00  0.00    +0.000 A 
ATOM     24  C   UNL     1       1.930   7.324  20.251  0.00  0.00    +0.000 A 
ATOM     25  C   UNL     1       1.352   8.580  20.425  0.00  0.00    +0.000 A 
ATOM     26 CL   UNL     1       0.773   8.995  21.999  0.00  0.00    +0.000 Cl
BRANCH  20  28
ATOM     27  C   UNL     1       1.397  11.816  19.116  0.00  0.00    +0.000 C 
ATOM     28  O   UNL     1       0.658  10.691  19.579  0.00  0.00    +0.000 OA
ENDBRANCH  20  28
ENDBRANCH  17  23
ENDBRANCH   1  17
TORSDOF 5
ENDMDL
MODEL 5
REMARK VINA RESULT:      -7.3      0.988      1.078
REMARK  Name = 
REMARK  6 active torsions:
REMARK  status: ('A' for Active; 'I' for Inactive)
REMARK    1  A    between atoms: C_1  and  O_2
REMARK    2  A    between atoms: O_2  and  C_3
REMARK    3  A    between atoms: C_6  and  S_7
REMARK    4  A    between atoms: S_7  and  N_10
REMARK    5  A    between atoms: C_14  and  C_15
REMARK    6  A    between atoms: N_17  and  C_18
REMARK                            x       y       z     vdW  Elec       q    Type
REMARK                         _______ _______ _______ _____ _____    ______ ____
ROOT
ATOM      1  N   UNL     1       4.516   5.125  18.231  0.00  0.00    +0.000 NA
ATOM      2  C   UNL     1       4.346   4.158  19.356  0.00  0.00    +0.000 C 
ATOM      3  C   UNL     1       2.888   4.049  19.782  0.00  0.00    +0.000 C 
ATOM      4  C   UNL     1       2.333   5.415  20.149  0.00  0.00    +0.000 C 
ATOM      5  C   UNL     1       2.441   6.372  18.958  0.00  0.00    +0.000 C 
ATOM      6  C   UNL     1       3.887   6.461  18.475  0.00  0.00    +0.000 C 
ENDROOT
BRANCH   5   7
ATOM      7  C   UNL     1       1.966   7.772  19.363  0.00  0.00    +0.000 C 
ATOM      8  O   UNL     1       1.839   8.075  20.544  0.00  0.00    +0.000 OA
ATOM      9  N   UNL     1       1.697   8.607  18.290  0.00  0.00    +0.000 N 
ATOM     10  H   UNL     1       1.632   8.189  17.368  0.00  0.00    +0.000 HD
BRANCH   9  11
ATOM     11  C   UNL     1       1.340   9.974  18.384  0.00  0.00    +0.000 A 
ATOM     12  C   UNL     1       2.253  11.023  18.295  0.00  0.00    +0.000 A 
ATOM     13  C   UNL     1       1.822  12.341  18.441  0.00  0.00    +0.000 A 
ATOM     14  C   UNL     1       0.474  12.574  18.659  0.00  0.00    +0.000 A 
ATOM     15  N   UNL     1      -0.451  11.593  18.716  0.00  0.00    +0.000 NA
ATOM     16  C   UNL     1       0.002  10.320  18.573  0.00  0.00    +0.000 A 
ENDBRANCH   9  11
ENDBRANCH   5   7
BRANCH   1  17
ATOM     17  S   UNL     1       6.177   5.342  17.771  0.00  0.00    +0.000 S 
ATOM     18  O   UNL     1       6.963   4.397  18.537  0.00  0.00    +0.000 OA
ATOM     19  O   UNL     1       6.467   6.760  17.797  0.00  0.00    +0.000 OA
BRANCH  17  23
ATOM     20  C   UNL     1       6.319   4.009  13.418  0.00  0.00    +0.000 A 
ATOM     21  C   UNL     1       5.363   3.471  14.287  0.00  0.00    +0.000 A 
ATOM     22  C   UNL     1       5.294   3.895  15.614  0.00  0.00    +0.000 A 
ATOM     23  C   UNL     1       6.201   4.853  16.074  0.00  0.00    +0.000 A 
ATOM     24  C   UNL     1       7.183   5.376  15.234  0.00  0.00    +0.000 A 
ATOM     25  C   UNL     1       7.243   4.949  13.908  0.00  0.00    +0.000 A 
ATOM     26 CL   UNL     1       8.469   5.623  12.894  0.00  0.00    +0.000 Cl
BRANCH  20  28
ATOM     27  C   UNL     1       5.658   2.495  11.728  0.00  0.00    +0.000 C 
ATOM     28  O   UNL     1       6.432   3.629  12.105  0.00  0.00    +0.000 OA
ENDBRANCH  20  28
ENDBRANCH  17  23
ENDBRANCH   1  17
TORSDOF 5
ENDMDL
MODEL 6
REMARK VINA RESULT:      -7.3      4.786      9.531
REMARK  Name = 
REMARK  6 active torsions:
REMARK  status: ('A' for Active; 'I' for Inactive)
REMARK    1  A    between atoms: C_1  and  O_2
REMARK    2  A    between atoms: O_2  and  C_3
REMARK    3  A    between atoms: C_6  and  S_7
REMARK    4  A    between atoms: S_7  and  N_10
REMARK    5  A    between atoms: C_14  and  C_15
REMARK    6  A    between atoms: N_17  and  C_18
REMARK                            x       y       z     vdW  Elec       q    Type
REMARK                         _______ _______ _______ _____ _____    ______ ____
ROOT
ATOM      1  N   UNL     1       0.431  11.271  21.424  0.00  0.00    +0.000 NA
ATOM      2  C   UNL     1      -0.717  10.710  22.199  0.00  0.00    +0.000 C 
ATOM      3  C   UNL     1      -0.348   9.391  22.865  0.00  0.00    +0.000 C 
ATOM      4  C   UNL     1       0.154   8.392  21.835  0.00  0.00    +0.000 C 
ATOM      5  C   UNL     1       1.380   8.949  21.105  0.00  0.00    +0.000 C 
ATOM      6  C   UNL     1       1.055  10.299  20.470  0.00  0.00    +0.000 C 
ENDROOT
BRANCH   5   7
ATOM      7  C   UNL     1       1.824   7.978  20.005  0.00  0.00    +0.000 C 
ATOM      8  O   UNL     1       1.929   8.352  18.843  0.00  0.00    +0.000 OA
ATOM      9  N   UNL     1       2.064   6.689  20.456  0.00  0.00    +0.000 N 
ATOM     10  H   UNL     1       1.743   6.444  21.386  0.00  0.00    +0.000 HD
BRANCH   9  11
ATOM     11  C   UNL     1       2.575   5.628  19.670  0.00  0.00    +0.000 A 
ATOM     12  C   UNL     1       1.776   4.696  19.011  0.00  0.00    +0.000 A 
ATOM     13  C   UNL     1       2.363   3.655  18.292  0.00  0.00    +0.000 A 
ATOM     14  C   UNL     1       3.745   3.587  18.240  0.00  0.00    +0.000 A 
ATOM     15  N   UNL     1       4.558   4.487  18.831  0.00  0.00    +0.000 NA
ATOM     16  C   UNL     1       3.955   5.486  19.526  0.00  0.00    +0.000 A 
ENDBRANCH   9  11
ENDBRANCH   5   7
BRANCH   1  17
ATOM     17  S   UNL     1       0.026  12.734  20.579  0.00  0.00    +0.000 S 
ATOM     18  O   UNL     1       1.095  12.997  19.638  0.00  0.00    +0.000 OA
ATOM     19  O   UNL     1      -0.377  13.720  21.559  0.00  0.00    +0.000 OA
BRANCH  17  23
ATOM     20  C   UNL     1      -3.723  11.512  18.299  0.00  0.00    +0.000 A 
ATOM     21  C   UNL     1      -3.826  12.302  19.450  0.00  0.00    +0.000 A 
ATOM     22  C   UNL     1      -2.681  12.704  20.138  0.00  0.00    +0.000 A 
ATOM     23  C   UNL     1      -1.428  12.297  19.675  0.00  0.00    +0.000 A 
ATOM     24  C   UNL     1      -1.305  11.482  18.551  0.00  0.00    +0.000 A 
ATOM     25  C   UNL     1      -2.454  11.088  17.868  0.00  0.00    +0.000 A 
ATOM     26 CL   UNL     1      -2.264  10.082  16.476  0.00  0.00    +0.000 Cl
BRANCH  20  28
ATOM     27  C   UNL     1      -6.053  11.118  18.286  0.00  0.00    +0.000 C 
ATOM     28  O   UNL     1      -4.815  11.087  17.585  0.00  0.00    +0.000 OA
ENDBRANCH  20  28
ENDBRANCH  17  23
ENDBRANCH   1  17
TORSDOF 5
ENDMDL
MODEL 7
REMARK VINA RESULT:      -7.2      5.611      9.639
REMARK  Name = 
REMARK  6 active torsions:
REMARK  status: ('A' for Active; 'I' for Inactive)
REMARK    1  A    between atoms: C_1  and  O_2
REMARK    2  A    between atoms: O_2  and  C_3
REMARK    3  A    between atoms: C_6  and  S_7
REMARK    4  A    between atoms: S_7  and  N_10
REMARK    5  A    between atoms: C_14  and  C_15
REMARK    6  A    between atoms: N_17  and  C_18
REMARK                            x       y       z     vdW  Elec       q    Type
REMARK                         _______ _______ _______ _____ _____    ______ ____
ROOT
ATOM      1  N   UNL     1       0.255  11.578  21.754  0.00  0.00    +0.000 NA
ATOM      2  C   UNL     1      -0.899  11.120  22.584  0.00  0.00    +0.000 C 
ATOM      3  C   UNL     1      -0.572   9.835  23.332  0.00  0.00    +0.000 C 
ATOM      4  C   UNL     1      -0.131   8.749  22.365  0.00  0.00    +0.000 C 
ATOM      5  C   UNL     1       1.103   9.203  21.579  0.00  0.00    +0.000 C 
ATOM      6  C   UNL     1       0.820  10.520  20.858  0.00  0.00    +0.000 C 
ENDROOT
BRANCH   5   7
ATOM      7  C   UNL     1       1.485   8.142  20.540  0.00  0.00    +0.000 C 
ATOM      8  O   UNL     1       1.658   8.447  19.366  0.00  0.00    +0.000 OA
ATOM      9  N   UNL     1       1.592   6.861  21.059  0.00  0.00    +0.000 N 
ATOM     10  H   UNL     1       1.223   6.692  21.988  0.00  0.00    +0.000 HD
BRANCH   9  11
ATOM     11  C   UNL     1       2.024   5.720  20.341  0.00  0.00    +0.000 A 
ATOM     12  C   UNL     1       1.285   4.543  20.234  0.00  0.00    +0.000 A 
ATOM     13  C   UNL     1       1.804   3.449  19.542  0.00  0.00    +0.000 A 
ATOM     14  C   UNL     1       3.054   3.572  18.958  0.00  0.00    +0.000 A 
ATOM     15  N   UNL     1       3.790   4.702  19.004  0.00  0.00    +0.000 NA
ATOM     16  C   UNL     1       3.256   5.748  19.688  0.00  0.00    +0.000 A 
ENDBRANCH   9  11
ENDBRANCH   5   7
BRANCH   1  17
ATOM     17  S   UNL     1      -0.106  12.997  20.817  0.00  0.00    +0.000 S 
ATOM     18  O   UNL     1       1.097  13.353  20.094  0.00  0.00    +0.000 OA
ATOM     19  O   UNL     1      -0.775  13.945  21.682  0.00  0.00    +0.000 OA
BRANCH  17  23
ATOM     20  C   UNL     1      -3.245  11.637  17.810  0.00  0.00    +0.000 A 
ATOM     21  C   UNL     1      -1.894  11.682  17.445  0.00  0.00    +0.000 A 
ATOM     22  C   UNL     1      -0.923  12.070  18.369  0.00  0.00    +0.000 A 
ATOM     23  C   UNL     1      -1.314  12.429  19.661  0.00  0.00    +0.000 A 
ATOM     24  C   UNL     1      -2.657  12.425  20.034  0.00  0.00    +0.000 A 
ATOM     25  C   UNL     1      -3.620  12.032  19.106  0.00  0.00    +0.000 A 
ATOM     26 CL   UNL     1      -5.274  12.033  19.605  0.00  0.00    +0.000 Cl
BRANCH  20  28
ATOM     27  C   UNL     1      -3.799  10.690  15.717  0.00  0.00    +0.000 C 
ATOM     28  O   UNL     1      -4.240  11.264  16.943  0.00  0.00    +0.000 OA
ENDBRANCH  20  28
ENDBRANCH  17  23
ENDBRANCH   1  17
TORSDOF 5
ENDMDL
MODEL 8
REMARK VINA RESULT:      -7.2      3.574      8.547
REMARK  Name = 
REMARK  6 active torsions:
REMARK  status: ('A' for Active; 'I' for Inactive)
REMARK    1  A    between atoms: C_1  and  O_2
REMARK    2  A    between atoms: O_2  and  C_3
REMARK    3  A    between atoms: C_6  and  S_7
REMARK    4  A    between atoms: S_7  and  N_10
REMARK    5  A    between atoms: C_14  and  C_15
REMARK    6  A    between atoms: N_17  and  C_18
REMARK                            x       y       z     vdW  Elec       q    Type
REMARK                         _______ _______ _______ _____ _____    ______ ____
ROOT
ATOM      1  N   UNL     1       4.847   5.814  18.387  0.00  0.00    +0.000 NA
ATOM      2  C   UNL     1       5.843   5.235  19.339  0.00  0.00    +0.000 C 
ATOM      3  C   UNL     1       7.269   5.577  18.927  0.00  0.00    +0.000 C 
ATOM      4  C   UNL     1       7.542   5.116  17.505  0.00  0.00    +0.000 C 
ATOM      5  C   UNL     1       6.563   5.781  16.532  0.00  0.00    +0.000 C 
ATOM      6  C   UNL     1       5.122   5.498  16.950  0.00  0.00    +0.000 C 
ENDROOT
BRANCH   5   7
ATOM      7  C   UNL     1       6.783   5.241  15.114  0.00  0.00    +0.000 C 
ATOM      8  O   UNL     1       7.802   5.511  14.491  0.00  0.00    +0.000 OA
ATOM      9  N   UNL     1       5.737   4.464  14.640  0.00  0.00    +0.000 N 
ATOM     10  H   UNL     1       4.861   4.484  15.151  0.00  0.00    +0.000 HD
BRANCH   9  11
ATOM     11  C   UNL     1       5.726   3.768  13.407  0.00  0.00    +0.000 A 
ATOM     12  C   UNL     1       6.863   3.223  12.813  0.00  0.00    +0.000 A 
ATOM     13  C   UNL     1       6.771   2.589  11.574  0.00  0.00    +0.000 A 
ATOM     14  C   UNL     1       5.529   2.505  10.968  0.00  0.00    +0.000 A 
ATOM     15  N   UNL     1       4.396   2.985  11.521  0.00  0.00    +0.000 NA
ATOM     16  C   UNL     1       4.521   3.599  12.727  0.00  0.00    +0.000 A 
ENDBRANCH   9  11
ENDBRANCH   5   7
BRANCH   1  17
ATOM     17  S   UNL     1       3.211   5.375  18.774  0.00  0.00    +0.000 S 
ATOM     18  O   UNL     1       3.239   4.685  20.048  0.00  0.00    +0.000 OA
ATOM     19  O   UNL     1       2.620   4.769  17.600  0.00  0.00    +0.000 OA
BRANCH  17  23
ATOM     20  C   UNL     1       1.236   9.435  19.382  0.00  0.00    +0.000 A 
ATOM     21  C   UNL     1       1.737   9.078  18.124  0.00  0.00    +0.000 A 
ATOM     22  C   UNL     1       2.317   7.825  17.923  0.00  0.00    +0.000 A 
ATOM     23  C   UNL     1       2.409   6.934  18.994  0.00  0.00    +0.000 A 
ATOM     24  C   UNL     1       1.948   7.283  20.263  0.00  0.00    +0.000 A 
ATOM     25  C   UNL     1       1.366   8.535  20.455  0.00  0.00    +0.000 A 
ATOM     26 CL   UNL     1       0.800   8.932  22.038  0.00  0.00    +0.000 Cl
BRANCH  20  28
ATOM     27  C   UNL     1      -0.462  10.978  18.819  0.00  0.00    +0.000 C 
ATOM     28  O   UNL     1       0.657  10.652  19.637  0.00  0.00    +0.000 OA
ENDBRANCH  20  28
ENDBRANCH  17  23
ENDBRANCH   1  17
TORSDOF 5
ENDMDL
MODEL 9
REMARK VINA RESULT:      -7.2      5.112      9.554
REMARK  Name = 
REMARK  6 active torsions:
REMARK  status: ('A' for Active; 'I' for Inactive)
REMARK    1  A    between atoms: C_1  and  O_2
REMARK    2  A    between atoms: O_2  and  C_3
REMARK    3  A    between atoms: C_6  and  S_7
REMARK    4  A    between atoms: S_7  and  N_10
REMARK    5  A    between atoms: C_14  and  C_15
REMARK    6  A    between atoms: N_17  and  C_18
REMARK                            x       y       z     vdW  Elec       q    Type
REMARK                         _______ _______ _______ _____ _____    ______ ____
ROOT
ATOM      1  N   UNL     1       0.390  11.260  21.156  0.00  0.00    +0.000 NA
ATOM      2  C   UNL     1      -0.792  10.884  21.988  0.00  0.00    +0.000 C 
ATOM      3  C   UNL     1      -0.494   9.674  22.863  0.00  0.00    +0.000 C 
ATOM      4  C   UNL     1      -0.028   8.501  22.016  0.00  0.00    +0.000 C 
ATOM      5  C   UNL     1       1.232   8.878  21.231  0.00  0.00    +0.000 C 
ATOM      6  C   UNL     1       0.978  10.122  20.382  0.00  0.00    +0.000 C 
ENDROOT
BRANCH   5   7
ATOM      7  C   UNL     1       1.642   7.724  20.309  0.00  0.00    +0.000 C 
ATOM      8  O   UNL     1       1.904   7.926  19.129  0.00  0.00    +0.000 OA
ATOM      9  N   UNL     1       1.665   6.486  20.933  0.00  0.00    +0.000 N 
ATOM     10  H   UNL     1       1.229   6.407  21.845  0.00  0.00    +0.000 HD
BRANCH   9  11
ATOM     11  C   UNL     1       2.101   5.277  20.340  0.00  0.00    +0.000 A 
ATOM     12  C   UNL     1       3.409   5.047  19.916  0.00  0.00    +0.000 A 
ATOM     13  C   UNL     1       3.744   3.841  19.301  0.00  0.00    +0.000 A 
ATOM     14  C   UNL     1       2.754   2.885  19.141  0.00  0.00    +0.000 A 
ATOM     15  N   UNL     1       1.485   3.049  19.568  0.00  0.00    +0.000 NA
ATOM     16  C   UNL     1       1.191   4.237  20.160  0.00  0.00    +0.000 A 
ENDBRANCH   9  11
ENDBRANCH   5   7
BRANCH   1  17
ATOM     17  S   UNL     1       0.064  12.586  20.080  0.00  0.00    +0.000 S 
ATOM     18  O   UNL     1       1.075  12.556  19.043  0.00  0.00    +0.000 OA
ATOM     19  O   UNL     1      -0.160  13.769  20.883  0.00  0.00    +0.000 OA
BRANCH  17  23
ATOM     20  C   UNL     1      -3.951  11.395  18.289  0.00  0.00    +0.000 A 
ATOM     21  C   UNL     1      -3.899  12.272  19.379  0.00  0.00    +0.000 A 
ATOM     22  C   UNL     1      -2.673  12.664  19.915  0.00  0.00    +0.000 A 
ATOM     23  C   UNL     1      -1.493  12.160  19.363  0.00  0.00    +0.000 A 
ATOM     24  C   UNL     1      -1.523  11.259  18.300  0.00  0.00    +0.000 A 
ATOM     25  C   UNL     1      -2.753  10.875  17.768  0.00  0.00    +0.000 A 
ATOM     26 CL   UNL     1      -2.752   9.761  16.447  0.00  0.00    +0.000 Cl
BRANCH  20  28
ATOM     27  C   UNL     1      -6.203  10.769  18.632  0.00  0.00    +0.000 C 
ATOM     28  O   UNL     1      -5.128  10.976  17.722  0.00  0.00    +0.000 OA
ENDBRANCH  20  28
ENDBRANCH  17  23
ENDBRANCH   1  17
TORSDOF 5
ENDMDL
