MODEL 1
REMARK VINA RESULT:      -6.3      0.000      0.000
REMARK  Name = 
REMARK  6 active torsions:
REMARK  status: ('A' for Active; 'I' for Inactive)
REMARK    1  A    between atoms: C_2  and  O_11
REMARK    2  A    between atoms: N_3  and  C_4
REMARK    3  A    between atoms: O_11  and  C_12
REMARK    4  A    between atoms: C_12  and  C_13
REMARK    5  A    between atoms: C_13  and  C_14
REMARK    6  A    between atoms: C_14  and  C_15
REMARK                            x       y       z     vdW  Elec       q    Type
REMARK                         _______ _______ _______ _____ _____    ______ ____
ROOT
ATOM      1  O   UNL     1       3.549   7.108  17.826  0.00  0.00    +0.000 OA
ATOM      2  C   UNL     1       3.733   6.145  18.552  0.00  0.00    +0.000 C 
ATOM      3  N   UNL     1       4.446   5.015  18.241  0.00  0.00    +0.000 N 
ATOM      4  H   UNL     1       4.297   4.223  18.851  0.00  0.00    +0.000 HD
ENDROOT
BRANCH   3   5
ATOM      5  C   UNL     1       5.245   4.835  17.095  0.00  0.00    +0.000 A 
ATOM      6  C   UNL     1       4.675   4.406  15.885  0.00  0.00    +0.000 A 
ATOM      7  C   UNL     1       5.465   4.228  14.746  0.00  0.00    +0.000 A 
ATOM      8  C   UNL     1       6.828   4.470  14.800  0.00  0.00    +0.000 A 
ATOM      9  C   UNL     1       7.409   4.908  15.989  0.00  0.00    +0.000 A 
ATOM     10  C   UNL     1       6.617   5.114  17.126  0.00  0.00    +0.000 A 
ATOM     11  I   UNL     1       7.581   5.760  18.877  0.00  0.00    +0.000 I 
ENDBRANCH   3   5
BRANCH   2  12
ATOM     12  O   UNL     1       3.268   6.048  19.826  0.00  0.00    +0.000 OA
BRANCH  12  13
ATOM     13  C   UNL     1       1.866   5.765  19.928  0.00  0.00    +0.000 C 
BRANCH  13  14
ATOM     14  C   UNL     1       1.593   4.582  20.849  0.00  0.00    +0.000 C 
BRANCH  14  15
ATOM     15  C   UNL     1       1.272   3.347  20.004  0.00  0.00    +0.000 C 
BRANCH  15  16
ATOM     16  C   UNL     1       2.480   2.620  19.536  0.00  0.00    +0.000 A 
ATOM     17  C   UNL     1       2.666   1.900  18.376  0.00  0.00    +0.000 A 
ATOM     18  N   UNL     1       3.934   1.397  18.466  0.00  0.00    +0.000 N 
ATOM     19  C   UNL     1       4.461   1.820  19.651  0.00  0.00    +0.000 A 
ATOM     20  N   UNL     1       3.610   2.563  20.318  0.00  0.00    +0.000 NA
ATOM     21  H   UNL     1       4.399   0.812  17.786  0.00  0.00    +0.000 HD
ENDBRANCH  15  16
ENDBRANCH  14  15
ENDBRANCH  13  14
ENDBRANCH  12  13
ENDBRANCH   2  12
TORSDOF 6
ENDMDL
MODEL 2
REMARK VINA RESULT:      -6.3      2.899      6.104
REMARK  Name = 
REMARK  6 active torsions:
REMARK  status: ('A' for Active; 'I' for Inactive)
REMARK    1  A    between atoms: C_2  and  O_11
REMARK    2  A    between atoms: N_3  and  C_4
REMARK    3  A    between atoms: O_11  and  C_12
REMARK    4  A    between atoms: C_12  and  C_13
REMARK    5  A    between atoms: C_13  and  C_14
REMARK    6  A    between atoms: C_14  and  C_15
REMARK                            x       y       z     vdW  Elec       q    Type
REMARK                         _______ _______ _______ _____ _____    ______ ____
ROOT
ATOM      1  O   UNL     1       6.431   4.903  19.856  0.00  0.00    +0.000 OA
ATOM      2  C   UNL     1       5.935   4.651  18.771  0.00  0.00    +0.000 C 
ATOM      3  N   UNL     1       4.692   4.112  18.549  0.00  0.00    +0.000 N 
ATOM      4  H   UNL     1       4.535   3.745  17.621  0.00  0.00    +0.000 HD
ENDROOT
BRANCH   3   5
ATOM      5  C   UNL     1       3.692   3.920  19.522  0.00  0.00    +0.000 A 
ATOM      6  C   UNL     1       3.673   2.755  20.308  0.00  0.00    +0.000 A 
ATOM      7  C   UNL     1       2.683   2.561  21.275  0.00  0.00    +0.000 A 
ATOM      8  C   UNL     1       1.702   3.520  21.468  0.00  0.00    +0.000 A 
ATOM      9  C   UNL     1       1.713   4.688  20.706  0.00  0.00    +0.000 A 
ATOM     10  C   UNL     1       2.719   4.899  19.754  0.00  0.00    +0.000 A 
ATOM     11  I   UNL     1       2.645   6.680  18.643  0.00  0.00    +0.000 I 
ENDBRANCH   3   5
BRANCH   2  12
ATOM     12  O   UNL     1       6.541   4.891  17.578  0.00  0.00    +0.000 OA
BRANCH  12  13
ATOM     13  C   UNL     1       6.180   6.137  16.968  0.00  0.00    +0.000 C 
BRANCH  13  14
ATOM     14  C   UNL     1       5.336   5.931  15.717  0.00  0.00    +0.000 C 
BRANCH  14  15
ATOM     15  C   UNL     1       5.556   4.513  15.186  0.00  0.00    +0.000 C 
BRANCH  15  16
ATOM     16  C   UNL     1       6.319   4.470  13.912  0.00  0.00    +0.000 A 
ATOM     17  C   UNL     1       6.189   3.599  12.851  0.00  0.00    +0.000 A 
ATOM     18  N   UNL     1       7.163   3.968  11.965  0.00  0.00    +0.000 N 
ATOM     19  C   UNL     1       7.835   5.024  12.508  0.00  0.00    +0.000 A 
ATOM     20  N   UNL     1       7.347   5.353  13.681  0.00  0.00    +0.000 NA
ATOM     21  H   UNL     1       7.360   3.535  11.074  0.00  0.00    +0.000 HD
ENDBRANCH  15  16
ENDBRANCH  14  15
ENDBRANCH  13  14
ENDBRANCH  12  13
ENDBRANCH   2  12
TORSDOF 6
ENDMDL
MODEL 3
REMARK VINA RESULT:      -6.1      0.812      1.047
REMARK  Name = 
REMARK  6 active torsions:
REMARK  status: ('A' for Active; 'I' for Inactive)
REMARK    1  A    between atoms: C_2  and  O_11
REMARK    2  A    between atoms: N_3  and  C_4
REMARK    3  A    between atoms: O_11  and  C_12
REMARK    4  A    between atoms: C_12  and  C_13
REMARK    5  A    between atoms: C_13  and  C_14
REMARK    6  A    between atoms: C_14  and  C_15
REMARK                            x       y       z     vdW  Elec       q    Type
REMARK                         _______ _______ _______ _____ _____    ______ ____
ROOT
ATOM      1  O   UNL     1       3.077   6.398  17.539  0.00  0.00    +0.000 OA
ATOM      2  C   UNL     1       3.757   5.802  18.357  0.00  0.00    +0.000 C 
ATOM      3  N   UNL     1       4.838   5.000  18.089  0.00  0.00    +0.000 N 
ATOM      4  H   UNL     1       5.132   4.397  18.845  0.00  0.00    +0.000 HD
ENDROOT
BRANCH   3   5
ATOM      5  C   UNL     1       5.471   4.862  16.839  0.00  0.00    +0.000 A 
ATOM      6  C   UNL     1       4.944   4.002  15.861  0.00  0.00    +0.000 A 
ATOM      7  C   UNL     1       5.568   3.863  14.619  0.00  0.00    +0.000 A 
ATOM      8  C   UNL     1       6.724   4.574  14.338  0.00  0.00    +0.000 A 
ATOM      9  C   UNL     1       7.254   5.442  15.292  0.00  0.00    +0.000 A 
ATOM     10  C   UNL     1       6.617   5.605  16.528  0.00  0.00    +0.000 A 
ATOM     11  I   UNL     1       7.497   6.922  17.909  0.00  0.00    +0.000 I 
ENDBRANCH   3   5
BRANCH   2  12
ATOM     12  O   UNL     1       3.560   5.858  19.701  0.00  0.00    +0.000 OA
BRANCH  12  13
ATOM     13  C   UNL     1       2.203   5.645  20.112  0.00  0.00    +0.000 C 
BRANCH  13  14
ATOM     14  C   UNL     1       2.108   4.634  21.248  0.00  0.00    +0.000 C 
BRANCH  14  15
ATOM     15  C   UNL     1       1.620   3.293  20.694  0.00  0.00    +0.000 C 
BRANCH  15  16
ATOM     16  C   UNL     1       2.652   2.566  19.911  0.00  0.00    +0.000 A 
ATOM     17  C   UNL     1       3.964   2.300  20.239  0.00  0.00    +0.000 A 
ATOM     18  N   UNL     1       4.480   1.652  19.151  0.00  0.00    +0.000 N 
ATOM     19  C   UNL     1       3.486   1.551  18.222  0.00  0.00    +0.000 A 
ATOM     20  N   UNL     1       2.369   2.090  18.652  0.00  0.00    +0.000 NA
ATOM     21  H   UNL     1       5.426   1.314  19.046  0.00  0.00    +0.000 HD
ENDBRANCH  15  16
ENDBRANCH  14  15
ENDBRANCH  13  14
ENDBRANCH  12  13
ENDBRANCH   2  12
TORSDOF 6
ENDMDL
MODEL 4
REMARK VINA RESULT:      -6.1      1.111      1.277
REMARK  Name = 
REMARK  6 active torsions:
REMARK  status: ('A' for Active; 'I' for Inactive)
REMARK    1  A    between atoms: C_2  and  O_11
REMARK    2  A    between atoms: N_3  and  C_4
REMARK    3  A    between atoms: O_11  and  C_12
REMARK    4  A    between atoms: C_12  and  C_13
REMARK    5  A    between atoms: C_13  and  C_14
REMARK    6  A    between atoms: C_14  and  C_15
REMARK                            x       y       z     vdW  Elec       q    Type
REMARK                         _______ _______ _______ _____ _____    ______ ____
ROOT
ATOM      1  O   UNL     1       5.463   4.505  19.607  0.00  0.00    +0.000 OA
ATOM      2  C   UNL     1       4.658   5.321  19.190  0.00  0.00    +0.000 C 
ATOM      3  N   UNL     1       4.568   5.794  17.905  0.00  0.00    +0.000 N 
ATOM      4  H   UNL     1       4.015   6.632  17.786  0.00  0.00    +0.000 HD
ENDROOT
BRANCH   3   5
ATOM      5  C   UNL     1       5.270   5.293  16.792  0.00  0.00    +0.000 A 
ATOM      6  C   UNL     1       4.706   4.296  15.979  0.00  0.00    +0.000 A 
ATOM      7  C   UNL     1       5.400   3.798  14.873  0.00  0.00    +0.000 A 
ATOM      8  C   UNL     1       6.662   4.282  14.567  0.00  0.00    +0.000 A 
ATOM      9  C   UNL     1       7.232   5.280  15.356  0.00  0.00    +0.000 A 
ATOM     10  C   UNL     1       6.529   5.803  16.449  0.00  0.00    +0.000 A 
ATOM     11  I   UNL     1       7.474   7.293  17.589  0.00  0.00    +0.000 I 
ENDBRANCH   3   5
BRANCH   2  12
ATOM     12  O   UNL     1       3.682   5.887  19.948  0.00  0.00    +0.000 OA
BRANCH  12  13
ATOM     13  C   UNL     1       2.371   5.346  19.731  0.00  0.00    +0.000 C 
BRANCH  13  14
ATOM     14  C   UNL     1       1.802   4.718  20.997  0.00  0.00    +0.000 C 
BRANCH  14  15
ATOM     15  C   UNL     1       1.248   3.330  20.668  0.00  0.00    +0.000 C 
BRANCH  15  16
ATOM     16  C   UNL     1       1.958   2.659  19.549  0.00  0.00    +0.000 A 
ATOM     17  C   UNL     1       1.532   2.439  18.257  0.00  0.00    +0.000 A 
ATOM     18  N   UNL     1       2.544   1.739  17.660  0.00  0.00    +0.000 N 
ATOM     19  C   UNL     1       3.526   1.562  18.591  0.00  0.00    +0.000 A 
ATOM     20  N   UNL     1       3.203   2.109  19.740  0.00  0.00    +0.000 NA
ATOM     21  H   UNL     1       2.563   1.404  16.708  0.00  0.00    +0.000 HD
ENDBRANCH  15  16
ENDBRANCH  14  15
ENDBRANCH  13  14
ENDBRANCH  12  13
ENDBRANCH   2  12
TORSDOF 6
ENDMDL
MODEL 5
REMARK VINA RESULT:      -6.0      2.528      5.755
REMARK  Name = 
REMARK  6 active torsions:
REMARK  status: ('A' for Active; 'I' for Inactive)
REMARK    1  A    between atoms: C_2  and  O_11
REMARK    2  A    between atoms: N_3  and  C_4
REMARK    3  A    between atoms: O_11  and  C_12
REMARK    4  A    between atoms: C_12  and  C_13
REMARK    5  A    between atoms: C_13  and  C_14
REMARK    6  A    between atoms: C_14  and  C_15
REMARK                            x       y       z     vdW  Elec       q    Type
REMARK                         _______ _______ _______ _____ _____    ______ ____
ROOT
ATOM      1  O   UNL     1       5.086   3.554  17.392  0.00  0.00    +0.000 OA
ATOM      2  C   UNL     1       5.446   4.034  18.454  0.00  0.00    +0.000 C 
ATOM      3  N   UNL     1       4.652   4.289  19.544  0.00  0.00    +0.000 N 
ATOM      4  H   UNL     1       5.051   4.904  20.240  0.00  0.00    +0.000 HD
ENDROOT
BRANCH   3   5
ATOM      5  C   UNL     1       3.314   3.879  19.702  0.00  0.00    +0.000 A 
ATOM      6  C   UNL     1       3.007   2.541  20.000  0.00  0.00    +0.000 A 
ATOM      7  C   UNL     1       1.680   2.131  20.159  0.00  0.00    +0.000 A 
ATOM      8  C   UNL     1       0.648   3.044  20.018  0.00  0.00    +0.000 A 
ATOM      9  C   UNL     1       0.935   4.379  19.735  0.00  0.00    +0.000 A 
ATOM     10  C   UNL     1       2.264   4.800  19.602  0.00  0.00    +0.000 A 
ATOM     11  I   UNL     1       2.601   6.826  19.159  0.00  0.00    +0.000 I 
ENDBRANCH   3   5
BRANCH   2  12
ATOM     12  O   UNL     1       6.729   4.380  18.741  0.00  0.00    +0.000 OA
BRANCH  12  13
ATOM     13  C   UNL     1       6.883   5.698  19.285  0.00  0.00    +0.000 C 
BRANCH  13  14
ATOM     14  C   UNL     1       7.983   6.478  18.575  0.00  0.00    +0.000 C 
BRANCH  14  15
ATOM     15  C   UNL     1       7.362   7.334  17.468  0.00  0.00    +0.000 C 
BRANCH  15  16
ATOM     16  C   UNL     1       6.765   6.536  16.367  0.00  0.00    +0.000 A 
ATOM     17  C   UNL     1       5.473   6.546  15.888  0.00  0.00    +0.000 A 
ATOM     18  N   UNL     1       5.446   5.590  14.911  0.00  0.00    +0.000 N 
ATOM     19  C   UNL     1       6.695   5.045  14.834  0.00  0.00    +0.000 A 
ATOM     20  N   UNL     1       7.514   5.597  15.698  0.00  0.00    +0.000 NA
ATOM     21  H   UNL     1       4.648   5.325  14.351  0.00  0.00    +0.000 HD
ENDBRANCH  15  16
ENDBRANCH  14  15
ENDBRANCH  13  14
ENDBRANCH  12  13
ENDBRANCH   2  12
TORSDOF 6
ENDMDL
MODEL 6
REMARK VINA RESULT:      -6.0      2.404      3.562
REMARK  Name = 
REMARK  6 active torsions:
REMARK  status: ('A' for Active; 'I' for Inactive)
REMARK    1  A    between atoms: C_2  and  O_11
REMARK    2  A    between atoms: N_3  and  C_4
REMARK    3  A    between atoms: O_11  and  C_12
REMARK    4  A    between atoms: C_12  and  C_13
REMARK    5  A    between atoms: C_13  and  C_14
REMARK    6  A    between atoms: C_14  and  C_15
REMARK                            x       y       z     vdW  Elec       q    Type
REMARK                         _______ _______ _______ _____ _____    ______ ____
ROOT
ATOM      1  O   UNL     1       4.969   2.370  20.013  0.00  0.00    +0.000 OA
ATOM      2  C   UNL     1       4.453   2.457  18.912  0.00  0.00    +0.000 C 
ATOM      3  N   UNL     1       4.679   3.441  17.981  0.00  0.00    +0.000 N 
ATOM      4  H   UNL     1       4.000   3.499  17.235  0.00  0.00    +0.000 HD
ENDROOT
BRANCH   3   5
ATOM      5  C   UNL     1       5.679   4.429  18.055  0.00  0.00    +0.000 A 
ATOM      6  C   UNL     1       6.084   4.947  19.296  0.00  0.00    +0.000 A 
ATOM      7  C   UNL     1       7.077   5.927  19.373  0.00  0.00    +0.000 A 
ATOM      8  C   UNL     1       7.675   6.404  18.217  0.00  0.00    +0.000 A 
ATOM      9  C   UNL     1       7.295   5.892  16.977  0.00  0.00    +0.000 A 
ATOM     10  C   UNL     1       6.319   4.890  16.897  0.00  0.00    +0.000 A 
ATOM     11  I   UNL     1       5.799   4.191  14.986  0.00  0.00    +0.000 I 
ENDBRANCH   3   5
BRANCH   2  12
ATOM     12  O   UNL     1       3.567   1.557  18.409  0.00  0.00    +0.000 OA
BRANCH  12  13
ATOM     13  C   UNL     1       2.440   2.141  17.741  0.00  0.00    +0.000 C 
BRANCH  13  14
ATOM     14  C   UNL     1       1.128   1.782  18.427  0.00  0.00    +0.000 C 
BRANCH  14  15
ATOM     15  C   UNL     1       0.481   3.055  18.979  0.00  0.00    +0.000 C 
BRANCH  15  16
ATOM     16  C   UNL     1       1.283   3.714  20.041  0.00  0.00    +0.000 A 
ATOM     17  C   UNL     1       1.816   4.985  20.064  0.00  0.00    +0.000 A 
ATOM     18  N   UNL     1       2.502   5.063  21.244  0.00  0.00    +0.000 N 
ATOM     19  C   UNL     1       2.366   3.863  21.880  0.00  0.00    +0.000 A 
ATOM     20  N   UNL     1       1.633   3.029  21.180  0.00  0.00    +0.000 NA
ATOM     21  H   UNL     1       3.024   5.858  21.584  0.00  0.00    +0.000 HD
ENDBRANCH  15  16
ENDBRANCH  14  15
ENDBRANCH  13  14
ENDBRANCH  12  13
ENDBRANCH   2  12
TORSDOF 6
ENDMDL
MODEL 7
REMARK VINA RESULT:      -6.0      5.099      7.590
REMARK  Name = 
REMARK  6 active torsions:
REMARK  status: ('A' for Active; 'I' for Inactive)
REMARK    1  A    between atoms: C_2  and  O_11
REMARK    2  A    between atoms: N_3  and  C_4
REMARK    3  A    between atoms: O_11  and  C_12
REMARK    4  A    between atoms: C_12  and  C_13
REMARK    5  A    between atoms: C_13  and  C_14
REMARK    6  A    between atoms: C_14  and  C_15
REMARK                            x       y       z     vdW  Elec       q    Type
REMARK                         _______ _______ _______ _____ _____    ______ ____
ROOT
ATOM      1  O   UNL     1       7.499   5.334  19.860  0.00  0.00    +0.000 OA
ATOM      2  C   UNL     1       7.376   6.092  18.913  0.00  0.00    +0.000 C 
ATOM      3  N   UNL     1       6.349   6.098  18.002  0.00  0.00    +0.000 N 
ATOM      4  H   UNL     1       6.522   6.619  17.154  0.00  0.00    +0.000 HD
ENDROOT
BRANCH   3   5
ATOM      5  C   UNL     1       5.160   5.349  18.097  0.00  0.00    +0.000 A 
ATOM      6  C   UNL     1       4.336   5.455  19.229  0.00  0.00    +0.000 A 
ATOM      7  C   UNL     1       3.155   4.714  19.326  0.00  0.00    +0.000 A 
ATOM      8  C   UNL     1       2.784   3.859  18.301  0.00  0.00    +0.000 A 
ATOM      9  C   UNL     1       3.584   3.751  17.164  0.00  0.00    +0.000 A 
ATOM     10  C   UNL     1       4.754   4.512  17.050  0.00  0.00    +0.000 A 
ATOM     11  I   UNL     1       5.904   4.271  15.309  0.00  0.00    +0.000 I 
ENDBRANCH   3   5
BRANCH   2  12
ATOM     12  O   UNL     1       8.247   7.093  18.616  0.00  0.00    +0.000 OA
BRANCH  12  13
ATOM     13  C   UNL     1       7.779   8.012  17.619  0.00  0.00    +0.000 C 
BRANCH  13  14
ATOM     14  C   UNL     1       8.187   9.446  17.937  0.00  0.00    +0.000 C 
BRANCH  14  15
ATOM     15  C   UNL     1       9.200   9.441  19.083  0.00  0.00    +0.000 C 
BRANCH  15  16
ATOM     16  C   UNL     1       9.574  10.802  19.548  0.00  0.00    +0.000 A 
ATOM     17  C   UNL     1      10.342  11.755  18.917  0.00  0.00    +0.000 A 
ATOM     18  N   UNL     1      10.415  12.798  19.798  0.00  0.00    +0.000 N 
ATOM     19  C   UNL     1       9.704  12.448  20.909  0.00  0.00    +0.000 A 
ATOM     20  N   UNL     1       9.181  11.250  20.787  0.00  0.00    +0.000 NA
ATOM     21  H   UNL     1      10.910  13.668  19.661  0.00  0.00    +0.000 HD
ENDBRANCH  15  16
ENDBRANCH  14  15
ENDBRANCH  13  14
ENDBRANCH  12  13
ENDBRANCH   2  12
TORSDOF 6
ENDMDL
MODEL 8
REMARK VINA RESULT:      -5.9      4.714      7.310
REMARK  Name = 
REMARK  6 active torsions:
REMARK  status: ('A' for Active; 'I' for Inactive)
REMARK    1  A    between atoms: C_2  and  O_11
REMARK    2  A    between atoms: N_3  and  C_4
REMARK    3  A    between atoms: O_11  and  C_12
REMARK    4  A    between atoms: C_12  and  C_13
REMARK    5  A    between atoms: C_13  and  C_14
REMARK    6  A    between atoms: C_14  and  C_15
REMARK                            x       y       z     vdW  Elec       q    Type
REMARK                         _______ _______ _______ _____ _____    ______ ____
ROOT
ATOM      1  O   UNL     1       5.258   6.463  15.216  0.00  0.00    +0.000 OA
ATOM      2  C   UNL     1       5.876   6.338  16.260  0.00  0.00    +0.000 C 
ATOM      3  N   UNL     1       5.440   5.697  17.393  0.00  0.00    +0.000 N 
ATOM      4  H   UNL     1       5.965   5.893  18.234  0.00  0.00    +0.000 HD
ENDROOT
BRANCH   3   5
ATOM      5  C   UNL     1       4.275   4.913  17.499  0.00  0.00    +0.000 A 
ATOM      6  C   UNL     1       4.333   3.519  17.327  0.00  0.00    +0.000 A 
ATOM      7  C   UNL     1       3.179   2.738  17.432  0.00  0.00    +0.000 A 
ATOM      8  C   UNL     1       1.958   3.334  17.706  0.00  0.00    +0.000 A 
ATOM      9  C   UNL     1       1.885   4.713  17.892  0.00  0.00    +0.000 A 
ATOM     10  C   UNL     1       3.043   5.497  17.814  0.00  0.00    +0.000 A 
ATOM     11  I   UNL     1       2.833   7.569  18.093  0.00  0.00    +0.000 I 
ENDBRANCH   3   5
BRANCH   2  12
ATOM     12  O   UNL     1       7.136   6.805  16.463  0.00  0.00    +0.000 OA
BRANCH  12  13
ATOM     13  C   UNL     1       7.359   7.367  17.764  0.00  0.00    +0.000 C 
BRANCH  13  14
ATOM     14  C   UNL     1       7.759   8.835  17.684  0.00  0.00    +0.000 C 
BRANCH  14  15
ATOM     15  C   UNL     1       8.948   9.087  18.614  0.00  0.00    +0.000 C 
BRANCH  15  16
ATOM     16  C   UNL     1       9.176  10.525  18.907  0.00  0.00    +0.000 A 
ATOM     17  C   UNL     1       9.280  11.585  18.032  0.00  0.00    +0.000 A 
ATOM     18  N   UNL     1       9.539  12.673  18.818  0.00  0.00    +0.000 N 
ATOM     19  C   UNL     1       9.582  12.245  20.113  0.00  0.00    +0.000 A 
ATOM     20  N   UNL     1       9.363  10.954  20.200  0.00  0.00    +0.000 NA
ATOM     21  H   UNL     1       9.681  13.623  18.502  0.00  0.00    +0.000 HD
ENDBRANCH  15  16
ENDBRANCH  14  15
ENDBRANCH  13  14
ENDBRANCH  12  13
ENDBRANCH   2  12
TORSDOF 6
ENDMDL
MODEL 9
REMARK VINA RESULT:      -5.9      2.691      5.650
REMARK  Name = 
REMARK  6 active torsions:
REMARK  status: ('A' for Active; 'I' for Inactive)
REMARK    1  A    between atoms: C_2  and  O_11
REMARK    2  A    between atoms: N_3  and  C_4
REMARK    3  A    between atoms: O_11  and  C_12
REMARK    4  A    between atoms: C_12  and  C_13
REMARK    5  A    between atoms: C_13  and  C_14
REMARK    6  A    between atoms: C_14  and  C_15
REMARK                            x       y       z     vdW  Elec       q    Type
REMARK                         _______ _______ _______ _____ _____    ______ ____
ROOT
ATOM      1  O   UNL     1       1.183   4.178  17.307  0.00  0.00    +0.000 OA
ATOM      2  C   UNL     1       2.395   4.256  17.420  0.00  0.00    +0.000 C 
ATOM      3  N   UNL     1       3.095   5.271  18.023  0.00  0.00    +0.000 N 
ATOM      4  H   UNL     1       4.083   5.302  17.817  0.00  0.00    +0.000 HD
ENDROOT
BRANCH   3   5
ATOM      5  C   UNL     1       2.536   6.320  18.779  0.00  0.00    +0.000 A 
ATOM      6  C   UNL     1       2.400   7.606  18.230  0.00  0.00    +0.000 A 
ATOM      7  C   UNL     1       1.845   8.648  18.977  0.00  0.00    +0.000 A 
ATOM      8  C   UNL     1       1.423   8.423  20.278  0.00  0.00    +0.000 A 
ATOM      9  C   UNL     1       1.538   7.150  20.835  0.00  0.00    +0.000 A 
ATOM     10  C   UNL     1       2.069   6.096  20.080  0.00  0.00    +0.000 A 
ATOM     11  I   UNL     1       2.218   4.217  21.008  0.00  0.00    +0.000 I 
ENDBRANCH   3   5
BRANCH   2  12
ATOM     12  O   UNL     1       3.266   3.312  16.974  0.00  0.00    +0.000 OA
BRANCH  12  13
ATOM     13  C   UNL     1       4.649   3.650  17.149  0.00  0.00    +0.000 C 
BRANCH  13  14
ATOM     14  C   UNL     1       5.284   4.124  15.848  0.00  0.00    +0.000 C 
BRANCH  14  15
ATOM     15  C   UNL     1       6.800   4.228  16.033  0.00  0.00    +0.000 C 
BRANCH  15  16
ATOM     16  C   UNL     1       7.201   5.138  17.136  0.00  0.00    +0.000 A 
ATOM     17  C   UNL     1       7.232   6.515  17.158  0.00  0.00    +0.000 A 
ATOM     18  N   UNL     1       7.724   6.843  18.390  0.00  0.00    +0.000 N 
ATOM     19  C   UNL     1       7.969   5.678  19.058  0.00  0.00    +0.000 A 
ATOM     20  N   UNL     1       7.660   4.632  18.329  0.00  0.00    +0.000 NA
ATOM     21  H   UNL     1       7.887   7.775  18.745  0.00  0.00    +0.000 HD
ENDBRANCH  15  16
ENDBRANCH  14  15
ENDBRANCH  13  14
ENDBRANCH  12  13
ENDBRANCH   2  12
TORSDOF 6
ENDMDL
