MODEL 1
REMARK VINA RESULT:      -8.2      0.000      0.000
REMARK  Name = 
REMARK  10 active torsions:
REMARK  status: ('A' for Active; 'I' for Inactive)
REMARK    1  A    between atoms: C_1  and  C_2
REMARK    2  A    between atoms: C_4  and  N_5
REMARK    3  A    between atoms: C_8  and  C_9
REMARK    4  A    between atoms: N_11  and  C_12
REMARK    5  A    between atoms: C_12  and  C_13
REMARK    6  A    between atoms: C_13  and  C_14
REMARK    7  A    between atoms: C_14  and  C_15
REMARK    8  A    between atoms: C_14  and  C_16
REMARK    9  A    between atoms: C_21  and  C_22
REMARK   10  A    between atoms: C_23  and  C_24
REMARK                            x       y       z     vdW  Elec       q    Type
REMARK                         _______ _______ _______ _____ _____    ______ ____
ROOT
ATOM      1  C   UNL     1       2.079   3.695  21.680  0.00  0.00    +0.000 C 
ATOM      2  C   UNL     1       2.400   4.701  20.598  0.00  0.00    +0.000 A 
ATOM      3  C   UNL     1       3.296   4.245  19.500  0.00  0.00    +0.000 A 
ATOM      4  C   UNL     1       3.662   5.163  18.587  0.00  0.00    +0.000 A 
ATOM      5  N   UNL     1       3.102   6.471  18.691  0.00  0.00    +0.000 N 
ATOM      6  N   UNL     1       3.293   7.533  17.854  0.00  0.00    +0.000 NA
ATOM      7  C   UNL     1       2.549   8.520  18.358  0.00  0.00    +0.000 A 
ATOM      8  C   UNL     1       2.510   9.824  17.649  0.00  0.00    +0.000 C 
ATOM      9  C   UNL     1       1.872   8.129  19.546  0.00  0.00    +0.000 A 
ATOM     10  C   UNL     1       2.226   6.801  19.737  0.00  0.00    +0.000 A 
ATOM     11  N   UNL     1       1.896   5.892  20.710  0.00  0.00    +0.000 NA
ENDROOT
BRANCH   9  12
ATOM     12  C   UNL     1       1.014   8.902  20.441  0.00  0.00    +0.000 A 
ATOM     13  C   UNL     1       0.074   9.817  19.948  0.00  0.00    +0.000 A 
ATOM     14  C   UNL     1      -0.780  10.505  20.817  0.00  0.00    +0.000 A 
ATOM     15  C   UNL     1      -0.672  10.315  22.192  0.00  0.00    +0.000 A 
ATOM     16 CL   UNL     1      -1.726  11.147  23.265  0.00  0.00    +0.000 Cl
ATOM     17  C   UNL     1       0.277   9.440  22.704  0.00  0.00    +0.000 A 
ATOM     18  C   UNL     1       1.100   8.725  21.831  0.00  0.00    +0.000 A 
ENDBRANCH   9  12
BRANCH   4  19
ATOM     19  N   UNL     1       4.580   4.901  17.554  0.00  0.00    +0.000 N 
ATOM     20  C   UNL     1       4.327   3.766  16.651  0.00  0.00    +0.000 C 
ATOM     21  C   UNL     1       5.647   3.080  16.323  0.00  0.00    +0.000 C 
ATOM     22  C   UNL     1       6.643   4.066  15.702  0.00  0.00    +0.000 C 
ATOM     23  C   UNL     1       6.800   5.300  16.609  0.00  0.00    +0.000 C 
ATOM     24  C   UNL     1       5.451   5.930  16.974  0.00  0.00    +0.000 C 
BRANCH  22  25
ATOM     25  C   UNL     1       6.233   4.494  14.294  0.00  0.00    +0.000 C 
ATOM     26  O   UNL     1       6.656   5.525  13.766  0.00  0.00    +0.000 OA
ATOM     27  N   UNL     1       5.362   3.648  13.648  0.00  0.00    +0.000 N 
ATOM     28  H   UNL     1       5.263   2.702  13.993  0.00  0.00    +0.000 HD
BRANCH  27  29
ATOM     29  C   UNL     1       4.939   3.939  12.292  0.00  0.00    +0.000 C 
BRANCH  29  30
ATOM     30  C   UNL     1       5.041   2.722  11.374  0.00  0.00    +0.000 C 
BRANCH  30  31
ATOM     31  C   UNL     1       6.230   1.794  11.691  0.00  0.00    +0.000 C 
ATOM     32  C   UNL     1       6.025   0.375  11.158  0.00  0.00    +0.000 C 
ATOM     33  C   UNL     1       7.519   2.380  11.112  0.00  0.00    +0.000 C 
ENDBRANCH  30  31
ENDBRANCH  29  30
ENDBRANCH  27  29
ENDBRANCH  22  25
ENDBRANCH   4  19
TORSDOF 6
ENDMDL
MODEL 2
REMARK VINA RESULT:      -8.1      0.318      1.103
REMARK  Name = 
REMARK  10 active torsions:
REMARK  status: ('A' for Active; 'I' for Inactive)
REMARK    1  A    between atoms: C_1  and  C_2
REMARK    2  A    between atoms: C_4  and  N_5
REMARK    3  A    between atoms: C_8  and  C_9
REMARK    4  A    between atoms: N_11  and  C_12
REMARK    5  A    between atoms: C_12  and  C_13
REMARK    6  A    between atoms: C_13  and  C_14
REMARK    7  A    between atoms: C_14  and  C_15
REMARK    8  A    between atoms: C_14  and  C_16
REMARK    9  A    between atoms: C_21  and  C_22
REMARK   10  A    between atoms: C_23  and  C_24
REMARK                            x       y       z     vdW  Elec       q    Type
REMARK                         _______ _______ _______ _____ _____    ______ ____
ROOT
ATOM      1  C   UNL     1       1.864   3.674  21.379  0.00  0.00    +0.000 C 
ATOM      2  C   UNL     1       2.264   4.738  20.382  0.00  0.00    +0.000 A 
ATOM      3  C   UNL     1       3.221   4.334  19.316  0.00  0.00    +0.000 A 
ATOM      4  C   UNL     1       3.655   5.299  18.485  0.00  0.00    +0.000 A 
ATOM      5  N   UNL     1       3.105   6.608  18.634  0.00  0.00    +0.000 N 
ATOM      6  N   UNL     1       3.362   7.714  17.876  0.00  0.00    +0.000 NA
ATOM      7  C   UNL     1       2.600   8.681  18.391  0.00  0.00    +0.000 A 
ATOM      8  C   UNL     1       2.621  10.026  17.762  0.00  0.00    +0.000 C 
ATOM      9  C   UNL     1       1.844   8.230  19.509  0.00  0.00    +0.000 A 
ATOM     10  C   UNL     1       2.170   6.888  19.641  0.00  0.00    +0.000 A 
ATOM     11  N   UNL     1       1.769   5.928  20.535  0.00  0.00    +0.000 NA
ENDROOT
BRANCH   9  12
ATOM     12  C   UNL     1       0.941   8.962  20.395  0.00  0.00    +0.000 A 
ATOM     13  C   UNL     1       0.951   8.762  21.782  0.00  0.00    +0.000 A 
ATOM     14  C   UNL     1       0.121   9.514  22.620  0.00  0.00    +0.000 A 
ATOM     15  C   UNL     1      -0.759  10.445  22.073  0.00  0.00    +0.000 A 
ATOM     16 CL   UNL     1      -1.772  11.381  23.098  0.00  0.00    +0.000 Cl
ATOM     17  C   UNL     1      -0.810  10.633  20.698  0.00  0.00    +0.000 A 
ATOM     18  C   UNL     1       0.049   9.909  19.869  0.00  0.00    +0.000 A 
ENDBRANCH   9  12
BRANCH   4  19
ATOM     19  N   UNL     1       4.633   5.085  17.497  0.00  0.00    +0.000 N 
ATOM     20  C   UNL     1       4.576   3.850  16.698  0.00  0.00    +0.000 C 
ATOM     21  C   UNL     1       5.990   3.340  16.458  0.00  0.00    +0.000 C 
ATOM     22  C   UNL     1       6.851   4.402  15.767  0.00  0.00    +0.000 C 
ATOM     23  C   UNL     1       6.800   5.721  16.559  0.00  0.00    +0.000 C 
ATOM     24  C   UNL     1       5.363   6.176  16.841  0.00  0.00    +0.000 C 
BRANCH  22  25
ATOM     25  C   UNL     1       6.427   4.640  14.318  0.00  0.00    +0.000 C 
ATOM     26  O   UNL     1       6.587   5.723  13.751  0.00  0.00    +0.000 OA
ATOM     27  N   UNL     1       5.861   3.560  13.683  0.00  0.00    +0.000 N 
ATOM     28  H   UNL     1       6.001   2.639  14.078  0.00  0.00    +0.000 HD
BRANCH  27  29
ATOM     29  C   UNL     1       5.458   3.664  12.293  0.00  0.00    +0.000 C 
BRANCH  29  30
ATOM     30  C   UNL     1       5.055   2.316  11.699  0.00  0.00    +0.000 C 
BRANCH  30  31
ATOM     31  C   UNL     1       6.194   1.590  10.957  0.00  0.00    +0.000 C 
ATOM     32  C   UNL     1       7.567   2.198  11.249  0.00  0.00    +0.000 C 
ATOM     33  C   UNL     1       6.198   0.107  11.329  0.00  0.00    +0.000 C 
ENDBRANCH  30  31
ENDBRANCH  29  30
ENDBRANCH  27  29
ENDBRANCH  22  25
ENDBRANCH   4  19
TORSDOF 6
ENDMDL
MODEL 3
REMARK VINA RESULT:      -7.9      0.823      1.343
REMARK  Name = 
REMARK  10 active torsions:
REMARK  status: ('A' for Active; 'I' for Inactive)
REMARK    1  A    between atoms: C_1  and  C_2
REMARK    2  A    between atoms: C_4  and  N_5
REMARK    3  A    between atoms: C_8  and  C_9
REMARK    4  A    between atoms: N_11  and  C_12
REMARK    5  A    between atoms: C_12  and  C_13
REMARK    6  A    between atoms: C_13  and  C_14
REMARK    7  A    between atoms: C_14  and  C_15
REMARK    8  A    between atoms: C_14  and  C_16
REMARK    9  A    between atoms: C_21  and  C_22
REMARK   10  A    between atoms: C_23  and  C_24
REMARK                            x       y       z     vdW  Elec       q    Type
REMARK                         _______ _______ _______ _____ _____    ______ ____
ROOT
ATOM      1  C   UNL     1       2.041   3.866  21.491  0.00  0.00    +0.000 C 
ATOM      2  C   UNL     1       2.345   4.948  20.480  0.00  0.00    +0.000 A 
ATOM      3  C   UNL     1       3.281   4.593  19.378  0.00  0.00    +0.000 A 
ATOM      4  C   UNL     1       3.631   5.578  18.531  0.00  0.00    +0.000 A 
ATOM      5  N   UNL     1       3.018   6.856  18.701  0.00  0.00    +0.000 N 
ATOM      6  N   UNL     1       3.187   7.973  17.934  0.00  0.00    +0.000 NA
ATOM      7  C   UNL     1       2.394   8.899  18.478  0.00  0.00    +0.000 A 
ATOM      8  C   UNL     1       2.319  10.242  17.848  0.00  0.00    +0.000 C 
ATOM      9  C   UNL     1       1.707   8.411  19.624  0.00  0.00    +0.000 A 
ATOM     10  C   UNL     1       2.109   7.088  19.743  0.00  0.00    +0.000 A 
ATOM     11  N   UNL     1       1.793   6.110  20.652  0.00  0.00    +0.000 NA
ENDROOT
BRANCH   9  12
ATOM     12  C   UNL     1       0.800   9.095  20.543  0.00  0.00    +0.000 A 
ATOM     13  C   UNL     1       0.871   8.894  21.928  0.00  0.00    +0.000 A 
ATOM     14  C   UNL     1       0.034   9.603  22.798  0.00  0.00    +0.000 A 
ATOM     15  C   UNL     1      -0.911  10.488  22.285  0.00  0.00    +0.000 A 
ATOM     16 CL   UNL     1      -1.933  11.372  23.348  0.00  0.00    +0.000 Cl
ATOM     17  C   UNL     1      -1.021  10.675  20.914  0.00  0.00    +0.000 A 
ATOM     18  C   UNL     1      -0.157   9.996  20.052  0.00  0.00    +0.000 A 
ENDBRANCH   9  12
BRANCH   4  19
ATOM     19  N   UNL     1       4.581   5.415  17.506  0.00  0.00    +0.000 N 
ATOM     20  C   UNL     1       5.024   4.054  17.161  0.00  0.00    +0.000 C 
ATOM     21  C   UNL     1       6.516   4.074  16.851  0.00  0.00    +0.000 C 
ATOM     22  C   UNL     1       6.832   5.060  15.721  0.00  0.00    +0.000 C 
ATOM     23  C   UNL     1       6.254   6.448  16.052  0.00  0.00    +0.000 C 
ATOM     24  C   UNL     1       4.767   6.387  16.423  0.00  0.00    +0.000 C 
BRANCH  22  25
ATOM     25  C   UNL     1       6.307   4.579  14.369  0.00  0.00    +0.000 C 
ATOM     26  O   UNL     1       5.127   4.271  14.188  0.00  0.00    +0.000 OA
ATOM     27  N   UNL     1       7.240   4.518  13.361  0.00  0.00    +0.000 N 
ATOM     28  H   UNL     1       8.105   5.031  13.471  0.00  0.00    +0.000 HD
BRANCH  27  29
ATOM     29  C   UNL     1       6.840   4.112  12.026  0.00  0.00    +0.000 C 
BRANCH  29  30
ATOM     30  C   UNL     1       7.242   2.673  11.709  0.00  0.00    +0.000 C 
BRANCH  30  31
ATOM     31  C   UNL     1       6.158   1.867  10.966  0.00  0.00    +0.000 C 
ATOM     32  C   UNL     1       6.207   0.374  11.296  0.00  0.00    +0.000 C 
ATOM     33  C   UNL     1       4.773   2.423  11.300  0.00  0.00    +0.000 C 
ENDBRANCH  30  31
ENDBRANCH  29  30
ENDBRANCH  27  29
ENDBRANCH  22  25
ENDBRANCH   4  19
TORSDOF 6
ENDMDL
MODEL 4
REMARK VINA RESULT:      -7.8      0.928      1.394
REMARK  Name = 
REMARK  10 active torsions:
REMARK  status: ('A' for Active; 'I' for Inactive)
REMARK    1  A    between atoms: C_1  and  C_2
REMARK    2  A    between atoms: C_4  and  N_5
REMARK    3  A    between atoms: C_8  and  C_9
REMARK    4  A    between atoms: N_11  and  C_12
REMARK    5  A    between atoms: C_12  and  C_13
REMARK    6  A    between atoms: C_13  and  C_14
REMARK    7  A    between atoms: C_14  and  C_15
REMARK    8  A    between atoms: C_14  and  C_16
REMARK    9  A    between atoms: C_21  and  C_22
REMARK   10  A    between atoms: C_23  and  C_24
REMARK                            x       y       z     vdW  Elec       q    Type
REMARK                         _______ _______ _______ _____ _____    ______ ____
ROOT
ATOM      1  C   UNL     1       1.986   3.783  21.843  0.00  0.00    +0.000 C 
ATOM      2  C   UNL     1       2.352   4.792  20.779  0.00  0.00    +0.000 A 
ATOM      3  C   UNL     1       3.343   4.359  19.755  0.00  0.00    +0.000 A 
ATOM      4  C   UNL     1       3.745   5.283  18.863  0.00  0.00    +0.000 A 
ATOM      5  N   UNL     1       3.134   6.572  18.913  0.00  0.00    +0.000 N 
ATOM      6  N   UNL     1       3.351   7.634  18.082  0.00  0.00    +0.000 NA
ATOM      7  C   UNL     1       2.538   8.597  18.519  0.00  0.00    +0.000 A 
ATOM      8  C   UNL     1       2.507   9.895  17.797  0.00  0.00    +0.000 C 
ATOM      9  C   UNL     1       1.787   8.191  19.657  0.00  0.00    +0.000 A 
ATOM     10  C   UNL     1       2.172   6.879  19.887  0.00  0.00    +0.000 A 
ATOM     11  N   UNL     1       1.801   5.966  20.842  0.00  0.00    +0.000 NA
ENDROOT
BRANCH   9  12
ATOM     12  C   UNL     1       0.838   8.941  20.478  0.00  0.00    +0.000 A 
ATOM     13  C   UNL     1       0.276   8.389  21.637  0.00  0.00    +0.000 A 
ATOM     14  C   UNL     1      -0.585   9.142  22.443  0.00  0.00    +0.000 A 
ATOM     15  C   UNL     1      -0.924  10.441  22.073  0.00  0.00    +0.000 A 
ATOM     16 CL   UNL     1      -1.971  11.376  23.065  0.00  0.00    +0.000 Cl
ATOM     17  C   UNL     1      -0.406  10.994  20.909  0.00  0.00    +0.000 A 
ATOM     18  C   UNL     1       0.484  10.253  20.130  0.00  0.00    +0.000 A 
ENDBRANCH   9  12
BRANCH   4  19
ATOM     19  N   UNL     1       4.747   5.046  17.904  0.00  0.00    +0.000 N 
ATOM     20  C   UNL     1       4.428   4.204  16.740  0.00  0.00    +0.000 C 
ATOM     21  C   UNL     1       5.631   3.330  16.408  0.00  0.00    +0.000 C 
ATOM     22  C   UNL     1       6.877   4.182  16.146  0.00  0.00    +0.000 C 
ATOM     23  C   UNL     1       7.121   5.139  17.327  0.00  0.00    +0.000 C 
ATOM     24  C   UNL     1       5.874   5.958  17.679  0.00  0.00    +0.000 C 
BRANCH  22  25
ATOM     25  C   UNL     1       6.778   4.969  14.840  0.00  0.00    +0.000 C 
ATOM     26  O   UNL     1       5.913   5.827  14.649  0.00  0.00    +0.000 OA
ATOM     27  N   UNL     1       7.724   4.662  13.891  0.00  0.00    +0.000 N 
ATOM     28  H   UNL     1       8.559   4.171  14.182  0.00  0.00    +0.000 HD
BRANCH  27  29
ATOM     29  C   UNL     1       7.745   5.378  12.629  0.00  0.00    +0.000 C 
BRANCH  29  30
ATOM     30  C   UNL     1       7.221   4.533  11.470  0.00  0.00    +0.000 C 
BRANCH  30  31
ATOM     31  C   UNL     1       6.644   3.169  11.896  0.00  0.00    +0.000 C 
ATOM     32  C   UNL     1       5.116   3.129  11.824  0.00  0.00    +0.000 C 
ATOM     33  C   UNL     1       7.229   2.058  11.022  0.00  0.00    +0.000 C 
ENDBRANCH  30  31
ENDBRANCH  29  30
ENDBRANCH  27  29
ENDBRANCH  22  25
ENDBRANCH   4  19
TORSDOF 6
ENDMDL
MODEL 5
REMARK VINA RESULT:      -7.8      6.135     12.791
REMARK  Name = 
REMARK  10 active torsions:
REMARK  status: ('A' for Active; 'I' for Inactive)
REMARK    1  A    between atoms: C_1  and  C_2
REMARK    2  A    between atoms: C_4  and  N_5
REMARK    3  A    between atoms: C_8  and  C_9
REMARK    4  A    between atoms: N_11  and  C_12
REMARK    5  A    between atoms: C_12  and  C_13
REMARK    6  A    between atoms: C_13  and  C_14
REMARK    7  A    between atoms: C_14  and  C_15
REMARK    8  A    between atoms: C_14  and  C_16
REMARK    9  A    between atoms: C_21  and  C_22
REMARK   10  A    between atoms: C_23  and  C_24
REMARK                            x       y       z     vdW  Elec       q    Type
REMARK                         _______ _______ _______ _____ _____    ______ ____
ROOT
ATOM      1  C   UNL     1      -2.369  11.372  17.097  0.00  0.00    +0.000 C 
ATOM      2  C   UNL     1      -1.785  11.205  18.481  0.00  0.00    +0.000 A 
ATOM      3  C   UNL     1      -2.363  12.052  19.561  0.00  0.00    +0.000 A 
ATOM      4  C   UNL     1      -1.783  11.979  20.773  0.00  0.00    +0.000 A 
ATOM      5  N   UNL     1      -0.723  11.041  20.952  0.00  0.00    +0.000 N 
ATOM      6  N   UNL     1      -0.032  10.767  22.098  0.00  0.00    +0.000 NA
ATOM      7  C   UNL     1       0.840   9.813  21.767  0.00  0.00    +0.000 A 
ATOM      8  C   UNL     1       1.734   9.260  22.816  0.00  0.00    +0.000 C 
ATOM      9  C   UNL     1       0.751   9.458  20.392  0.00  0.00    +0.000 A 
ATOM     10  C   UNL     1      -0.272  10.248  19.887  0.00  0.00    +0.000 A 
ATOM     11  N   UNL     1      -0.811  10.360  18.630  0.00  0.00    +0.000 NA
ENDROOT
BRANCH   9  12
ATOM     12  C   UNL     1       1.547   8.517  19.607  0.00  0.00    +0.000 A 
ATOM     13  C   UNL     1       2.032   8.850  18.335  0.00  0.00    +0.000 A 
ATOM     14  C   UNL     1       2.843   7.959  17.622  0.00  0.00    +0.000 A 
ATOM     15  C   UNL     1       3.139   6.709  18.159  0.00  0.00    +0.000 A 
ATOM     16 CL   UNL     1       4.144   5.615  17.294  0.00  0.00    +0.000 Cl
ATOM     17  C   UNL     1       2.638   6.345  19.402  0.00  0.00    +0.000 A 
ATOM     18  C   UNL     1       1.864   7.253  20.127  0.00  0.00    +0.000 A 
ENDBRANCH   9  12
BRANCH   4  19
ATOM     19  N   UNL     1      -2.158  12.791  21.859  0.00  0.00    +0.000 N 
ATOM     20  C   UNL     1      -1.491  14.092  22.034  0.00  0.00    +0.000 C 
ATOM     21  C   UNL     1      -1.261  14.344  23.518  0.00  0.00    +0.000 C 
ATOM     22  C   UNL     1      -2.579  14.292  24.298  0.00  0.00    +0.000 C 
ATOM     23  C   UNL     1      -3.314  12.971  24.006  0.00  0.00    +0.000 C 
ATOM     24  C   UNL     1      -3.474  12.713  22.503  0.00  0.00    +0.000 C 
BRANCH  22  25
ATOM     25  C   UNL     1      -3.486  15.481  23.986  0.00  0.00    +0.000 C 
ATOM     26  O   UNL     1      -3.108  16.442  23.313  0.00  0.00    +0.000 OA
ATOM     27  N   UNL     1      -4.759  15.405  24.500  0.00  0.00    +0.000 N 
ATOM     28  H   UNL     1      -5.107  14.503  24.797  0.00  0.00    +0.000 HD
BRANCH  27  29
ATOM     29  C   UNL     1      -5.715  16.463  24.230  0.00  0.00    +0.000 C 
BRANCH  29  30
ATOM     30  C   UNL     1      -6.886  15.986  23.372  0.00  0.00    +0.000 C 
BRANCH  30  31
ATOM     31  C   UNL     1      -7.009  14.453  23.272  0.00  0.00    +0.000 C 
ATOM     32  C   UNL     1      -7.912  13.865  24.358  0.00  0.00    +0.000 C 
ATOM     33  C   UNL     1      -7.540  14.061  21.892  0.00  0.00    +0.000 C 
ENDBRANCH  30  31
ENDBRANCH  29  30
ENDBRANCH  27  29
ENDBRANCH  22  25
ENDBRANCH   4  19
TORSDOF 6
ENDMDL
MODEL 6
REMARK VINA RESULT:      -7.6      0.858      1.630
REMARK  Name = 
REMARK  10 active torsions:
REMARK  status: ('A' for Active; 'I' for Inactive)
REMARK    1  A    between atoms: C_1  and  C_2
REMARK    2  A    between atoms: C_4  and  N_5
REMARK    3  A    between atoms: C_8  and  C_9
REMARK    4  A    between atoms: N_11  and  C_12
REMARK    5  A    between atoms: C_12  and  C_13
REMARK    6  A    between atoms: C_13  and  C_14
REMARK    7  A    between atoms: C_14  and  C_15
REMARK    8  A    between atoms: C_14  and  C_16
REMARK    9  A    between atoms: C_21  and  C_22
REMARK   10  A    between atoms: C_23  and  C_24
REMARK                            x       y       z     vdW  Elec       q    Type
REMARK                         _______ _______ _______ _____ _____    ______ ____
ROOT
ATOM      1  C   UNL     1       2.080   3.643  21.610  0.00  0.00    +0.000 C 
ATOM      2  C   UNL     1       2.416   4.671  20.554  0.00  0.00    +0.000 A 
ATOM      3  C   UNL     1       3.333   4.237  19.463  0.00  0.00    +0.000 A 
ATOM      4  C   UNL     1       3.712   5.174  18.574  0.00  0.00    +0.000 A 
ATOM      5  N   UNL     1       3.146   6.478  18.693  0.00  0.00    +0.000 N 
ATOM      6  N   UNL     1       3.350   7.556  17.880  0.00  0.00    +0.000 NA
ATOM      7  C   UNL     1       2.594   8.531  18.388  0.00  0.00    +0.000 A 
ATOM      8  C   UNL     1       2.563   9.849  17.704  0.00  0.00    +0.000 C 
ATOM      9  C   UNL     1       1.897   8.116  19.557  0.00  0.00    +0.000 A 
ATOM     10  C   UNL     1       2.252   6.786  19.729  0.00  0.00    +0.000 A 
ATOM     11  N   UNL     1       1.908   5.858  20.680  0.00  0.00    +0.000 NA
ENDROOT
BRANCH   9  12
ATOM     12  C   UNL     1       1.021   8.870  20.452  0.00  0.00    +0.000 A 
ATOM     13  C   UNL     1       1.102   8.734  21.844  0.00  0.00    +0.000 A 
ATOM     14  C   UNL     1       0.296   9.508  22.687  0.00  0.00    +0.000 A 
ATOM     15  C   UNL     1      -0.629  10.395  22.142  0.00  0.00    +0.000 A 
ATOM     16 CL   UNL     1      -1.612  11.357  23.171  0.00  0.00    +0.000 Cl
ATOM     17  C   UNL     1      -0.750  10.518  20.764  0.00  0.00    +0.000 A 
ATOM     18  C   UNL     1       0.084   9.774  19.928  0.00  0.00    +0.000 A 
ENDBRANCH   9  12
BRANCH   4  19
ATOM     19  N   UNL     1       4.649   4.934  17.552  0.00  0.00    +0.000 N 
ATOM     20  C   UNL     1       4.376   3.867  16.576  0.00  0.00    +0.000 C 
ATOM     21  C   UNL     1       5.675   3.144  16.243  0.00  0.00    +0.000 C 
ATOM     22  C   UNL     1       6.729   4.120  15.711  0.00  0.00    +0.000 C 
ATOM     23  C   UNL     1       6.911   5.290  16.695  0.00  0.00    +0.000 C 
ATOM     24  C   UNL     1       5.579   5.956  17.061  0.00  0.00    +0.000 C 
BRANCH  22  25
ATOM     25  C   UNL     1       6.380   4.649  14.320  0.00  0.00    +0.000 C 
ATOM     26  O   UNL     1       6.904   5.659  13.845  0.00  0.00    +0.000 OA
ATOM     27  N   UNL     1       5.444   3.919  13.628  0.00  0.00    +0.000 N 
ATOM     28  H   UNL     1       5.252   2.971  13.926  0.00  0.00    +0.000 HD
BRANCH  27  29
ATOM     29  C   UNL     1       5.068   4.310  12.282  0.00  0.00    +0.000 C 
BRANCH  29  30
ATOM     30  C   UNL     1       4.651   3.119  11.422  0.00  0.00    +0.000 C 
BRANCH  30  31
ATOM     31  C   UNL     1       3.245   3.249  10.806  0.00  0.00    +0.000 C 
ATOM     32  C   UNL     1       3.167   4.348   9.746  0.00  0.00    +0.000 C 
ATOM     33  C   UNL     1       2.816   1.913  10.196  0.00  0.00    +0.000 C 
ENDBRANCH  30  31
ENDBRANCH  29  30
ENDBRANCH  27  29
ENDBRANCH  22  25
ENDBRANCH   4  19
TORSDOF 6
ENDMDL
MODEL 7
REMARK VINA RESULT:      -7.2      7.657      9.920
REMARK  Name = 
REMARK  10 active torsions:
REMARK  status: ('A' for Active; 'I' for Inactive)
REMARK    1  A    between atoms: C_1  and  C_2
REMARK    2  A    between atoms: C_4  and  N_5
REMARK    3  A    between atoms: C_8  and  C_9
REMARK    4  A    between atoms: N_11  and  C_12
REMARK    5  A    between atoms: C_12  and  C_13
REMARK    6  A    between atoms: C_13  and  C_14
REMARK    7  A    between atoms: C_14  and  C_15
REMARK    8  A    between atoms: C_14  and  C_16
REMARK    9  A    between atoms: C_21  and  C_22
REMARK   10  A    between atoms: C_23  and  C_24
REMARK                            x       y       z     vdW  Elec       q    Type
REMARK                         _______ _______ _______ _____ _____    ______ ____
ROOT
ATOM      1  C   UNL     1      -0.249  17.801  18.352  0.00  0.00    +0.000 C 
ATOM      2  C   UNL     1       0.512  16.520  18.609  0.00  0.00    +0.000 A 
ATOM      3  C   UNL     1       1.984  16.640  18.802  0.00  0.00    +0.000 A 
ATOM      4  C   UNL     1       2.679  15.495  18.934  0.00  0.00    +0.000 A 
ATOM      5  N   UNL     1       1.950  14.269  18.964  0.00  0.00    +0.000 N 
ATOM      6  N   UNL     1       2.441  13.007  19.138  0.00  0.00    +0.000 NA
ATOM      7  C   UNL     1       1.376  12.204  19.109  0.00  0.00    +0.000 A 
ATOM      8  C   UNL     1       1.568  10.745  19.307  0.00  0.00    +0.000 C 
ATOM      9  C   UNL     1       0.167  12.924  18.895  0.00  0.00    +0.000 A 
ATOM     10  C   UNL     1       0.554  14.254  18.821  0.00  0.00    +0.000 A 
ATOM     11  N   UNL     1      -0.159  15.409  18.620  0.00  0.00    +0.000 NA
ENDROOT
BRANCH   9  12
ATOM     12  C   UNL     1      -1.203  12.442  18.737  0.00  0.00    +0.000 A 
ATOM     13  C   UNL     1      -2.164  12.619  19.742  0.00  0.00    +0.000 A 
ATOM     14  C   UNL     1      -3.486  12.204  19.549  0.00  0.00    +0.000 A 
ATOM     15  C   UNL     1      -3.849  11.567  18.364  0.00  0.00    +0.000 A 
ATOM     16 CL   UNL     1      -5.474  11.066  18.116  0.00  0.00    +0.000 Cl
ATOM     17  C   UNL     1      -2.903  11.349  17.371  0.00  0.00    +0.000 A 
ATOM     18  C   UNL     1      -1.595  11.802  17.551  0.00  0.00    +0.000 A 
ENDBRANCH   9  12
BRANCH   4  19
ATOM     19  N   UNL     1       4.082  15.450  19.024  0.00  0.00    +0.000 N 
ATOM     20  C   UNL     1       4.714  15.610  20.344  0.00  0.00    +0.000 C 
ATOM     21  C   UNL     1       5.983  16.439  20.197  0.00  0.00    +0.000 C 
ATOM     22  C   UNL     1       6.951  15.796  19.198  0.00  0.00    +0.000 C 
ATOM     23  C   UNL     1       6.233  15.530  17.862  0.00  0.00    +0.000 C 
ATOM     24  C   UNL     1       4.926  14.749  18.049  0.00  0.00    +0.000 C 
BRANCH  22  25
ATOM     25  C   UNL     1       7.563  14.503  19.734  0.00  0.00    +0.000 C 
ATOM     26  O   UNL     1       7.409  14.131  20.900  0.00  0.00    +0.000 OA
ATOM     27  N   UNL     1       8.296  13.775  18.827  0.00  0.00    +0.000 N 
ATOM     28  H   UNL     1       8.168  13.962  17.841  0.00  0.00    +0.000 HD
BRANCH  27  29
ATOM     29  C   UNL     1       8.888  12.511  19.221  0.00  0.00    +0.000 C 
BRANCH  29  30
ATOM     30  C   UNL     1       9.480  11.749  18.036  0.00  0.00    +0.000 C 
BRANCH  30  31
ATOM     31  C   UNL     1      11.021  11.722  18.012  0.00  0.00    +0.000 C 
ATOM     32  C   UNL     1      11.616  12.874  17.199  0.00  0.00    +0.000 C 
ATOM     33  C   UNL     1      11.567  11.766  19.440  0.00  0.00    +0.000 C 
ENDBRANCH  30  31
ENDBRANCH  29  30
ENDBRANCH  27  29
ENDBRANCH  22  25
ENDBRANCH   4  19
TORSDOF 6
ENDMDL
MODEL 8
REMARK VINA RESULT:      -7.0      6.142     12.402
REMARK  Name = 
REMARK  10 active torsions:
REMARK  status: ('A' for Active; 'I' for Inactive)
REMARK    1  A    between atoms: C_1  and  C_2
REMARK    2  A    between atoms: C_4  and  N_5
REMARK    3  A    between atoms: C_8  and  C_9
REMARK    4  A    between atoms: N_11  and  C_12
REMARK    5  A    between atoms: C_12  and  C_13
REMARK    6  A    between atoms: C_13  and  C_14
REMARK    7  A    between atoms: C_14  and  C_15
REMARK    8  A    between atoms: C_14  and  C_16
REMARK    9  A    between atoms: C_21  and  C_22
REMARK   10  A    between atoms: C_23  and  C_24
REMARK                            x       y       z     vdW  Elec       q    Type
REMARK                         _______ _______ _______ _____ _____    ______ ____
ROOT
ATOM      1  C   UNL     1      -2.284  10.881  16.500  0.00  0.00    +0.000 C 
ATOM      2  C   UNL     1      -1.783  10.869  17.927  0.00  0.00    +0.000 A 
ATOM      3  C   UNL     1      -2.464  11.783  18.885  0.00  0.00    +0.000 A 
ATOM      4  C   UNL     1      -1.961  11.848  20.132  0.00  0.00    +0.000 A 
ATOM      5  N   UNL     1      -0.877  10.981  20.462  0.00  0.00    +0.000 N 
ATOM      6  N   UNL     1      -0.251  10.845  21.668  0.00  0.00    +0.000 NA
ATOM      7  C   UNL     1       0.679   9.907  21.481  0.00  0.00    +0.000 A 
ATOM      8  C   UNL     1       1.526   9.495  22.629  0.00  0.00    +0.000 C 
ATOM      9  C   UNL     1       0.694   9.425  20.143  0.00  0.00    +0.000 A 
ATOM     10  C   UNL     1      -0.326  10.116  19.504  0.00  0.00    +0.000 A 
ATOM     11  N   UNL     1      -0.787  10.088  18.213  0.00  0.00    +0.000 NA
ENDROOT
BRANCH   9  12
ATOM     12  C   UNL     1       1.577   8.455  19.499  0.00  0.00    +0.000 A 
ATOM     13  C   UNL     1       1.869   7.220  20.093  0.00  0.00    +0.000 A 
ATOM     14  C   UNL     1       2.669   6.279  19.435  0.00  0.00    +0.000 A 
ATOM     15  C   UNL     1       3.220   6.584  18.193  0.00  0.00    +0.000 A 
ATOM     16 CL   UNL     1       4.193   5.429  17.373  0.00  0.00    +0.000 Cl
ATOM     17  C   UNL     1       2.973   7.817  17.602  0.00  0.00    +0.000 A 
ATOM     18  C   UNL     1       2.141   8.736  18.244  0.00  0.00    +0.000 A 
ENDBRANCH   9  12
BRANCH   4  19
ATOM     19  N   UNL     1      -2.438  12.737  21.112  0.00  0.00    +0.000 N 
ATOM     20  C   UNL     1      -1.783  14.047  21.260  0.00  0.00    +0.000 C 
ATOM     21  C   UNL     1      -1.704  14.405  22.738  0.00  0.00    +0.000 C 
ATOM     22  C   UNL     1      -3.095  14.411  23.380  0.00  0.00    +0.000 C 
ATOM     23  C   UNL     1      -3.807  13.073  23.110  0.00  0.00    +0.000 C 
ATOM     24  C   UNL     1      -3.814  12.707  21.621  0.00  0.00    +0.000 C 
BRANCH  22  25
ATOM     25  C   UNL     1      -3.955  15.575  22.891  0.00  0.00    +0.000 C 
ATOM     26  O   UNL     1      -3.487  16.693  22.662  0.00  0.00    +0.000 OA
ATOM     27  N   UNL     1      -5.289  15.292  22.715  0.00  0.00    +0.000 N 
ATOM     28  H   UNL     1      -5.572  14.323  22.645  0.00  0.00    +0.000 HD
BRANCH  27  29
ATOM     29  C   UNL     1      -6.188  16.315  22.216  0.00  0.00    +0.000 C 
BRANCH  29  30
ATOM     30  C   UNL     1      -6.894  15.894  20.928  0.00  0.00    +0.000 C 
BRANCH  30  31
ATOM     31  C   UNL     1      -5.992  15.923  19.679  0.00  0.00    +0.000 C 
ATOM     32  C   UNL     1      -6.777  15.707  18.383  0.00  0.00    +0.000 C 
ATOM     33  C   UNL     1      -5.239  17.252  19.608  0.00  0.00    +0.000 C 
ENDBRANCH  30  31
ENDBRANCH  29  30
ENDBRANCH  27  29
ENDBRANCH  22  25
ENDBRANCH   4  19
TORSDOF 6
ENDMDL
MODEL 9
REMARK VINA RESULT:      -7.0      6.223     12.402
REMARK  Name = 
REMARK  10 active torsions:
REMARK  status: ('A' for Active; 'I' for Inactive)
REMARK    1  A    between atoms: C_1  and  C_2
REMARK    2  A    between atoms: C_4  and  N_5
REMARK    3  A    between atoms: C_8  and  C_9
REMARK    4  A    between atoms: N_11  and  C_12
REMARK    5  A    between atoms: C_12  and  C_13
REMARK    6  A    between atoms: C_13  and  C_14
REMARK    7  A    between atoms: C_14  and  C_15
REMARK    8  A    between atoms: C_14  and  C_16
REMARK    9  A    between atoms: C_21  and  C_22
REMARK   10  A    between atoms: C_23  and  C_24
REMARK                            x       y       z     vdW  Elec       q    Type
REMARK                         _______ _______ _______ _____ _____    ______ ____
ROOT
ATOM      1  C   UNL     1      -2.325  10.982  16.433  0.00  0.00    +0.000 C 
ATOM      2  C   UNL     1      -1.826  10.945  17.860  0.00  0.00    +0.000 A 
ATOM      3  C   UNL     1      -2.510  11.840  18.834  0.00  0.00    +0.000 A 
ATOM      4  C   UNL     1      -2.009  11.884  20.082  0.00  0.00    +0.000 A 
ATOM      5  N   UNL     1      -0.922  11.014  20.398  0.00  0.00    +0.000 N 
ATOM      6  N   UNL     1      -0.298  10.858  21.602  0.00  0.00    +0.000 NA
ATOM      7  C   UNL     1       0.635   9.926  21.399  0.00  0.00    +0.000 A 
ATOM      8  C   UNL     1       1.482   9.494  22.541  0.00  0.00    +0.000 C 
ATOM      9  C   UNL     1       0.652   9.467  20.053  0.00  0.00    +0.000 A 
ATOM     10  C   UNL     1      -0.368  10.167  19.426  0.00  0.00    +0.000 A 
ATOM     11  N   UNL     1      -0.828  10.161  18.133  0.00  0.00    +0.000 NA
ENDROOT
BRANCH   9  12
ATOM     12  C   UNL     1       1.539   8.511  19.392  0.00  0.00    +0.000 A 
ATOM     13  C   UNL     1       2.113   8.785  18.143  0.00  0.00    +0.000 A 
ATOM     14  C   UNL     1       3.006   7.883  17.553  0.00  0.00    +0.000 A 
ATOM     15  C   UNL     1       3.299   6.679  18.189  0.00  0.00    +0.000 A 
ATOM     16 CL   UNL     1       4.404   5.573  17.476  0.00  0.00    +0.000 Cl
ATOM     17  C   UNL     1       2.712   6.372  19.410  0.00  0.00    +0.000 A 
ATOM     18  C   UNL     1       1.854   7.293  20.014  0.00  0.00    +0.000 A 
ENDBRANCH   9  12
BRANCH   4  19
ATOM     19  N   UNL     1      -2.489  12.754  21.077  0.00  0.00    +0.000 N 
ATOM     20  C   UNL     1      -1.793  14.033  21.296  0.00  0.00    +0.000 C 
ATOM     21  C   UNL     1      -1.754  14.336  22.788  0.00  0.00    +0.000 C 
ATOM     22  C   UNL     1      -3.166  14.369  23.382  0.00  0.00    +0.000 C 
ATOM     23  C   UNL     1      -3.915  13.068  23.039  0.00  0.00    +0.000 C 
ATOM     24  C   UNL     1      -3.882  12.756  21.538  0.00  0.00    +0.000 C 
BRANCH  22  25
ATOM     25  C   UNL     1      -3.967  15.580  22.907  0.00  0.00    +0.000 C 
ATOM     26  O   UNL     1      -5.169  15.515  22.638  0.00  0.00    +0.000 OA
ATOM     27  N   UNL     1      -3.259  16.754  22.806  0.00  0.00    +0.000 N 
ATOM     28  H   UNL     1      -2.374  16.828  23.289  0.00  0.00    +0.000 HD
BRANCH  27  29
ATOM     29  C   UNL     1      -3.932  17.975  22.402  0.00  0.00    +0.000 C 
BRANCH  29  30
ATOM     30  C   UNL     1      -3.309  18.599  21.154  0.00  0.00    +0.000 C 
BRANCH  30  31
ATOM     31  C   UNL     1      -3.388  17.709  19.899  0.00  0.00    +0.000 C 
ATOM     32  C   UNL     1      -4.801  17.640  19.316  0.00  0.00    +0.000 C 
ATOM     33  C   UNL     1      -2.417  18.220  18.834  0.00  0.00    +0.000 C 
ENDBRANCH  30  31
ENDBRANCH  29  30
ENDBRANCH  27  29
ENDBRANCH  22  25
ENDBRANCH   4  19
TORSDOF 6
ENDMDL
