MODEL 1
REMARK VINA RESULT:      -7.3      0.000      0.000
REMARK  Name = 
REMARK  7 active torsions:
REMARK  status: ('A' for Active; 'I' for Inactive)
REMARK    1  A    between atoms: C_1  and  N_2
REMARK    2  A    between atoms: N_2  and  C_3
REMARK    3  A    between atoms: N_2  and  C_15
REMARK    4  A    between atoms: C_3  and  C_4
REMARK    5  A    between atoms: C_5  and  C_6
REMARK    6  A    between atoms: C_11  and  N_12
REMARK    7  A    between atoms: C_15  and  C_16
REMARK                            x       y       z     vdW  Elec       q    Type
REMARK                         _______ _______ _______ _____ _____    ______ ____
ROOT
ATOM      1  C   UNL     1       5.451   4.479  18.838  0.00  0.00    +0.000 C 
ATOM      2  C   UNL     1       4.589   3.453  18.797  0.00  0.00    +0.000 C 
ENDROOT
BRANCH   2   3
ATOM      3  C   UNL     1       3.398   3.337  19.641  0.00  0.00    +0.000 A 
ATOM      4  C   UNL     1       3.485   2.688  20.878  0.00  0.00    +0.000 A 
ATOM      5  C   UNL     1       2.341   2.497  21.661  0.00  0.00    +0.000 A 
ATOM      6  C   UNL     1       1.097   2.967  21.231  0.00  0.00    +0.000 A 
ATOM      7  C   UNL     1       0.992   3.646  20.017  0.00  0.00    +0.000 A 
ATOM      8  C   UNL     1       2.141   3.819  19.238  0.00  0.00    +0.000 A 
BRANCH   8   9
ATOM      9  N   UNL     1       1.987   4.498  17.963  0.00  0.00    +0.000 N 
ATOM     10  O   UNL     1       2.197   5.720  17.937  0.00  0.00    +0.000 OA
ATOM     11  O   UNL     1       1.700   3.796  16.984  0.00  0.00    +0.000 OA
ENDBRANCH   8   9
ENDBRANCH   2   3
BRANCH   1  12
ATOM     12  C   UNL     1       6.553   4.611  17.819  0.00  0.00    +0.000 C 
BRANCH  12  14
ATOM     13  C   UNL     1       5.596   6.712  17.246  0.00  0.00    +0.000 C 
ATOM     14  N   UNL     1       6.235   5.505  16.699  0.00  0.00    +0.000 NA
BRANCH  14  15
ATOM     15  C   UNL     1       5.350   4.842  15.717  0.00  0.00    +0.000 C 
BRANCH  15  16
ATOM     16  C   UNL     1       6.049   4.531  14.409  0.00  0.00    +0.000 A 
ATOM     17  C   UNL     1       7.213   5.225  14.042  0.00  0.00    +0.000 A 
ATOM     18  C   UNL     1       7.788   5.026  12.786  0.00  0.00    +0.000 A 
ATOM     19  C   UNL     1       7.208   4.133  11.887  0.00  0.00    +0.000 A 
ATOM     20  C   UNL     1       6.077   3.407  12.258  0.00  0.00    +0.000 A 
ATOM     21  C   UNL     1       5.506   3.597  13.518  0.00  0.00    +0.000 A 
ENDBRANCH  15  16
ENDBRANCH  14  15
ENDBRANCH  12  14
ENDBRANCH   1  12
TORSDOF 6
ENDMDL
MODEL 2
REMARK VINA RESULT:      -7.1      1.965      2.409
REMARK  Name = 
REMARK  7 active torsions:
REMARK  status: ('A' for Active; 'I' for Inactive)
REMARK    1  A    between atoms: C_1  and  N_2
REMARK    2  A    between atoms: N_2  and  C_3
REMARK    3  A    between atoms: N_2  and  C_15
REMARK    4  A    between atoms: C_3  and  C_4
REMARK    5  A    between atoms: C_5  and  C_6
REMARK    6  A    between atoms: C_11  and  N_12
REMARK    7  A    between atoms: C_15  and  C_16
REMARK                            x       y       z     vdW  Elec       q    Type
REMARK                         _______ _______ _______ _____ _____    ______ ____
ROOT
ATOM      1  C   UNL     1       5.433   4.646  18.281  0.00  0.00    +0.000 C 
ATOM      2  C   UNL     1       4.919   4.767  19.512  0.00  0.00    +0.000 C 
ENDROOT
BRANCH   2   3
ATOM      3  C   UNL     1       3.566   4.352  19.890  0.00  0.00    +0.000 A 
ATOM      4  C   UNL     1       2.556   5.311  20.015  0.00  0.00    +0.000 A 
ATOM      5  C   UNL     1       1.278   4.944  20.453  0.00  0.00    +0.000 A 
ATOM      6  C   UNL     1       0.984   3.610  20.754  0.00  0.00    +0.000 A 
ATOM      7  C   UNL     1       1.966   2.632  20.604  0.00  0.00    +0.000 A 
ATOM      8  C   UNL     1       3.243   3.014  20.178  0.00  0.00    +0.000 A 
BRANCH   8   9
ATOM      9  N   UNL     1       4.251   1.973  20.069  0.00  0.00    +0.000 N 
ATOM     10  O   UNL     1       5.015   1.815  21.032  0.00  0.00    +0.000 OA
ATOM     11  O   UNL     1       4.241   1.290  19.036  0.00  0.00    +0.000 OA
ENDBRANCH   8   9
ENDBRANCH   2   3
BRANCH   1  12
ATOM     12  C   UNL     1       6.888   4.933  18.013  0.00  0.00    +0.000 C 
BRANCH  12  14
ATOM     13  C   UNL     1       7.454   7.093  17.196  0.00  0.00    +0.000 C 
ATOM     14  N   UNL     1       7.136   5.714  16.796  0.00  0.00    +0.000 NA
BRANCH  14  15
ATOM     15  C   UNL     1       5.966   5.685  15.892  0.00  0.00    +0.000 C 
BRANCH  15  16
ATOM     16  C   UNL     1       6.281   5.087  14.537  0.00  0.00    +0.000 A 
ATOM     17  C   UNL     1       5.470   4.075  14.000  0.00  0.00    +0.000 A 
ATOM     18  C   UNL     1       5.827   3.439  12.810  0.00  0.00    +0.000 A 
ATOM     19  C   UNL     1       6.995   3.809  12.146  0.00  0.00    +0.000 A 
ATOM     20  C   UNL     1       7.785   4.842  12.648  0.00  0.00    +0.000 A 
ATOM     21  C   UNL     1       7.424   5.486  13.833  0.00  0.00    +0.000 A 
ENDBRANCH  15  16
ENDBRANCH  14  15
ENDBRANCH  12  14
ENDBRANCH   1  12
TORSDOF 6
ENDMDL
MODEL 3
REMARK VINA RESULT:      -7.1      0.304      1.096
REMARK  Name = 
REMARK  7 active torsions:
REMARK  status: ('A' for Active; 'I' for Inactive)
REMARK    1  A    between atoms: C_1  and  N_2
REMARK    2  A    between atoms: N_2  and  C_3
REMARK    3  A    between atoms: N_2  and  C_15
REMARK    4  A    between atoms: C_3  and  C_4
REMARK    5  A    between atoms: C_5  and  C_6
REMARK    6  A    between atoms: C_11  and  N_12
REMARK    7  A    between atoms: C_15  and  C_16
REMARK                            x       y       z     vdW  Elec       q    Type
REMARK                         _______ _______ _______ _____ _____    ______ ____
ROOT
ATOM      1  C   UNL     1       5.239   4.777  18.961  0.00  0.00    +0.000 C 
ATOM      2  C   UNL     1       4.585   3.609  19.026  0.00  0.00    +0.000 C 
ENDROOT
BRANCH   2   3
ATOM      3  C   UNL     1       3.321   3.406  19.737  0.00  0.00    +0.000 A 
ATOM      4  C   UNL     1       3.328   2.840  21.016  0.00  0.00    +0.000 A 
ATOM      5  C   UNL     1       2.125   2.564  21.677  0.00  0.00    +0.000 A 
ATOM      6  C   UNL     1       0.899   2.866  21.079  0.00  0.00    +0.000 A 
ATOM      7  C   UNL     1       0.868   3.461  19.818  0.00  0.00    +0.000 A 
ATOM      8  C   UNL     1       2.077   3.720  19.163  0.00  0.00    +0.000 A 
BRANCH   8   9
ATOM      9  N   UNL     1       2.005   4.306  17.836  0.00  0.00    +0.000 N 
ATOM     10  O   UNL     1       1.994   5.544  17.757  0.00  0.00    +0.000 OA
ATOM     11  O   UNL     1       2.005   3.524  16.876  0.00  0.00    +0.000 OA
ENDBRANCH   8   9
ENDBRANCH   2   3
BRANCH   1  12
ATOM     12  C   UNL     1       6.439   4.948  18.066  0.00  0.00    +0.000 C 
BRANCH  12  14
ATOM     13  C   UNL     1       5.143   6.521  16.841  0.00  0.00    +0.000 C 
ATOM     14  N   UNL     1       6.122   5.431  16.716  0.00  0.00    +0.000 NA
BRANCH  14  15
ATOM     15  C   UNL     1       5.592   4.342  15.868  0.00  0.00    +0.000 C 
BRANCH  15  16
ATOM     16  C   UNL     1       6.117   4.392  14.448  0.00  0.00    +0.000 A 
ATOM     17  C   UNL     1       5.536   3.599  13.445  0.00  0.00    +0.000 A 
ATOM     18  C   UNL     1       6.095   3.552  12.167  0.00  0.00    +0.000 A 
ATOM     19  C   UNL     1       7.236   4.296  11.878  0.00  0.00    +0.000 A 
ATOM     20  C   UNL     1       7.796   5.120  12.853  0.00  0.00    +0.000 A 
ATOM     21  C   UNL     1       7.233   5.176  14.130  0.00  0.00    +0.000 A 
ENDBRANCH  15  16
ENDBRANCH  14  15
ENDBRANCH  12  14
ENDBRANCH   1  12
TORSDOF 6
ENDMDL
MODEL 4
REMARK VINA RESULT:      -7.1      2.004      2.293
REMARK  Name = 
REMARK  7 active torsions:
REMARK  status: ('A' for Active; 'I' for Inactive)
REMARK    1  A    between atoms: C_1  and  N_2
REMARK    2  A    between atoms: N_2  and  C_3
REMARK    3  A    between atoms: N_2  and  C_15
REMARK    4  A    between atoms: C_3  and  C_4
REMARK    5  A    between atoms: C_5  and  C_6
REMARK    6  A    between atoms: C_11  and  N_12
REMARK    7  A    between atoms: C_15  and  C_16
REMARK                            x       y       z     vdW  Elec       q    Type
REMARK                         _______ _______ _______ _____ _____    ______ ____
ROOT
ATOM      1  C   UNL     1       6.109   5.514  18.913  0.00  0.00    +0.000 C 
ATOM      2  C   UNL     1       5.379   4.390  18.953  0.00  0.00    +0.000 C 
ENDROOT
BRANCH   2   3
ATOM      3  C   UNL     1       4.024   4.302  19.502  0.00  0.00    +0.000 A 
ATOM      4  C   UNL     1       3.293   5.473  19.736  0.00  0.00    +0.000 A 
ATOM      5  C   UNL     1       2.030   5.412  20.336  0.00  0.00    +0.000 A 
ATOM      6  C   UNL     1       1.469   4.183  20.692  0.00  0.00    +0.000 A 
ATOM      7  C   UNL     1       2.164   3.001  20.438  0.00  0.00    +0.000 A 
ATOM      8  C   UNL     1       3.432   3.076  19.850  0.00  0.00    +0.000 A 
BRANCH   8   9
ATOM      9  N   UNL     1       4.143   1.827  19.635  0.00  0.00    +0.000 N 
ATOM     10  O   UNL     1       5.021   1.521  20.454  0.00  0.00    +0.000 OA
ATOM     11  O   UNL     1       3.785   1.138  18.670  0.00  0.00    +0.000 OA
ENDBRANCH   8   9
ENDBRANCH   2   3
BRANCH   1  12
ATOM     12  C   UNL     1       7.422   5.563  18.174  0.00  0.00    +0.000 C 
BRANCH  12  14
ATOM     13  C   UNL     1       7.588   7.804  17.399  0.00  0.00    +0.000 C 
ATOM     14  N   UNL     1       7.408   6.408  16.975  0.00  0.00    +0.000 NA
BRANCH  14  15
ATOM     15  C   UNL     1       6.148   6.246  16.218  0.00  0.00    +0.000 C 
BRANCH  15  16
ATOM     16  C   UNL     1       6.289   5.321  15.028  0.00  0.00    +0.000 A 
ATOM     17  C   UNL     1       7.390   5.435  14.164  0.00  0.00    +0.000 A 
ATOM     18  C   UNL     1       7.459   4.667  13.001  0.00  0.00    +0.000 A 
ATOM     19  C   UNL     1       6.433   3.777  12.691  0.00  0.00    +0.000 A 
ATOM     20  C   UNL     1       5.357   3.624  13.564  0.00  0.00    +0.000 A 
ATOM     21  C   UNL     1       5.290   4.385  14.733  0.00  0.00    +0.000 A 
ENDBRANCH  15  16
ENDBRANCH  14  15
ENDBRANCH  12  14
ENDBRANCH   1  12
TORSDOF 6
ENDMDL
MODEL 5
REMARK VINA RESULT:      -7.0      1.850      2.381
REMARK  Name = 
REMARK  7 active torsions:
REMARK  status: ('A' for Active; 'I' for Inactive)
REMARK    1  A    between atoms: C_1  and  N_2
REMARK    2  A    between atoms: N_2  and  C_3
REMARK    3  A    between atoms: N_2  and  C_15
REMARK    4  A    between atoms: C_3  and  C_4
REMARK    5  A    between atoms: C_5  and  C_6
REMARK    6  A    between atoms: C_11  and  N_12
REMARK    7  A    between atoms: C_15  and  C_16
REMARK                            x       y       z     vdW  Elec       q    Type
REMARK                         _______ _______ _______ _____ _____    ______ ____
ROOT
ATOM      1  C   UNL     1       4.879   5.821  18.234  0.00  0.00    +0.000 C 
ATOM      2  C   UNL     1       4.674   5.112  19.353  0.00  0.00    +0.000 C 
ENDROOT
BRANCH   2   3
ATOM      3  C   UNL     1       3.380   4.556  19.755  0.00  0.00    +0.000 A 
ATOM      4  C   UNL     1       2.345   5.415  20.141  0.00  0.00    +0.000 A 
ATOM      5  C   UNL     1       1.130   4.899  20.605  0.00  0.00    +0.000 A 
ATOM      6  C   UNL     1       0.922   3.518  20.672  0.00  0.00    +0.000 A 
ATOM      7  C   UNL     1       1.926   2.643  20.261  0.00  0.00    +0.000 A 
ATOM      8  C   UNL     1       3.142   3.172  19.811  0.00  0.00    +0.000 A 
BRANCH   8   9
ATOM      9  N   UNL     1       4.178   2.229  19.426  0.00  0.00    +0.000 N 
ATOM     10  O   UNL     1       4.136   1.773  18.274  0.00  0.00    +0.000 OA
ATOM     11  O   UNL     1       5.055   1.986  20.266  0.00  0.00    +0.000 OA
ENDBRANCH   8   9
ENDBRANCH   2   3
BRANCH   1  12
ATOM     12  C   UNL     1       6.270   6.208  17.802  0.00  0.00    +0.000 C 
BRANCH  12  14
ATOM     13  C   UNL     1       5.158   6.335  15.704  0.00  0.00    +0.000 C 
ATOM     14  N   UNL     1       6.474   6.207  16.349  0.00  0.00    +0.000 NA
BRANCH  14  15
ATOM     15  C   UNL     1       7.161   4.975  15.904  0.00  0.00    +0.000 C 
BRANCH  15  16
ATOM     16  C   UNL     1       6.916   4.659  14.443  0.00  0.00    +0.000 A 
ATOM     17  C   UNL     1       5.903   3.762  14.069  0.00  0.00    +0.000 A 
ATOM     18  C   UNL     1       5.756   3.376  12.735  0.00  0.00    +0.000 A 
ATOM     19  C   UNL     1       6.616   3.884  11.765  0.00  0.00    +0.000 A 
ATOM     20  C   UNL     1       7.598   4.808  12.118  0.00  0.00    +0.000 A 
ATOM     21  C   UNL     1       7.741   5.203  13.450  0.00  0.00    +0.000 A 
ENDBRANCH  15  16
ENDBRANCH  14  15
ENDBRANCH  12  14
ENDBRANCH   1  12
TORSDOF 6
ENDMDL
MODEL 6
REMARK VINA RESULT:      -7.0      1.471      1.966
REMARK  Name = 
REMARK  7 active torsions:
REMARK  status: ('A' for Active; 'I' for Inactive)
REMARK    1  A    between atoms: C_1  and  N_2
REMARK    2  A    between atoms: N_2  and  C_3
REMARK    3  A    between atoms: N_2  and  C_15
REMARK    4  A    between atoms: C_3  and  C_4
REMARK    5  A    between atoms: C_5  and  C_6
REMARK    6  A    between atoms: C_11  and  N_12
REMARK    7  A    between atoms: C_15  and  C_16
REMARK                            x       y       z     vdW  Elec       q    Type
REMARK                         _______ _______ _______ _____ _____    ______ ____
ROOT
ATOM      1  C   UNL     1       5.456   4.887  18.484  0.00  0.00    +0.000 C 
ATOM      2  C   UNL     1       4.850   3.889  19.143  0.00  0.00    +0.000 C 
ENDROOT
BRANCH   2   3
ATOM      3  C   UNL     1       3.438   3.892  19.534  0.00  0.00    +0.000 A 
ATOM      4  C   UNL     1       2.976   4.838  20.456  0.00  0.00    +0.000 A 
ATOM      5  C   UNL     1       1.649   4.805  20.902  0.00  0.00    +0.000 A 
ATOM      6  C   UNL     1       0.760   3.841  20.419  0.00  0.00    +0.000 A 
ATOM      7  C   UNL     1       1.189   2.910  19.474  0.00  0.00    +0.000 A 
ATOM      8  C   UNL     1       2.521   2.945  19.046  0.00  0.00    +0.000 A 
BRANCH   8   9
ATOM      9  N   UNL     1       2.942   1.936  18.090  0.00  0.00    +0.000 N 
ATOM     10  O   UNL     1       2.553   2.061  16.919  0.00  0.00    +0.000 OA
ATOM     11  O   UNL     1       3.698   1.049  18.507  0.00  0.00    +0.000 OA
ENDBRANCH   8   9
ENDBRANCH   2   3
BRANCH   1  12
ATOM     12  C   UNL     1       6.862   4.733  17.964  0.00  0.00    +0.000 C 
BRANCH  12  14
ATOM     13  C   UNL     1       7.548   6.887  17.226  0.00  0.00    +0.000 C 
ATOM     14  N   UNL     1       7.159   5.542  16.776  0.00  0.00    +0.000 NA
BRANCH  14  15
ATOM     15  C   UNL     1       5.993   5.609  15.868  0.00  0.00    +0.000 C 
BRANCH  15  16
ATOM     16  C   UNL     1       6.278   5.024  14.500  0.00  0.00    +0.000 A 
ATOM     17  C   UNL     1       5.422   4.056  13.948  0.00  0.00    +0.000 A 
ATOM     18  C   UNL     1       5.748   3.428  12.745  0.00  0.00    +0.000 A 
ATOM     19  C   UNL     1       6.927   3.762  12.081  0.00  0.00    +0.000 A 
ATOM     20  C   UNL     1       7.761   4.752  12.598  0.00  0.00    +0.000 A 
ATOM     21  C   UNL     1       7.432   5.388  13.797  0.00  0.00    +0.000 A 
ENDBRANCH  15  16
ENDBRANCH  14  15
ENDBRANCH  12  14
ENDBRANCH   1  12
TORSDOF 6
ENDMDL
MODEL 7
REMARK VINA RESULT:      -7.0      2.465      6.337
REMARK  Name = 
REMARK  7 active torsions:
REMARK  status: ('A' for Active; 'I' for Inactive)
REMARK    1  A    between atoms: C_1  and  N_2
REMARK    2  A    between atoms: N_2  and  C_3
REMARK    3  A    between atoms: N_2  and  C_15
REMARK    4  A    between atoms: C_3  and  C_4
REMARK    5  A    between atoms: C_5  and  C_6
REMARK    6  A    between atoms: C_11  and  N_12
REMARK    7  A    between atoms: C_15  and  C_16
REMARK                            x       y       z     vdW  Elec       q    Type
REMARK                         _______ _______ _______ _____ _____    ______ ____
ROOT
ATOM      1  C   UNL     1       3.772   6.119  18.318  0.00  0.00    +0.000 C 
ATOM      2  C   UNL     1       4.861   5.360  18.130  0.00  0.00    +0.000 C 
ENDROOT
BRANCH   2   3
ATOM      3  C   UNL     1       5.483   5.111  16.827  0.00  0.00    +0.000 A 
ATOM      4  C   UNL     1       4.870   4.237  15.923  0.00  0.00    +0.000 A 
ATOM      5  C   UNL     1       5.490   3.924  14.707  0.00  0.00    +0.000 A 
ATOM      6  C   UNL     1       6.721   4.494  14.368  0.00  0.00    +0.000 A 
ATOM      7  C   UNL     1       7.334   5.393  15.240  0.00  0.00    +0.000 A 
ATOM      8  C   UNL     1       6.710   5.687  16.457  0.00  0.00    +0.000 A 
BRANCH   8   9
ATOM      9  N   UNL     1       7.396   6.599  17.356  0.00  0.00    +0.000 N 
ATOM     10  O   UNL     1       7.393   7.803  17.060  0.00  0.00    +0.000 OA
ATOM     11  O   UNL     1       7.897   6.110  18.378  0.00  0.00    +0.000 OA
ENDBRANCH   8   9
ENDBRANCH   2   3
BRANCH   1  12
ATOM     12  C   UNL     1       3.298   6.470  19.704  0.00  0.00    +0.000 C 
BRANCH  12  14
ATOM     13  C   UNL     1       1.299   7.205  20.761  0.00  0.00    +0.000 C 
ATOM     14  N   UNL     1       1.898   6.119  19.971  0.00  0.00    +0.000 NA
BRANCH  14  15
ATOM     15  C   UNL     1       1.795   4.829  20.687  0.00  0.00    +0.000 C 
BRANCH  15  16
ATOM     16  C   UNL     1       2.289   3.657  19.864  0.00  0.00    +0.000 A 
ATOM     17  C   UNL     1       3.413   2.922  20.276  0.00  0.00    +0.000 A 
ATOM     18  C   UNL     1       3.941   1.921  19.459  0.00  0.00    +0.000 A 
ATOM     19  C   UNL     1       3.353   1.644  18.227  0.00  0.00    +0.000 A 
ATOM     20  C   UNL     1       2.211   2.338  17.828  0.00  0.00    +0.000 A 
ATOM     21  C   UNL     1       1.675   3.333  18.648  0.00  0.00    +0.000 A 
ENDBRANCH  15  16
ENDBRANCH  14  15
ENDBRANCH  12  14
ENDBRANCH   1  12
TORSDOF 6
ENDMDL
MODEL 8
REMARK VINA RESULT:      -7.0      1.728      2.355
REMARK  Name = 
REMARK  7 active torsions:
REMARK  status: ('A' for Active; 'I' for Inactive)
REMARK    1  A    between atoms: C_1  and  N_2
REMARK    2  A    between atoms: N_2  and  C_3
REMARK    3  A    between atoms: N_2  and  C_15
REMARK    4  A    between atoms: C_3  and  C_4
REMARK    5  A    between atoms: C_5  and  C_6
REMARK    6  A    between atoms: C_11  and  N_12
REMARK    7  A    between atoms: C_15  and  C_16
REMARK                            x       y       z     vdW  Elec       q    Type
REMARK                         _______ _______ _______ _____ _____    ______ ____
ROOT
ATOM      1  C   UNL     1       4.443   5.550  17.781  0.00  0.00    +0.000 C 
ATOM      2  C   UNL     1       4.323   5.094  19.036  0.00  0.00    +0.000 C 
ENDROOT
BRANCH   2   3
ATOM      3  C   UNL     1       3.124   4.443  19.569  0.00  0.00    +0.000 A 
ATOM      4  C   UNL     1       2.072   5.224  20.060  0.00  0.00    +0.000 A 
ATOM      5  C   UNL     1       0.953   4.620  20.647  0.00  0.00    +0.000 A 
ATOM      6  C   UNL     1       0.861   3.228  20.735  0.00  0.00    +0.000 A 
ATOM      7  C   UNL     1       1.882   2.428  20.223  0.00  0.00    +0.000 A 
ATOM      8  C   UNL     1       3.000   3.045  19.650  0.00  0.00    +0.000 A 
BRANCH   8   9
ATOM      9  N   UNL     1       4.061   2.182  19.160  0.00  0.00    +0.000 N 
ATOM     10  O   UNL     1       4.979   1.902  19.946  0.00  0.00    +0.000 OA
ATOM     11  O   UNL     1       3.946   1.752  18.005  0.00  0.00    +0.000 OA
ENDBRANCH   8   9
ENDBRANCH   2   3
BRANCH   1  12
ATOM     12  C   UNL     1       5.766   6.047  17.258  0.00  0.00    +0.000 C 
BRANCH  12  14
ATOM     13  C   UNL     1       7.593   4.666  17.897  0.00  0.00    +0.000 C 
ATOM     14  N   UNL     1       6.671   4.986  16.798  0.00  0.00    +0.000 NA
BRANCH  14  15
ATOM     15  C   UNL     1       7.416   5.403  15.590  0.00  0.00    +0.000 C 
BRANCH  15  16
ATOM     16  C   UNL     1       6.855   4.806  14.316  0.00  0.00    +0.000 A 
ATOM     17  C   UNL     1       5.629   4.122  14.330  0.00  0.00    +0.000 A 
ATOM     18  C   UNL     1       5.170   3.468  13.186  0.00  0.00    +0.000 A 
ATOM     19  C   UNL     1       5.930   3.492  12.018  0.00  0.00    +0.000 A 
ATOM     20  C   UNL     1       7.128   4.204  11.981  0.00  0.00    +0.000 A 
ATOM     21  C   UNL     1       7.583   4.867  13.122  0.00  0.00    +0.000 A 
ENDBRANCH  15  16
ENDBRANCH  14  15
ENDBRANCH  12  14
ENDBRANCH   1  12
TORSDOF 6
ENDMDL
MODEL 9
REMARK VINA RESULT:      -7.0      2.803      6.667
REMARK  Name = 
REMARK  7 active torsions:
REMARK  status: ('A' for Active; 'I' for Inactive)
REMARK    1  A    between atoms: C_1  and  N_2
REMARK    2  A    between atoms: N_2  and  C_3
REMARK    3  A    between atoms: N_2  and  C_15
REMARK    4  A    between atoms: C_3  and  C_4
REMARK    5  A    between atoms: C_5  and  C_6
REMARK    6  A    between atoms: C_11  and  N_12
REMARK    7  A    between atoms: C_15  and  C_16
REMARK                            x       y       z     vdW  Elec       q    Type
REMARK                         _______ _______ _______ _____ _____    ______ ____
ROOT
ATOM      1  C   UNL     1       4.387   2.954  19.035  0.00  0.00    +0.000 C 
ATOM      2  C   UNL     1       5.209   3.959  18.702  0.00  0.00    +0.000 C 
ENDROOT
BRANCH   2   3
ATOM      3  C   UNL     1       5.583   4.303  17.328  0.00  0.00    +0.000 A 
ATOM      4  C   UNL     1       4.637   4.188  16.303  0.00  0.00    +0.000 A 
ATOM      5  C   UNL     1       4.999   4.434  14.973  0.00  0.00    +0.000 A 
ATOM      6  C   UNL     1       6.304   4.817  14.649  0.00  0.00    +0.000 A 
ATOM      7  C   UNL     1       7.254   4.970  15.658  0.00  0.00    +0.000 A 
ATOM      8  C   UNL     1       6.883   4.709  16.982  0.00  0.00    +0.000 A 
BRANCH   8   9
ATOM      9  N   UNL     1       7.909   4.843  18.001  0.00  0.00    +0.000 N 
ATOM     10  O   UNL     1       8.765   3.949  18.072  0.00  0.00    +0.000 OA
ATOM     11  O   UNL     1       7.878   5.867  18.697  0.00  0.00    +0.000 OA
ENDBRANCH   8   9
ENDBRANCH   2   3
BRANCH   1  12
ATOM     12  C   UNL     1       3.913   2.775  20.454  0.00  0.00    +0.000 C 
BRANCH  12  14
ATOM     13  C   UNL     1       1.795   2.536  21.509  0.00  0.00    +0.000 C 
ATOM     14  N   UNL     1       2.655   3.466  20.762  0.00  0.00    +0.000 NA
BRANCH  14  15
ATOM     15  C   UNL     1       1.982   3.930  19.530  0.00  0.00    +0.000 C 
BRANCH  15  16
ATOM     16  C   UNL     1       1.939   5.440  19.414  0.00  0.00    +0.000 A 
ATOM     17  C   UNL     1       2.250   6.069  18.197  0.00  0.00    +0.000 A 
ATOM     18  C   UNL     1       2.329   7.461  18.121  0.00  0.00    +0.000 A 
ATOM     19  C   UNL     1       2.097   8.235  19.256  0.00  0.00    +0.000 A 
ATOM     20  C   UNL     1       1.744   7.622  20.458  0.00  0.00    +0.000 A 
ATOM     21  C   UNL     1       1.655   6.231  20.533  0.00  0.00    +0.000 A 
ENDBRANCH  15  16
ENDBRANCH  14  15
ENDBRANCH  12  14
ENDBRANCH   1  12
TORSDOF 6
ENDMDL
