MODEL 1
REMARK VINA RESULT:      -8.0      0.000      0.000
REMARK  Name = 
REMARK  11 active torsions:
REMARK  status: ('A' for Active; 'I' for Inactive)
REMARK    1  A    between atoms: C_1  and  N_2
REMARK    2  A    between atoms: N_2  and  C_3
REMARK    3  A    between atoms: N_2  and  C_4
REMARK    4  A    between atoms: C_7  and  C_8
REMARK    5  A    between atoms: C_9  and  S_10
REMARK    6  A    between atoms: C_9  and  C_19
REMARK    7  A    between atoms: S_10  and  C_11
REMARK    8  A    between atoms: C_11  and  C_12
REMARK    9  A    between atoms: C_19  and  C_21
REMARK   10  A    between atoms: C_24  and  C_25
REMARK   11  A    between atoms: C_25  and  O_27
REMARK                            x       y       z     vdW  Elec       q    Type
REMARK                         _______ _______ _______ _____ _____    ______ ____
ROOT
ATOM      1  C   UNL     1       5.655   6.793  18.422  0.00  0.00    +0.000 C 
ATOM      2  C   UNL     1       6.811   6.577  17.755  0.00  0.00    +0.000 C 
ENDROOT
BRANCH   1   6
ATOM      3  C   UNL     1       2.396   4.051  19.109  0.00  0.00    +0.000 A 
ATOM      4  C   UNL     1       2.269   5.106  18.188  0.00  0.00    +0.000 A 
ATOM      5  C   UNL     1       3.309   6.021  17.952  0.00  0.00    +0.000 A 
ATOM      6  C   UNL     1       4.524   5.880  18.614  0.00  0.00    +0.000 A 
ATOM      7  C   UNL     1       4.710   4.780  19.451  0.00  0.00    +0.000 A 
ATOM      8  C   UNL     1       3.663   3.882  19.690  0.00  0.00    +0.000 A 
BRANCH   3  10
ATOM      9  C   UNL     1       1.106   2.899  20.863  0.00  0.00    +0.000 C 
ATOM     10  N   UNL     1       1.334   3.191  19.449  0.00  0.00    +0.000 N 
ATOM     11  C   UNL     1       1.167   2.045  18.547  0.00  0.00    +0.000 C 
ENDBRANCH   3  10
ENDBRANCH   1   6
BRANCH   2  12
ATOM     12  C   UNL     1       7.198   5.196  17.213  0.00  0.00    +0.000 C 
ATOM     13  O   UNL     1       7.895   4.409  17.850  0.00  0.00    +0.000 OA
BRANCH  12  14
ATOM     14  C   UNL     1       6.705   4.711  15.888  0.00  0.00    +0.000 A 
ATOM     15  C   UNL     1       5.552   3.932  15.744  0.00  0.00    +0.000 A 
ATOM     16  C   UNL     1       5.207   3.398  14.499  0.00  0.00    +0.000 A 
ATOM     17  C   UNL     1       5.955   3.710  13.359  0.00  0.00    +0.000 A 
ATOM     18  C   UNL     1       7.022   4.611  13.470  0.00  0.00    +0.000 A 
ATOM     19  C   UNL     1       7.399   5.098  14.731  0.00  0.00    +0.000 A 
BRANCH  17  20
ATOM     20  C   UNL     1       5.538   3.085  12.075  0.00  0.00    +0.000 C 
ATOM     21  O   UNL     1       4.542   3.440  11.463  0.00  0.00    +0.000 OA
BRANCH  20  22
ATOM     22  O   UNL     1       6.314   2.061  11.666  0.00  0.00    +0.000 OA
ATOM     23  H   UNL     1       5.861   1.363  11.161  0.00  0.00    +0.000 HD
ENDBRANCH  20  22
ENDBRANCH  17  20
ENDBRANCH  12  14
ENDBRANCH   2  12
BRANCH   2  24
ATOM     24  S   UNL     1       7.771   7.971  17.294  0.00  0.00    +0.000 S 
BRANCH  24  25
ATOM     25  C   UNL     1       8.665   8.438  18.802  0.00  0.00    +0.000 C 
BRANCH  25  26
ATOM     26  C   UNL     1       8.944   9.927  18.823  0.00  0.00    +0.000 A 
ATOM     27  C   UNL     1       9.578  10.513  19.934  0.00  0.00    +0.000 A 
ATOM     28  C   UNL     1       9.841  11.883  19.965  0.00  0.00    +0.000 A 
ATOM     29  C   UNL     1       9.462  12.676  18.886  0.00  0.00    +0.000 A 
ATOM     30  F   UNL     1       9.715  13.986  18.913  0.00  0.00    +0.000 F 
ATOM     31  C   UNL     1       8.821  12.123  17.785  0.00  0.00    +0.000 A 
ATOM     32  C   UNL     1       8.557  10.750  17.752  0.00  0.00    +0.000 A 
ENDBRANCH  25  26
ENDBRANCH  24  25
ENDBRANCH   2  24
TORSDOF 9
ENDMDL
MODEL 2
REMARK VINA RESULT:      -7.7      0.533      1.154
REMARK  Name = 
REMARK  11 active torsions:
REMARK  status: ('A' for Active; 'I' for Inactive)
REMARK    1  A    between atoms: C_1  and  N_2
REMARK    2  A    between atoms: N_2  and  C_3
REMARK    3  A    between atoms: N_2  and  C_4
REMARK    4  A    between atoms: C_7  and  C_8
REMARK    5  A    between atoms: C_9  and  S_10
REMARK    6  A    between atoms: C_9  and  C_19
REMARK    7  A    between atoms: S_10  and  C_11
REMARK    8  A    between atoms: C_11  and  C_12
REMARK    9  A    between atoms: C_19  and  C_21
REMARK   10  A    between atoms: C_24  and  C_25
REMARK   11  A    between atoms: C_25  and  O_27
REMARK                            x       y       z     vdW  Elec       q    Type
REMARK                         _______ _______ _______ _____ _____    ______ ____
ROOT
ATOM      1  C   UNL     1       5.891   6.420  18.594  0.00  0.00    +0.000 C 
ATOM      2  C   UNL     1       6.940   6.342  17.746  0.00  0.00    +0.000 C 
ENDROOT
BRANCH   1   6
ATOM      3  C   UNL     1       2.848   3.478  19.434  0.00  0.00    +0.000 A 
ATOM      4  C   UNL     1       4.195   3.233  19.752  0.00  0.00    +0.000 A 
ATOM      5  C   UNL     1       5.209   4.167  19.479  0.00  0.00    +0.000 A 
ATOM      6  C   UNL     1       4.890   5.395  18.909  0.00  0.00    +0.000 A 
ATOM      7  C   UNL     1       3.548   5.703  18.683  0.00  0.00    +0.000 A 
ATOM      8  C   UNL     1       2.547   4.761  18.945  0.00  0.00    +0.000 A 
BRANCH   3  10
ATOM      9  C   UNL     1       0.770   2.463  18.584  0.00  0.00    +0.000 C 
ATOM     10  N   UNL     1       1.830   2.518  19.589  0.00  0.00    +0.000 N 
ATOM     11  C   UNL     1       1.378   2.329  20.973  0.00  0.00    +0.000 C 
ENDBRANCH   3  10
ENDBRANCH   1   6
BRANCH   2  12
ATOM     12  C   UNL     1       7.357   5.026  17.077  0.00  0.00    +0.000 C 
ATOM     13  O   UNL     1       8.164   4.253  17.589  0.00  0.00    +0.000 OA
BRANCH  12  14
ATOM     14  C   UNL     1       6.764   4.589  15.776  0.00  0.00    +0.000 A 
ATOM     15  C   UNL     1       5.594   3.827  15.692  0.00  0.00    +0.000 A 
ATOM     16  C   UNL     1       5.154   3.337  14.459  0.00  0.00    +0.000 A 
ATOM     17  C   UNL     1       5.821   3.679  13.278  0.00  0.00    +0.000 A 
ATOM     18  C   UNL     1       6.905   4.565  13.340  0.00  0.00    +0.000 A 
ATOM     19  C   UNL     1       7.377   5.007  14.585  0.00  0.00    +0.000 A 
BRANCH  17  20
ATOM     20  C   UNL     1       5.305   3.101  12.008  0.00  0.00    +0.000 C 
ATOM     21  O   UNL     1       4.395   3.612  11.374  0.00  0.00    +0.000 OA
BRANCH  20  22
ATOM     22  O   UNL     1       5.883   1.939  11.639  0.00  0.00    +0.000 OA
ATOM     23  H   UNL     1       6.229   1.391  12.365  0.00  0.00    +0.000 HD
ENDBRANCH  20  22
ENDBRANCH  17  20
ENDBRANCH  12  14
ENDBRANCH   2  12
BRANCH   2  24
ATOM     24  S   UNL     1       7.687   7.838  17.218  0.00  0.00    +0.000 S 
BRANCH  24  25
ATOM     25  C   UNL     1       8.586   8.446  18.672  0.00  0.00    +0.000 C 
BRANCH  25  26
ATOM     26  C   UNL     1       8.891   9.924  18.537  0.00  0.00    +0.000 A 
ATOM     27  C   UNL     1       9.906  10.511  19.315  0.00  0.00    +0.000 A 
ATOM     28  C   UNL     1      10.197  11.871  19.199  0.00  0.00    +0.000 A 
ATOM     29  C   UNL     1       9.465  12.653  18.310  0.00  0.00    +0.000 A 
ATOM     30  F   UNL     1       9.744  13.953  18.197  0.00  0.00    +0.000 F 
ATOM     31  C   UNL     1       8.450  12.099  17.542  0.00  0.00    +0.000 A 
ATOM     32  C   UNL     1       8.157  10.736  17.657  0.00  0.00    +0.000 A 
ENDBRANCH  25  26
ENDBRANCH  24  25
ENDBRANCH   2  24
TORSDOF 9
ENDMDL
MODEL 3
REMARK VINA RESULT:      -7.4      0.339      1.260
REMARK  Name = 
REMARK  11 active torsions:
REMARK  status: ('A' for Active; 'I' for Inactive)
REMARK    1  A    between atoms: C_1  and  N_2
REMARK    2  A    between atoms: N_2  and  C_3
REMARK    3  A    between atoms: N_2  and  C_4
REMARK    4  A    between atoms: C_7  and  C_8
REMARK    5  A    between atoms: C_9  and  S_10
REMARK    6  A    between atoms: C_9  and  C_19
REMARK    7  A    between atoms: S_10  and  C_11
REMARK    8  A    between atoms: C_11  and  C_12
REMARK    9  A    between atoms: C_19  and  C_21
REMARK   10  A    between atoms: C_24  and  C_25
REMARK   11  A    between atoms: C_25  and  O_27
REMARK                            x       y       z     vdW  Elec       q    Type
REMARK                         _______ _______ _______ _____ _____    ______ ____
ROOT
ATOM      1  C   UNL     1       5.597   6.893  18.416  0.00  0.00    +0.000 C 
ATOM      2  C   UNL     1       6.798   6.709  17.826  0.00  0.00    +0.000 C 
ENDROOT
BRANCH   1   6
ATOM      3  C   UNL     1       2.354   4.078  18.838  0.00  0.00    +0.000 A 
ATOM      4  C   UNL     1       3.447   4.055  19.721  0.00  0.00    +0.000 A 
ATOM      5  C   UNL     1       4.524   4.952  19.601  0.00  0.00    +0.000 A 
ATOM      6  C   UNL     1       4.512   5.923  18.606  0.00  0.00    +0.000 A 
ATOM      7  C   UNL     1       3.389   6.033  17.786  0.00  0.00    +0.000 A 
ATOM      8  C   UNL     1       2.329   5.128  17.905  0.00  0.00    +0.000 A 
BRANCH   3  10
ATOM      9  C   UNL     1       0.490   3.032  20.062  0.00  0.00    +0.000 C 
ATOM     10  N   UNL     1       1.321   3.121  18.863  0.00  0.00    +0.000 N 
ATOM     11  C   UNL     1       1.671   1.831  18.257  0.00  0.00    +0.000 C 
ENDBRANCH   3  10
ENDBRANCH   1   6
BRANCH   2  12
ATOM     12  C   UNL     1       7.295   5.324  17.393  0.00  0.00    +0.000 C 
ATOM     13  O   UNL     1       7.992   4.617  18.118  0.00  0.00    +0.000 OA
BRANCH  12  14
ATOM     14  C   UNL     1       6.918   4.737  16.071  0.00  0.00    +0.000 A 
ATOM     15  C   UNL     1       7.572   5.066  14.879  0.00  0.00    +0.000 A 
ATOM     16  C   UNL     1       7.099   4.587  13.654  0.00  0.00    +0.000 A 
ATOM     17  C   UNL     1       6.022   3.695  13.607  0.00  0.00    +0.000 A 
ATOM     18  C   UNL     1       5.459   3.243  14.808  0.00  0.00    +0.000 A 
ATOM     19  C   UNL     1       5.900   3.772  16.030  0.00  0.00    +0.000 A 
BRANCH  17  20
ATOM     20  C   UNL     1       5.562   3.247  12.265  0.00  0.00    +0.000 C 
ATOM     21  O   UNL     1       4.519   3.636  11.763  0.00  0.00    +0.000 OA
BRANCH  20  22
ATOM     22  O   UNL     1       6.360   2.337  11.668  0.00  0.00    +0.000 OA
ATOM     23  H   UNL     1       7.254   2.646  11.439  0.00  0.00    +0.000 HD
ENDBRANCH  20  22
ENDBRANCH  17  20
ENDBRANCH  12  14
ENDBRANCH   2  12
BRANCH   2  24
ATOM     24  S   UNL     1       7.699   8.130  17.328  0.00  0.00    +0.000 S 
BRANCH  24  25
ATOM     25  C   UNL     1       8.746   8.537  18.753  0.00  0.00    +0.000 C 
BRANCH  25  26
ATOM     26  C   UNL     1       8.978  10.032  18.841  0.00  0.00    +0.000 A 
ATOM     27  C   UNL     1       9.493  10.600  20.019  0.00  0.00    +0.000 A 
ATOM     28  C   UNL     1       9.712  11.975  20.112  0.00  0.00    +0.000 A 
ATOM     29  C   UNL     1       9.406  12.790  19.026  0.00  0.00    +0.000 A 
ATOM     30  F   UNL     1       9.617  14.105  19.113  0.00  0.00    +0.000 F 
ATOM     31  C   UNL     1       8.884  12.254  17.857  0.00  0.00    +0.000 A 
ATOM     32  C   UNL     1       8.664  10.876  17.762  0.00  0.00    +0.000 A 
ENDBRANCH  25  26
ENDBRANCH  24  25
ENDBRANCH   2  24
TORSDOF 9
ENDMDL
MODEL 4
REMARK VINA RESULT:      -7.4      4.659      8.768
REMARK  Name = 
REMARK  11 active torsions:
REMARK  status: ('A' for Active; 'I' for Inactive)
REMARK    1  A    between atoms: C_1  and  N_2
REMARK    2  A    between atoms: N_2  and  C_3
REMARK    3  A    between atoms: N_2  and  C_4
REMARK    4  A    between atoms: C_7  and  C_8
REMARK    5  A    between atoms: C_9  and  S_10
REMARK    6  A    between atoms: C_9  and  C_19
REMARK    7  A    between atoms: S_10  and  C_11
REMARK    8  A    between atoms: C_11  and  C_12
REMARK    9  A    between atoms: C_19  and  C_21
REMARK   10  A    between atoms: C_24  and  C_25
REMARK   11  A    between atoms: C_25  and  O_27
REMARK                            x       y       z     vdW  Elec       q    Type
REMARK                         _______ _______ _______ _____ _____    ______ ____
ROOT
ATOM      1  C   UNL     1       6.158   5.628  17.158  0.00  0.00    +0.000 C 
ATOM      2  C   UNL     1       4.976   5.171  17.628  0.00  0.00    +0.000 C 
ENDROOT
BRANCH   1   6
ATOM      3  C   UNL     1       8.519   8.976  18.511  0.00  0.00    +0.000 A 
ATOM      4  C   UNL     1       7.509   9.149  17.548  0.00  0.00    +0.000 A 
ATOM      5  C   UNL     1       6.732   8.075  17.080  0.00  0.00    +0.000 A 
ATOM      6  C   UNL     1       6.927   6.798  17.595  0.00  0.00    +0.000 A 
ATOM      7  C   UNL     1       7.849   6.623  18.627  0.00  0.00    +0.000 A 
ATOM      8  C   UNL     1       8.627   7.695  19.077  0.00  0.00    +0.000 A 
BRANCH   3  10
ATOM      9  C   UNL     1       9.280  10.510  20.281  0.00  0.00    +0.000 C 
ATOM     10  N   UNL     1       9.387  10.009  18.913  0.00  0.00    +0.000 N 
ATOM     11  C   UNL     1       9.618  11.041  17.894  0.00  0.00    +0.000 C 
ENDBRANCH   3  10
ENDBRANCH   1   6
BRANCH   2  12
ATOM     12  C   UNL     1       4.313   5.754  18.882  0.00  0.00    +0.000 C 
ATOM     13  O   UNL     1       4.610   5.385  20.017  0.00  0.00    +0.000 OA
BRANCH  12  14
ATOM     14  C   UNL     1       3.294   6.844  18.793  0.00  0.00    +0.000 A 
ATOM     15  C   UNL     1       3.145   7.654  17.662  0.00  0.00    +0.000 A 
ATOM     16  C   UNL     1       2.265   8.740  17.678  0.00  0.00    +0.000 A 
ATOM     17  C   UNL     1       1.449   8.979  18.790  0.00  0.00    +0.000 A 
ATOM     18  C   UNL     1       1.485   8.082  19.866  0.00  0.00    +0.000 A 
ATOM     19  C   UNL     1       2.411   7.028  19.868  0.00  0.00    +0.000 A 
BRANCH  17  20
ATOM     20  C   UNL     1       0.555  10.166  18.740  0.00  0.00    +0.000 C 
ATOM     21  O   UNL     1      -0.498  10.172  18.121  0.00  0.00    +0.000 OA
BRANCH  20  22
ATOM     22  O   UNL     1       1.022  11.254  19.386  0.00  0.00    +0.000 OA
ATOM     23  H   UNL     1       0.891  11.261  20.350  0.00  0.00    +0.000 HD
ENDBRANCH  20  22
ENDBRANCH  17  20
ENDBRANCH  12  14
ENDBRANCH   2  12
BRANCH   2  24
ATOM     24  S   UNL     1       4.070   4.047  16.632  0.00  0.00    +0.000 S 
BRANCH  24  25
ATOM     25  C   UNL     1       4.092   2.486  17.557  0.00  0.00    +0.000 C 
BRANCH  25  26
ATOM     26  C   UNL     1       3.196   2.569  18.776  0.00  0.00    +0.000 A 
ATOM     27  C   UNL     1       3.721   2.333  20.058  0.00  0.00    +0.000 A 
ATOM     28  C   UNL     1       2.906   2.408  21.188  0.00  0.00    +0.000 A 
ATOM     29  C   UNL     1       1.555   2.711  21.037  0.00  0.00    +0.000 A 
ATOM     30  F   UNL     1       0.775   2.784  22.117  0.00  0.00    +0.000 F 
ATOM     31  C   UNL     1       1.011   2.934  19.780  0.00  0.00    +0.000 A 
ATOM     32  C   UNL     1       1.827   2.860  18.647  0.00  0.00    +0.000 A 
ENDBRANCH  25  26
ENDBRANCH  24  25
ENDBRANCH   2  24
TORSDOF 9
ENDMDL
MODEL 5
REMARK VINA RESULT:      -7.4      1.257      1.774
REMARK  Name = 
REMARK  11 active torsions:
REMARK  status: ('A' for Active; 'I' for Inactive)
REMARK    1  A    between atoms: C_1  and  N_2
REMARK    2  A    between atoms: N_2  and  C_3
REMARK    3  A    between atoms: N_2  and  C_4
REMARK    4  A    between atoms: C_7  and  C_8
REMARK    5  A    between atoms: C_9  and  S_10
REMARK    6  A    between atoms: C_9  and  C_19
REMARK    7  A    between atoms: S_10  and  C_11
REMARK    8  A    between atoms: C_11  and  C_12
REMARK    9  A    between atoms: C_19  and  C_21
REMARK   10  A    between atoms: C_24  and  C_25
REMARK   11  A    between atoms: C_25  and  O_27
REMARK                            x       y       z     vdW  Elec       q    Type
REMARK                         _______ _______ _______ _____ _____    ______ ____
ROOT
ATOM      1  C   UNL     1       6.490   5.449  19.230  0.00  0.00    +0.000 C 
ATOM      2  C   UNL     1       6.869   6.277  18.231  0.00  0.00    +0.000 C 
ENDROOT
BRANCH   1   6
ATOM      3  C   UNL     1       2.784   3.311  19.789  0.00  0.00    +0.000 A 
ATOM      4  C   UNL     1       2.822   4.715  19.844  0.00  0.00    +0.000 A 
ATOM      5  C   UNL     1       4.016   5.438  19.678  0.00  0.00    +0.000 A 
ATOM      6  C   UNL     1       5.205   4.767  19.414  0.00  0.00    +0.000 A 
ATOM      7  C   UNL     1       5.173   3.382  19.249  0.00  0.00    +0.000 A 
ATOM      8  C   UNL     1       3.982   2.670  19.430  0.00  0.00    +0.000 A 
BRANCH   3  10
ATOM      9  C   UNL     1       0.580   2.499  19.049  0.00  0.00    +0.000 C 
ATOM     10  N   UNL     1       1.627   2.557  20.066  0.00  0.00    +0.000 N 
ATOM     11  C   UNL     1       1.142   2.673  21.446  0.00  0.00    +0.000 C 
ENDBRANCH   3  10
ENDBRANCH   1   6
BRANCH   2  12
ATOM     12  C   UNL     1       6.010   6.500  16.981  0.00  0.00    +0.000 C 
ATOM     13  O   UNL     1       5.230   7.444  16.876  0.00  0.00    +0.000 OA
BRANCH  12  14
ATOM     14  C   UNL     1       6.109   5.596  15.794  0.00  0.00    +0.000 A 
ATOM     15  C   UNL     1       7.208   5.596  14.928  0.00  0.00    +0.000 A 
ATOM     16  C   UNL     1       7.193   4.824  13.763  0.00  0.00    +0.000 A 
ATOM     17  C   UNL     1       6.122   3.967  13.490  0.00  0.00    +0.000 A 
ATOM     18  C   UNL     1       5.088   3.849  14.429  0.00  0.00    +0.000 A 
ATOM     19  C   UNL     1       5.079   4.669  15.567  0.00  0.00    +0.000 A 
BRANCH  17  20
ATOM     20  C   UNL     1       6.169   3.194  12.220  0.00  0.00    +0.000 C 
ATOM     21  O   UNL     1       7.218   2.875  11.683  0.00  0.00    +0.000 OA
BRANCH  20  22
ATOM     22  O   UNL     1       4.964   2.920  11.679  0.00  0.00    +0.000 OA
ATOM     23  H   UNL     1       4.238   3.512  11.944  0.00  0.00    +0.000 HD
ENDBRANCH  20  22
ENDBRANCH  17  20
ENDBRANCH  12  14
ENDBRANCH   2  12
BRANCH   2  24
ATOM     24  S   UNL     1       8.267   7.304  18.496  0.00  0.00    +0.000 S 
BRANCH  24  25
ATOM     25  C   UNL     1       7.922   8.810  17.545  0.00  0.00    +0.000 C 
BRANCH  25  26
ATOM     26  C   UNL     1       8.526  10.024  18.221  0.00  0.00    +0.000 A 
ATOM     27  C   UNL     1       9.243   9.881  19.423  0.00  0.00    +0.000 A 
ATOM     28  C   UNL     1       9.805  10.991  20.055  0.00  0.00    +0.000 A 
ATOM     29  C   UNL     1       9.643  12.254  19.490  0.00  0.00    +0.000 A 
ATOM     30  F   UNL     1      10.181  13.316  20.092  0.00  0.00    +0.000 F 
ATOM     31  C   UNL     1       8.927  12.421  18.312  0.00  0.00    +0.000 A 
ATOM     32  C   UNL     1       8.364  11.309  17.677  0.00  0.00    +0.000 A 
ENDBRANCH  25  26
ENDBRANCH  24  25
ENDBRANCH   2  24
TORSDOF 9
ENDMDL
MODEL 6
REMARK VINA RESULT:      -7.2      0.649      1.185
REMARK  Name = 
REMARK  11 active torsions:
REMARK  status: ('A' for Active; 'I' for Inactive)
REMARK    1  A    between atoms: C_1  and  N_2
REMARK    2  A    between atoms: N_2  and  C_3
REMARK    3  A    between atoms: N_2  and  C_4
REMARK    4  A    between atoms: C_7  and  C_8
REMARK    5  A    between atoms: C_9  and  S_10
REMARK    6  A    between atoms: C_9  and  C_19
REMARK    7  A    between atoms: S_10  and  C_11
REMARK    8  A    between atoms: C_11  and  C_12
REMARK    9  A    between atoms: C_19  and  C_21
REMARK   10  A    between atoms: C_24  and  C_25
REMARK   11  A    between atoms: C_25  and  O_27
REMARK                            x       y       z     vdW  Elec       q    Type
REMARK                         _______ _______ _______ _____ _____    ______ ____
ROOT
ATOM      1  C   UNL     1       5.988   6.733  18.266  0.00  0.00    +0.000 C 
ATOM      2  C   UNL     1       7.126   6.440  17.599  0.00  0.00    +0.000 C 
ENDROOT
BRANCH   1   6
ATOM      3  C   UNL     1       2.524   4.242  18.909  0.00  0.00    +0.000 A 
ATOM      4  C   UNL     1       2.504   5.271  17.952  0.00  0.00    +0.000 A 
ATOM      5  C   UNL     1       3.613   6.106  17.729  0.00  0.00    +0.000 A 
ATOM      6  C   UNL     1       4.790   5.904  18.441  0.00  0.00    +0.000 A 
ATOM      7  C   UNL     1       4.869   4.823  19.318  0.00  0.00    +0.000 A 
ATOM      8  C   UNL     1       3.755   4.006  19.544  0.00  0.00    +0.000 A 
BRANCH   3  10
ATOM      9  C   UNL     1       0.979   3.402  20.634  0.00  0.00    +0.000 C 
ATOM     10  N   UNL     1       1.394   3.467  19.234  0.00  0.00    +0.000 N 
ATOM     11  C   UNL     1       1.295   2.199  18.501  0.00  0.00    +0.000 C 
ENDBRANCH   3  10
ENDBRANCH   1   6
BRANCH   2  12
ATOM     12  C   UNL     1       7.409   5.041  17.037  0.00  0.00    +0.000 C 
ATOM     13  O   UNL     1       8.098   4.217  17.636  0.00  0.00    +0.000 OA
BRANCH  12  14
ATOM     14  C   UNL     1       6.821   4.585  15.741  0.00  0.00    +0.000 A 
ATOM     15  C   UNL     1       5.637   3.844  15.663  0.00  0.00    +0.000 A 
ATOM     16  C   UNL     1       5.199   3.334  14.437  0.00  0.00    +0.000 A 
ATOM     17  C   UNL     1       5.884   3.635  13.255  0.00  0.00    +0.000 A 
ATOM     18  C   UNL     1       6.984   4.502  13.307  0.00  0.00    +0.000 A 
ATOM     19  C   UNL     1       7.453   4.964  14.546  0.00  0.00    +0.000 A 
BRANCH  17  20
ATOM     20  C   UNL     1       5.369   3.038  11.994  0.00  0.00    +0.000 C 
ATOM     21  O   UNL     1       5.910   2.091  11.445  0.00  0.00    +0.000 OA
BRANCH  20  22
ATOM     22  O   UNL     1       4.288   3.656  11.474  0.00  0.00    +0.000 OA
ATOM     23  H   UNL     1       4.193   3.598  10.508  0.00  0.00    +0.000 HD
ENDBRANCH  20  22
ENDBRANCH  17  20
ENDBRANCH  12  14
ENDBRANCH   2  12
BRANCH   2  24
ATOM     24  S   UNL     1       8.190   7.764  17.160  0.00  0.00    +0.000 S 
BRANCH  24  25
ATOM     25  C   UNL     1       7.393   9.244  17.844  0.00  0.00    +0.000 C 
BRANCH  25  26
ATOM     26  C   UNL     1       8.429  10.260  18.280  0.00  0.00    +0.000 A 
ATOM     27  C   UNL     1       8.538  11.492  17.610  0.00  0.00    +0.000 A 
ATOM     28  C   UNL     1       9.487  12.436  18.003  0.00  0.00    +0.000 A 
ATOM     29  C   UNL     1      10.340  12.146  19.064  0.00  0.00    +0.000 A 
ATOM     30  F   UNL     1      11.247  13.049  19.443  0.00  0.00    +0.000 F 
ATOM     31  C   UNL     1      10.261  10.932  19.731  0.00  0.00    +0.000 A 
ATOM     32  C   UNL     1       9.310   9.984  19.339  0.00  0.00    +0.000 A 
ENDBRANCH  25  26
ENDBRANCH  24  25
ENDBRANCH   2  24
TORSDOF 9
ENDMDL
MODEL 7
REMARK VINA RESULT:      -7.2      1.245      2.060
REMARK  Name = 
REMARK  11 active torsions:
REMARK  status: ('A' for Active; 'I' for Inactive)
REMARK    1  A    between atoms: C_1  and  N_2
REMARK    2  A    between atoms: N_2  and  C_3
REMARK    3  A    between atoms: N_2  and  C_4
REMARK    4  A    between atoms: C_7  and  C_8
REMARK    5  A    between atoms: C_9  and  S_10
REMARK    6  A    between atoms: C_9  and  C_19
REMARK    7  A    between atoms: S_10  and  C_11
REMARK    8  A    between atoms: C_11  and  C_12
REMARK    9  A    between atoms: C_19  and  C_21
REMARK   10  A    between atoms: C_24  and  C_25
REMARK   11  A    between atoms: C_25  and  O_27
REMARK                            x       y       z     vdW  Elec       q    Type
REMARK                         _______ _______ _______ _____ _____    ______ ____
ROOT
ATOM      1  C   UNL     1       6.573   5.443  19.057  0.00  0.00    +0.000 C 
ATOM      2  C   UNL     1       6.868   6.271  18.030  0.00  0.00    +0.000 C 
ENDROOT
BRANCH   1   6
ATOM      3  C   UNL     1       2.875   3.326  19.734  0.00  0.00    +0.000 A 
ATOM      4  C   UNL     1       4.072   2.628  19.496  0.00  0.00    +0.000 A 
ATOM      5  C   UNL     1       5.289   3.291  19.260  0.00  0.00    +0.000 A 
ATOM      6  C   UNL     1       5.343   4.680  19.293  0.00  0.00    +0.000 A 
ATOM      7  C   UNL     1       4.191   5.390  19.634  0.00  0.00    +0.000 A 
ATOM      8  C   UNL     1       2.982   4.722  19.853  0.00  0.00    +0.000 A 
BRANCH   3  10
ATOM      9  C   UNL     1       0.689   2.780  18.739  0.00  0.00    +0.000 C 
ATOM     10  N   UNL     1       1.623   2.693  19.859  0.00  0.00    +0.000 N 
ATOM     11  C   UNL     1       1.009   2.816  21.187  0.00  0.00    +0.000 C 
ENDBRANCH   3  10
ENDBRANCH   1   6
BRANCH   2  12
ATOM     12  C   UNL     1       5.962   6.406  16.801  0.00  0.00    +0.000 C 
ATOM     13  O   UNL     1       5.116   7.293  16.699  0.00  0.00    +0.000 OA
BRANCH  12  14
ATOM     14  C   UNL     1       6.090   5.486  15.630  0.00  0.00    +0.000 A 
ATOM     15  C   UNL     1       7.184   5.512  14.759  0.00  0.00    +0.000 A 
ATOM     16  C   UNL     1       7.195   4.719  13.608  0.00  0.00    +0.000 A 
ATOM     17  C   UNL     1       6.156   3.816  13.357  0.00  0.00    +0.000 A 
ATOM     18  C   UNL     1       5.132   3.676  14.303  0.00  0.00    +0.000 A 
ATOM     19  C   UNL     1       5.096   4.515  15.426  0.00  0.00    +0.000 A 
BRANCH  17  20
ATOM     20  C   UNL     1       6.228   3.023  12.100  0.00  0.00    +0.000 C 
ATOM     21  O   UNL     1       7.282   2.783  11.533  0.00  0.00    +0.000 OA
BRANCH  20  22
ATOM     22  O   UNL     1       5.034   2.634  11.607  0.00  0.00    +0.000 OA
ATOM     23  H   UNL     1       4.910   1.674  11.509  0.00  0.00    +0.000 HD
ENDBRANCH  20  22
ENDBRANCH  17  20
ENDBRANCH  12  14
ENDBRANCH   2  12
BRANCH   2  24
ATOM     24  S   UNL     1       8.200   7.394  18.233  0.00  0.00    +0.000 S 
BRANCH  24  25
ATOM     25  C   UNL     1       7.558   8.986  17.643  0.00  0.00    +0.000 C 
BRANCH  25  26
ATOM     26  C   UNL     1       8.389  10.134  18.178  0.00  0.00    +0.000 A 
ATOM     27  C   UNL     1       8.326  11.399  17.566  0.00  0.00    +0.000 A 
ATOM     28  C   UNL     1       9.087  12.464  18.050  0.00  0.00    +0.000 A 
ATOM     29  C   UNL     1       9.923  12.264  19.145  0.00  0.00    +0.000 A 
ATOM     30  F   UNL     1      10.649  13.283  19.610  0.00  0.00    +0.000 F 
ATOM     31  C   UNL     1      10.013  11.021  19.756  0.00  0.00    +0.000 A 
ATOM     32  C   UNL     1       9.251   9.953  19.272  0.00  0.00    +0.000 A 
ENDBRANCH  25  26
ENDBRANCH  24  25
ENDBRANCH   2  24
TORSDOF 9
ENDMDL
MODEL 8
REMARK VINA RESULT:      -7.2      7.967     10.729
REMARK  Name = 
REMARK  11 active torsions:
REMARK  status: ('A' for Active; 'I' for Inactive)
REMARK    1  A    between atoms: C_1  and  N_2
REMARK    2  A    between atoms: N_2  and  C_3
REMARK    3  A    between atoms: N_2  and  C_4
REMARK    4  A    between atoms: C_7  and  C_8
REMARK    5  A    between atoms: C_9  and  S_10
REMARK    6  A    between atoms: C_9  and  C_19
REMARK    7  A    between atoms: S_10  and  C_11
REMARK    8  A    between atoms: C_11  and  C_12
REMARK    9  A    between atoms: C_19  and  C_21
REMARK   10  A    between atoms: C_24  and  C_25
REMARK   11  A    between atoms: C_25  and  O_27
REMARK                            x       y       z     vdW  Elec       q    Type
REMARK                         _______ _______ _______ _____ _____    ______ ____
ROOT
ATOM      1  C   UNL     1       1.038   9.218  20.660  0.00  0.00    +0.000 C 
ATOM      2  C   UNL     1       1.346   8.994  19.363  0.00  0.00    +0.000 C 
ENDROOT
BRANCH   1   6
ATOM      3  C   UNL     1      -0.686  12.690  22.555  0.00  0.00    +0.000 A 
ATOM      4  C   UNL     1       0.420  12.812  21.696  0.00  0.00    +0.000 A 
ATOM      5  C   UNL     1       1.010  11.698  21.074  0.00  0.00    +0.000 A 
ATOM      6  C   UNL     1       0.479  10.428  21.272  0.00  0.00    +0.000 A 
ATOM      7  C   UNL     1      -0.681  10.296  22.035  0.00  0.00    +0.000 A 
ATOM      8  C   UNL     1      -1.253  11.409  22.661  0.00  0.00    +0.000 A 
BRANCH   3  10
ATOM      9  C   UNL     1      -2.611  13.679  23.731  0.00  0.00    +0.000 C 
ATOM     10  N   UNL     1      -1.224  13.770  23.280  0.00  0.00    +0.000 N 
ATOM     11  C   UNL     1      -0.819  15.094  22.789  0.00  0.00    +0.000 C 
ENDBRANCH   3  10
ENDBRANCH   1   6
BRANCH   2  12
ATOM     12  C   UNL     1       0.972   9.980  18.250  0.00  0.00    +0.000 C 
ATOM     13  O   UNL     1       1.791  10.392  17.431  0.00  0.00    +0.000 OA
BRANCH  12  14
ATOM     14  C   UNL     1      -0.431  10.464  18.074  0.00  0.00    +0.000 A 
ATOM     15  C   UNL     1      -0.818  11.784  18.330  0.00  0.00    +0.000 A 
ATOM     16  C   UNL     1      -2.165  12.153  18.273  0.00  0.00    +0.000 A 
ATOM     17  C   UNL     1      -3.138  11.233  17.867  0.00  0.00    +0.000 A 
ATOM     18  C   UNL     1      -2.738   9.952  17.464  0.00  0.00    +0.000 A 
ATOM     19  C   UNL     1      -1.393   9.570  17.579  0.00  0.00    +0.000 A 
BRANCH  17  20
ATOM     20  C   UNL     1      -4.552  11.695  17.853  0.00  0.00    +0.000 C 
ATOM     21  O   UNL     1      -5.371  11.281  17.047  0.00  0.00    +0.000 OA
BRANCH  20  22
ATOM     22  O   UNL     1      -4.846  12.645  18.764  0.00  0.00    +0.000 OA
ATOM     23  H   UNL     1      -4.635  12.424  19.688  0.00  0.00    +0.000 HD
ENDBRANCH  20  22
ENDBRANCH  17  20
ENDBRANCH  12  14
ENDBRANCH   2  12
BRANCH   2  24
ATOM     24  S   UNL     1       2.415   7.654  18.988  0.00  0.00    +0.000 S 
BRANCH  24  25
ATOM     25  C   UNL     1       2.201   6.492  20.365  0.00  0.00    +0.000 C 
BRANCH  25  26
ATOM     26  C   UNL     1       1.793   5.124  19.857  0.00  0.00    +0.000 A 
ATOM     27  C   UNL     1       1.345   4.140  20.756  0.00  0.00    +0.000 A 
ATOM     28  C   UNL     1       0.967   2.876  20.300  0.00  0.00    +0.000 A 
ATOM     29  C   UNL     1       1.044   2.590  18.939  0.00  0.00    +0.000 A 
ATOM     30  F   UNL     1       0.679   1.383  18.502  0.00  0.00    +0.000 F 
ATOM     31  C   UNL     1       1.496   3.541  18.035  0.00  0.00    +0.000 A 
ATOM     32  C   UNL     1       1.876   4.807  18.491  0.00  0.00    +0.000 A 
ENDBRANCH  25  26
ENDBRANCH  24  25
ENDBRANCH   2  24
TORSDOF 9
ENDMDL
MODEL 9
REMARK VINA RESULT:      -7.1      9.357     11.654
REMARK  Name = 
REMARK  11 active torsions:
REMARK  status: ('A' for Active; 'I' for Inactive)
REMARK    1  A    between atoms: C_1  and  N_2
REMARK    2  A    between atoms: N_2  and  C_3
REMARK    3  A    between atoms: N_2  and  C_4
REMARK    4  A    between atoms: C_7  and  C_8
REMARK    5  A    between atoms: C_9  and  S_10
REMARK    6  A    between atoms: C_9  and  C_19
REMARK    7  A    between atoms: S_10  and  C_11
REMARK    8  A    between atoms: C_11  and  C_12
REMARK    9  A    between atoms: C_19  and  C_21
REMARK   10  A    between atoms: C_24  and  C_25
REMARK   11  A    between atoms: C_25  and  O_27
REMARK                            x       y       z     vdW  Elec       q    Type
REMARK                         _______ _______ _______ _____ _____    ______ ____
ROOT
ATOM      1  C   UNL     1      -0.204  11.026  21.410  0.00  0.00    +0.000 C 
ATOM      2  C   UNL     1      -0.090  10.971  20.064  0.00  0.00    +0.000 C 
ENDROOT
BRANCH   1   6
ATOM      3  C   UNL     1      -2.216  13.921  23.897  0.00  0.00    +0.000 A 
ATOM      4  C   UNL     1      -1.078  14.277  23.153  0.00  0.00    +0.000 A 
ATOM      5  C   UNL     1      -0.395  13.353  22.343  0.00  0.00    +0.000 A 
ATOM      6  C   UNL     1      -0.861  12.047  22.232  0.00  0.00    +0.000 A 
ATOM      7  C   UNL     1      -2.049  11.700  22.876  0.00  0.00    +0.000 A 
ATOM      8  C   UNL     1      -2.713  12.624  23.690  0.00  0.00    +0.000 A 
BRANCH   3  10
ATOM      9  C   UNL     1      -3.991  15.574  24.328  0.00  0.00    +0.000 C 
ATOM     10  N   UNL     1      -2.851  14.793  24.802  0.00  0.00    +0.000 N 
ATOM     11  C   UNL     1      -1.935  15.516  25.694  0.00  0.00    +0.000 C 
ENDBRANCH   3  10
ENDBRANCH   1   6
BRANCH   2  12
ATOM     12  C   UNL     1      -0.827  11.947  19.140  0.00  0.00    +0.000 C 
ATOM     13  O   UNL     1      -0.254  12.867  18.559  0.00  0.00    +0.000 OA
BRANCH  12  14
ATOM     14  C   UNL     1      -2.288  11.804  18.858  0.00  0.00    +0.000 A 
ATOM     15  C   UNL     1      -3.272  12.488  19.580  0.00  0.00    +0.000 A 
ATOM     16  C   UNL     1      -4.627  12.222  19.361  0.00  0.00    +0.000 A 
ATOM     17  C   UNL     1      -5.025  11.338  18.353  0.00  0.00    +0.000 A 
ATOM     18  C   UNL     1      -4.049  10.765  17.526  0.00  0.00    +0.000 A 
ATOM     19  C   UNL     1      -2.690  10.990  17.787  0.00  0.00    +0.000 A 
BRANCH  17  20
ATOM     20  C   UNL     1      -6.483  11.089  18.196  0.00  0.00    +0.000 C 
ATOM     21  O   UNL     1      -7.054  10.158  18.742  0.00  0.00    +0.000 OA
BRANCH  20  22
ATOM     22  O   UNL     1      -7.116  11.941  17.362  0.00  0.00    +0.000 OA
ATOM     23  H   UNL     1      -7.256  12.841  17.705  0.00  0.00    +0.000 HD
ENDBRANCH  20  22
ENDBRANCH  17  20
ENDBRANCH  12  14
ENDBRANCH   2  12
BRANCH   2  24
ATOM     24  S   UNL     1       1.126   9.907  19.382  0.00  0.00    +0.000 S 
BRANCH  24  25
ATOM     25  C   UNL     1       1.293   8.561  20.588  0.00  0.00    +0.000 C 
BRANCH  25  26
ATOM     26  C   UNL     1       1.907   7.335  19.945  0.00  0.00    +0.000 A 
ATOM     27  C   UNL     1       2.497   7.423  18.671  0.00  0.00    +0.000 A 
ATOM     28  C   UNL     1       3.066   6.301  18.069  0.00  0.00    +0.000 A 
ATOM     29  C   UNL     1       3.040   5.080  18.736  0.00  0.00    +0.000 A 
ATOM     30  F   UNL     1       3.586   4.006  18.162  0.00  0.00    +0.000 F 
ATOM     31  C   UNL     1       2.451   4.965  19.988  0.00  0.00    +0.000 A 
ATOM     32  C   UNL     1       1.880   6.089  20.594  0.00  0.00    +0.000 A 
ENDBRANCH  25  26
ENDBRANCH  24  25
ENDBRANCH   2  24
TORSDOF 9
ENDMDL
