MODEL 1
REMARK VINA RESULT:      -7.5      0.000      0.000
REMARK  Name = 
REMARK  10 active torsions:
REMARK  status: ('A' for Active; 'I' for Inactive)
REMARK    1  A    between atoms: C_1  and  C_2
REMARK    2  A    between atoms: C_2  and  C_3
REMARK    3  A    between atoms: C_3  and  N_4
REMARK    4  A    between atoms: N_9  and  C_10
REMARK    5  A    between atoms: C_10  and  C_11
REMARK    6  A    between atoms: C_10  and  C_20
REMARK    7  A    between atoms: C_11  and  S_12
REMARK    8  A    between atoms: S_12  and  C_13
REMARK    9  A    between atoms: C_16  and  C_17
REMARK   10  A    between atoms: C_20  and  C_21
REMARK                            x       y       z     vdW  Elec       q    Type
REMARK                         _______ _______ _______ _____ _____    ______ ____
ROOT
ATOM      1  C   UNL     1       2.827   6.866  18.910  0.00  0.00    +0.000 C 
ENDROOT
BRANCH   1   7
ATOM      2  N   UNL     1      -0.421   9.484  20.972  0.00  0.00    +0.000 NA
ATOM      3  C   UNL     1      -0.334  10.060  19.623  0.00  0.00    +0.000 C 
ATOM      4  C   UNL     1       1.058  10.308  19.043  0.00  0.00    +0.000 C 
ATOM      5  C   UNL     1       1.688   9.053  18.468  0.00  0.00    +0.000 C 
ATOM      6  O   UNL     1       1.835   8.926  17.251  0.00  0.00    +0.000 OA
ATOM      7  N   UNL     1       2.097   8.080  19.371  0.00  0.00    +0.000 N 
ATOM      8  C   UNL     1       1.767   8.168  20.793  0.00  0.00    +0.000 C 
ATOM      9  C   UNL     1       0.246   8.174  21.054  0.00  0.00    +0.000 C 
BRANCH   2  10
ATOM     10  C   UNL     1      -0.002  10.362  22.075  0.00  0.00    +0.000 C 
BRANCH  10  12
ATOM     11  C   UNL     1      -1.259  12.399  22.980  0.00  0.00    +0.000 C 
ATOM     12  C   UNL     1      -1.114  10.886  22.994  0.00  0.00    +0.000 C 
ENDBRANCH  10  12
ENDBRANCH   2  10
ENDBRANCH   1   7
BRANCH   1  13
ATOM     13  C   UNL     1       4.167   7.169  18.158  0.00  0.00    +0.000 C 
BRANCH  13  14
ATOM     14  S   UNL     1       5.345   5.770  18.387  0.00  0.00    +0.000 S 
BRANCH  14  15
ATOM     15  C   UNL     1       5.603   5.037  16.777  0.00  0.00    +0.000 A 
ATOM     16  C   UNL     1       4.758   4.150  16.107  0.00  0.00    +0.000 A 
ATOM     17  C   UNL     1       5.070   3.714  14.804  0.00  0.00    +0.000 A 
ATOM     18  C   UNL     1       6.229   4.155  14.152  0.00  0.00    +0.000 A 
ATOM     19  C   UNL     1       6.558   3.747  12.745  0.00  0.00    +0.000 C 
ATOM     20  C   UNL     1       7.082   5.027  14.827  0.00  0.00    +0.000 A 
ATOM     21  C   UNL     1       6.769   5.461  16.118  0.00  0.00    +0.000 A 
ENDBRANCH  14  15
ENDBRANCH  13  14
ENDBRANCH   1  13
BRANCH   1  22
ATOM     22  C   UNL     1       1.866   5.937  18.127  0.00  0.00    +0.000 C 
BRANCH  22  23
ATOM     23  C   UNL     1       1.642   4.612  18.816  0.00  0.00    +0.000 A 
ATOM     24  C   UNL     1       1.502   4.548  20.212  0.00  0.00    +0.000 A 
ATOM     25  C   UNL     1       1.378   3.314  20.855  0.00  0.00    +0.000 A 
ATOM     26  C   UNL     1       1.398   2.138  20.111  0.00  0.00    +0.000 A 
ATOM     27  C   UNL     1       1.508   2.194  18.722  0.00  0.00    +0.000 A 
ATOM     28  C   UNL     1       1.618   3.425  18.075  0.00  0.00    +0.000 A 
ENDBRANCH  22  23
ENDBRANCH   1  22
TORSDOF 8
ENDMDL
MODEL 2
REMARK VINA RESULT:      -7.4      1.615      2.129
REMARK  Name = 
REMARK  10 active torsions:
REMARK  status: ('A' for Active; 'I' for Inactive)
REMARK    1  A    between atoms: C_1  and  C_2
REMARK    2  A    between atoms: C_2  and  C_3
REMARK    3  A    between atoms: C_3  and  N_4
REMARK    4  A    between atoms: N_9  and  C_10
REMARK    5  A    between atoms: C_10  and  C_11
REMARK    6  A    between atoms: C_10  and  C_20
REMARK    7  A    between atoms: C_11  and  S_12
REMARK    8  A    between atoms: S_12  and  C_13
REMARK    9  A    between atoms: C_16  and  C_17
REMARK   10  A    between atoms: C_20  and  C_21
REMARK                            x       y       z     vdW  Elec       q    Type
REMARK                         _______ _______ _______ _____ _____    ______ ____
ROOT
ATOM      1  C   UNL     1       2.929   6.740  18.591  0.00  0.00    +0.000 C 
ENDROOT
BRANCH   1   7
ATOM      2  N   UNL     1       1.035  10.966  19.046  0.00  0.00    +0.000 NA
ATOM      3  C   UNL     1       0.989  10.430  20.413  0.00  0.00    +0.000 C 
ATOM      4  C   UNL     1       0.502   8.993  20.598  0.00  0.00    +0.000 C 
ATOM      5  C   UNL     1       1.582   7.965  20.310  0.00  0.00    +0.000 C 
ATOM      6  O   UNL     1       2.077   7.304  21.225  0.00  0.00    +0.000 OA
ATOM      7  N   UNL     1       1.962   7.802  18.984  0.00  0.00    +0.000 N 
ATOM      8  C   UNL     1       1.489   8.705  17.936  0.00  0.00    +0.000 C 
ATOM      9  C   UNL     1       1.914  10.170  18.173  0.00  0.00    +0.000 C 
BRANCH   2  10
ATOM     10  C   UNL     1      -0.266  11.212  18.406  0.00  0.00    +0.000 C 
BRANCH  10  12
ATOM     11  C   UNL     1      -1.995  12.589  19.696  0.00  0.00    +0.000 C 
ATOM     12  C   UNL     1      -0.897  12.590  18.644  0.00  0.00    +0.000 C 
ENDBRANCH  10  12
ENDBRANCH   2  10
ENDBRANCH   1   7
BRANCH   1  13
ATOM     13  C   UNL     1       4.021   7.210  17.571  0.00  0.00    +0.000 C 
BRANCH  13  14
ATOM     14  S   UNL     1       5.539   6.181  17.759  0.00  0.00    +0.000 S 
BRANCH  14  15
ATOM     15  C   UNL     1       5.740   5.265  16.237  0.00  0.00    +0.000 A 
ATOM     16  C   UNL     1       4.844   4.354  15.675  0.00  0.00    +0.000 A 
ATOM     17  C   UNL     1       5.117   3.763  14.425  0.00  0.00    +0.000 A 
ATOM     18  C   UNL     1       6.288   4.072  13.720  0.00  0.00    +0.000 A 
ATOM     19  C   UNL     1       6.578   3.497  12.364  0.00  0.00    +0.000 C 
ATOM     20  C   UNL     1       7.191   4.969  14.289  0.00  0.00    +0.000 A 
ATOM     21  C   UNL     1       6.917   5.556  15.527  0.00  0.00    +0.000 A 
ENDBRANCH  14  15
ENDBRANCH  13  14
ENDBRANCH   1  13
BRANCH   1  22
ATOM     22  C   UNL     1       2.165   5.467  18.147  0.00  0.00    +0.000 C 
BRANCH  22  23
ATOM     23  C   UNL     1       2.198   4.372  19.187  0.00  0.00    +0.000 A 
ATOM     24  C   UNL     1       1.101   4.161  20.037  0.00  0.00    +0.000 A 
ATOM     25  C   UNL     1       1.165   3.203  21.051  0.00  0.00    +0.000 A 
ATOM     26  C   UNL     1       2.325   2.455  21.227  0.00  0.00    +0.000 A 
ATOM     27  C   UNL     1       3.409   2.637  20.370  0.00  0.00    +0.000 A 
ATOM     28  C   UNL     1       3.343   3.583  19.346  0.00  0.00    +0.000 A 
ENDBRANCH  22  23
ENDBRANCH   1  22
TORSDOF 8
ENDMDL
MODEL 3
REMARK VINA RESULT:      -7.3      1.520      2.493
REMARK  Name = 
REMARK  10 active torsions:
REMARK  status: ('A' for Active; 'I' for Inactive)
REMARK    1  A    between atoms: C_1  and  C_2
REMARK    2  A    between atoms: C_2  and  C_3
REMARK    3  A    between atoms: C_3  and  N_4
REMARK    4  A    between atoms: N_9  and  C_10
REMARK    5  A    between atoms: C_10  and  C_11
REMARK    6  A    between atoms: C_10  and  C_20
REMARK    7  A    between atoms: C_11  and  S_12
REMARK    8  A    between atoms: S_12  and  C_13
REMARK    9  A    between atoms: C_16  and  C_17
REMARK   10  A    between atoms: C_20  and  C_21
REMARK                            x       y       z     vdW  Elec       q    Type
REMARK                         _______ _______ _______ _____ _____    ______ ____
ROOT
ATOM      1  C   UNL     1       2.680   6.933  18.702  0.00  0.00    +0.000 C 
ENDROOT
BRANCH   1   7
ATOM      2  N   UNL     1       1.199  11.336  18.963  0.00  0.00    +0.000 NA
ATOM      3  C   UNL     1       1.043  10.848  20.340  0.00  0.00    +0.000 C 
ATOM      4  C   UNL     1       0.408   9.473  20.540  0.00  0.00    +0.000 C 
ATOM      5  C   UNL     1       1.391   8.335  20.327  0.00  0.00    +0.000 C 
ATOM      6  O   UNL     1       1.780   7.656  21.280  0.00  0.00    +0.000 OA
ATOM      7  N   UNL     1       1.808   8.096  19.024  0.00  0.00    +0.000 N 
ATOM      8  C   UNL     1       1.471   9.010  17.933  0.00  0.00    +0.000 C 
ATOM      9  C   UNL     1       2.029  10.432  18.151  0.00  0.00    +0.000 C 
BRANCH   2  10
ATOM     10  C   UNL     1      -0.044  11.690  18.261  0.00  0.00    +0.000 C 
BRANCH  10  12
ATOM     11  C   UNL     1       0.255  14.174  18.794  0.00  0.00    +0.000 C 
ATOM     12  C   UNL     1      -0.713  13.008  18.672  0.00  0.00    +0.000 C 
ENDBRANCH  10  12
ENDBRANCH   2  10
ENDBRANCH   1   7
BRANCH   1  13
ATOM     13  C   UNL     1       4.014   7.312  17.974  0.00  0.00    +0.000 C 
BRANCH  13  14
ATOM     14  S   UNL     1       5.262   5.976  18.217  0.00  0.00    +0.000 S 
BRANCH  14  15
ATOM     15  C   UNL     1       5.720   5.389  16.592  0.00  0.00    +0.000 A 
ATOM     16  C   UNL     1       6.948   5.557  15.948  0.00  0.00    +0.000 A 
ATOM     17  C   UNL     1       7.178   4.970  14.688  0.00  0.00    +0.000 A 
ATOM     18  C   UNL     1       6.189   4.207  14.054  0.00  0.00    +0.000 A 
ATOM     19  C   UNL     1       6.427   3.527  12.736  0.00  0.00    +0.000 C 
ATOM     20  C   UNL     1       4.958   4.053  14.689  0.00  0.00    +0.000 A 
ATOM     21  C   UNL     1       4.731   4.634  15.939  0.00  0.00    +0.000 A 
ENDBRANCH  14  15
ENDBRANCH  13  14
ENDBRANCH   1  13
BRANCH   1  22
ATOM     22  C   UNL     1       1.858   5.842  17.971  0.00  0.00    +0.000 C 
BRANCH  22  23
ATOM     23  C   UNL     1       1.788   4.545  18.743  0.00  0.00    +0.000 A 
ATOM     24  C   UNL     1       1.919   3.313  18.083  0.00  0.00    +0.000 A 
ATOM     25  C   UNL     1       1.772   2.115  18.786  0.00  0.00    +0.000 A 
ATOM     26  C   UNL     1       1.487   2.139  20.148  0.00  0.00    +0.000 A 
ATOM     27  C   UNL     1       1.383   3.357  20.816  0.00  0.00    +0.000 A 
ATOM     28  C   UNL     1       1.545   4.556  20.121  0.00  0.00    +0.000 A 
ENDBRANCH  22  23
ENDBRANCH   1  22
TORSDOF 8
ENDMDL
MODEL 4
REMARK VINA RESULT:      -7.2      2.327      8.092
REMARK  Name = 
REMARK  10 active torsions:
REMARK  status: ('A' for Active; 'I' for Inactive)
REMARK    1  A    between atoms: C_1  and  C_2
REMARK    2  A    between atoms: C_2  and  C_3
REMARK    3  A    between atoms: C_3  and  N_4
REMARK    4  A    between atoms: N_9  and  C_10
REMARK    5  A    between atoms: C_10  and  C_11
REMARK    6  A    between atoms: C_10  and  C_20
REMARK    7  A    between atoms: C_11  and  S_12
REMARK    8  A    between atoms: S_12  and  C_13
REMARK    9  A    between atoms: C_16  and  C_17
REMARK   10  A    between atoms: C_20  and  C_21
REMARK                            x       y       z     vdW  Elec       q    Type
REMARK                         _______ _______ _______ _____ _____    ______ ____
ROOT
ATOM      1  C   UNL     1       3.746   6.591  17.982  0.00  0.00    +0.000 C 
ENDROOT
BRANCH   1   7
ATOM      2  N   UNL     1       6.400   4.177  15.018  0.00  0.00    +0.000 NA
ATOM      3  C   UNL     1       7.224   4.237  16.233  0.00  0.00    +0.000 C 
ATOM      4  C   UNL     1       7.339   5.582  16.950  0.00  0.00    +0.000 C 
ATOM      5  C   UNL     1       6.142   5.880  17.836  0.00  0.00    +0.000 C 
ATOM      6  O   UNL     1       6.254   5.869  19.064  0.00  0.00    +0.000 OA
ATOM      7  N   UNL     1       4.943   6.175  17.200  0.00  0.00    +0.000 N 
ATOM      8  C   UNL     1       4.785   6.021  15.754  0.00  0.00    +0.000 C 
ATOM      9  C   UNL     1       5.005   4.569  15.281  0.00  0.00    +0.000 C 
BRANCH   2  10
ATOM     10  C   UNL     1       6.935   4.879  13.842  0.00  0.00    +0.000 C 
BRANCH  10  12
ATOM     11  C   UNL     1       5.992   3.205  12.152  0.00  0.00    +0.000 C 
ATOM     12  C   UNL     1       7.194   4.025  12.594  0.00  0.00    +0.000 C 
ENDBRANCH  10  12
ENDBRANCH   2  10
ENDBRANCH   1   7
BRANCH   1  13
ATOM     13  C   UNL     1       3.587   8.141  18.138  0.00  0.00    +0.000 C 
BRANCH  13  14
ATOM     14  S   UNL     1       1.850   8.635  17.764  0.00  0.00    +0.000 S 
BRANCH  14  15
ATOM     15  C   UNL     1       1.133   9.220  19.294  0.00  0.00    +0.000 A 
ATOM     16  C   UNL     1       0.309  10.334  19.469  0.00  0.00    +0.000 A 
ATOM     17  C   UNL     1      -0.237  10.625  20.734  0.00  0.00    +0.000 A 
ATOM     18  C   UNL     1       0.031   9.810  21.842  0.00  0.00    +0.000 A 
ATOM     19  C   UNL     1      -0.581  10.067  23.189  0.00  0.00    +0.000 C 
ATOM     20  C   UNL     1       0.866   8.707  21.671  0.00  0.00    +0.000 A 
ATOM     21  C   UNL     1       1.405   8.418  20.415  0.00  0.00    +0.000 A 
ENDBRANCH  14  15
ENDBRANCH  13  14
ENDBRANCH   1  13
BRANCH   1  22
ATOM     22  C   UNL     1       3.696   5.819  19.324  0.00  0.00    +0.000 C 
BRANCH  22  23
ATOM     23  C   UNL     1       2.612   4.767  19.354  0.00  0.00    +0.000 A 
ATOM     24  C   UNL     1       2.132   4.271  20.578  0.00  0.00    +0.000 A 
ATOM     25  C   UNL     1       1.190   3.240  20.603  0.00  0.00    +0.000 A 
ATOM     26  C   UNL     1       0.726   2.695  19.410  0.00  0.00    +0.000 A 
ATOM     27  C   UNL     1       1.175   3.200  18.191  0.00  0.00    +0.000 A 
ATOM     28  C   UNL     1       2.105   4.240  18.162  0.00  0.00    +0.000 A 
ENDBRANCH  22  23
ENDBRANCH   1  22
TORSDOF 8
ENDMDL
MODEL 5
REMARK VINA RESULT:      -7.1      1.782      2.288
REMARK  Name = 
REMARK  10 active torsions:
REMARK  status: ('A' for Active; 'I' for Inactive)
REMARK    1  A    between atoms: C_1  and  C_2
REMARK    2  A    between atoms: C_2  and  C_3
REMARK    3  A    between atoms: C_3  and  N_4
REMARK    4  A    between atoms: N_9  and  C_10
REMARK    5  A    between atoms: C_10  and  C_11
REMARK    6  A    between atoms: C_10  and  C_20
REMARK    7  A    between atoms: C_11  and  S_12
REMARK    8  A    between atoms: S_12  and  C_13
REMARK    9  A    between atoms: C_16  and  C_17
REMARK   10  A    between atoms: C_20  and  C_21
REMARK                            x       y       z     vdW  Elec       q    Type
REMARK                         _______ _______ _______ _____ _____    ______ ____
ROOT
ATOM      1  C   UNL     1       2.628   7.078  18.640  0.00  0.00    +0.000 C 
ENDROOT
BRANCH   1   7
ATOM      2  N   UNL     1       1.010  11.395  19.271  0.00  0.00    +0.000 NA
ATOM      3  C   UNL     1       0.874  10.789  20.602  0.00  0.00    +0.000 C 
ATOM      4  C   UNL     1       0.283   9.382  20.686  0.00  0.00    +0.000 C 
ATOM      5  C   UNL     1       1.301   8.298  20.378  0.00  0.00    +0.000 C 
ATOM      6  O   UNL     1       1.713   7.554  21.270  0.00  0.00    +0.000 OA
ATOM      7  N   UNL     1       1.721   8.182  19.059  0.00  0.00    +0.000 N 
ATOM      8  C   UNL     1       1.353   9.173  18.048  0.00  0.00    +0.000 C 
ATOM      9  C   UNL     1       1.866  10.589  18.386  0.00  0.00    +0.000 C 
BRANCH   2  10
ATOM     10  C   UNL     1      -0.245  11.767  18.601  0.00  0.00    +0.000 C 
BRANCH  10  12
ATOM     11  C   UNL     1      -0.187  14.319  18.774  0.00  0.00    +0.000 C 
ATOM     12  C   UNL     1      -0.939  13.039  19.103  0.00  0.00    +0.000 C 
ENDBRANCH  10  12
ENDBRANCH   2  10
ENDBRANCH   1   7
BRANCH   1  13
ATOM     13  C   UNL     1       3.840   7.540  17.762  0.00  0.00    +0.000 C 
BRANCH  13  14
ATOM     14  S   UNL     1       5.311   6.487  18.119  0.00  0.00    +0.000 S 
BRANCH  14  15
ATOM     15  C   UNL     1       5.598   5.482  16.669  0.00  0.00    +0.000 A 
ATOM     16  C   UNL     1       5.906   4.121  16.632  0.00  0.00    +0.000 A 
ATOM     17  C   UNL     1       6.034   3.452  15.399  0.00  0.00    +0.000 A 
ATOM     18  C   UNL     1       5.857   4.131  14.186  0.00  0.00    +0.000 A 
ATOM     19  C   UNL     1       5.936   3.431  12.860  0.00  0.00    +0.000 C 
ATOM     20  C   UNL     1       5.565   5.494  14.223  0.00  0.00    +0.000 A 
ATOM     21  C   UNL     1       5.436   6.155  15.447  0.00  0.00    +0.000 A 
ENDBRANCH  14  15
ENDBRANCH  13  14
ENDBRANCH   1  13
BRANCH   1  22
ATOM     22  C   UNL     1       1.804   5.926  18.011  0.00  0.00    +0.000 C 
BRANCH  22  23
ATOM     23  C   UNL     1       2.326   4.559  18.389  0.00  0.00    +0.000 A 
ATOM     24  C   UNL     1       2.838   4.320  19.674  0.00  0.00    +0.000 A 
ATOM     25  C   UNL     1       3.396   3.081  19.995  0.00  0.00    +0.000 A 
ATOM     26  C   UNL     1       3.450   2.075  19.035  0.00  0.00    +0.000 A 
ATOM     27  C   UNL     1       2.918   2.294  17.765  0.00  0.00    +0.000 A 
ATOM     28  C   UNL     1       2.347   3.527  17.446  0.00  0.00    +0.000 A 
ENDBRANCH  22  23
ENDBRANCH   1  22
TORSDOF 8
ENDMDL
MODEL 6
REMARK VINA RESULT:      -7.1      1.655      2.435
REMARK  Name = 
REMARK  10 active torsions:
REMARK  status: ('A' for Active; 'I' for Inactive)
REMARK    1  A    between atoms: C_1  and  C_2
REMARK    2  A    between atoms: C_2  and  C_3
REMARK    3  A    between atoms: C_3  and  N_4
REMARK    4  A    between atoms: N_9  and  C_10
REMARK    5  A    between atoms: C_10  and  C_11
REMARK    6  A    between atoms: C_10  and  C_20
REMARK    7  A    between atoms: C_11  and  S_12
REMARK    8  A    between atoms: S_12  and  C_13
REMARK    9  A    between atoms: C_16  and  C_17
REMARK   10  A    between atoms: C_20  and  C_21
REMARK                            x       y       z     vdW  Elec       q    Type
REMARK                         _______ _______ _______ _____ _____    ______ ____
ROOT
ATOM      1  C   UNL     1       2.582   7.257  18.685  0.00  0.00    +0.000 C 
ENDROOT
BRANCH   1   7
ATOM      2  N   UNL     1      -0.559   9.580  21.213  0.00  0.00    +0.000 NA
ATOM      3  C   UNL     1      -0.586  10.279  19.921  0.00  0.00    +0.000 C 
ATOM      4  C   UNL     1       0.753  10.620  19.268  0.00  0.00    +0.000 C 
ATOM      5  C   UNL     1       1.365   9.441  18.534  0.00  0.00    +0.000 C 
ATOM      6  O   UNL     1       1.423   9.431  17.302  0.00  0.00    +0.000 OA
ATOM      7  N   UNL     1       1.862   8.402  19.310  0.00  0.00    +0.000 N 
ATOM      8  C   UNL     1       1.637   8.350  20.754  0.00  0.00    +0.000 C 
ATOM      9  C   UNL     1       0.140   8.288  21.124  0.00  0.00    +0.000 C 
BRANCH   2  10
ATOM     10  C   UNL     1      -0.079  10.365  22.360  0.00  0.00    +0.000 C 
BRANCH  10  12
ATOM     11  C   UNL     1      -2.093  11.727  23.157  0.00  0.00    +0.000 C 
ATOM     12  C   UNL     1      -0.700  11.755  22.548  0.00  0.00    +0.000 C 
ENDBRANCH  10  12
ENDBRANCH   2  10
ENDBRANCH   1   7
BRANCH   1  13
ATOM     13  C   UNL     1       3.537   7.662  17.512  0.00  0.00    +0.000 C 
BRANCH  13  14
ATOM     14  S   UNL     1       5.199   6.905  17.767  0.00  0.00    +0.000 S 
BRANCH  14  15
ATOM     15  C   UNL     1       4.937   5.166  18.088  0.00  0.00    +0.000 A 
ATOM     16  C   UNL     1       5.200   4.477  19.273  0.00  0.00    +0.000 A 
ATOM     17  C   UNL     1       4.871   3.112  19.393  0.00  0.00    +0.000 A 
ATOM     18  C   UNL     1       4.275   2.417  18.333  0.00  0.00    +0.000 A 
ATOM     19  C   UNL     1       3.866   0.977  18.452  0.00  0.00    +0.000 C 
ATOM     20  C   UNL     1       4.027   3.101  17.144  0.00  0.00    +0.000 A 
ATOM     21  C   UNL     1       4.352   4.455  17.028  0.00  0.00    +0.000 A 
ENDBRANCH  14  15
ENDBRANCH  13  14
ENDBRANCH   1  13
BRANCH   1  22
ATOM     22  C   UNL     1       1.576   6.138  18.315  0.00  0.00    +0.000 C 
BRANCH  22  23
ATOM     23  C   UNL     1       1.597   4.986  19.292  0.00  0.00    +0.000 A 
ATOM     24  C   UNL     1       1.015   3.753  18.954  0.00  0.00    +0.000 A 
ATOM     25  C   UNL     1       0.962   2.716  19.888  0.00  0.00    +0.000 A 
ATOM     26  C   UNL     1       1.484   2.904  21.164  0.00  0.00    +0.000 A 
ATOM     27  C   UNL     1       2.089   4.114  21.499  0.00  0.00    +0.000 A 
ATOM     28  C   UNL     1       2.157   5.148  20.563  0.00  0.00    +0.000 A 
ENDBRANCH  22  23
ENDBRANCH   1  22
TORSDOF 8
ENDMDL
MODEL 7
REMARK VINA RESULT:      -7.0      2.298      8.027
REMARK  Name = 
REMARK  10 active torsions:
REMARK  status: ('A' for Active; 'I' for Inactive)
REMARK    1  A    between atoms: C_1  and  C_2
REMARK    2  A    between atoms: C_2  and  C_3
REMARK    3  A    between atoms: C_3  and  N_4
REMARK    4  A    between atoms: N_9  and  C_10
REMARK    5  A    between atoms: C_10  and  C_11
REMARK    6  A    between atoms: C_10  and  C_20
REMARK    7  A    between atoms: C_11  and  S_12
REMARK    8  A    between atoms: S_12  and  C_13
REMARK    9  A    between atoms: C_16  and  C_17
REMARK   10  A    between atoms: C_20  and  C_21
REMARK                            x       y       z     vdW  Elec       q    Type
REMARK                         _______ _______ _______ _____ _____    ______ ____
ROOT
ATOM      1  C   UNL     1       2.849   5.759  17.756  0.00  0.00    +0.000 C 
ENDROOT
BRANCH   1   7
ATOM      2  N   UNL     1       6.882   4.197  16.038  0.00  0.00    +0.000 NA
ATOM      3  C   UNL     1       7.208   4.492  17.440  0.00  0.00    +0.000 C 
ATOM      4  C   UNL     1       6.712   5.815  18.023  0.00  0.00    +0.000 C 
ATOM      5  C   UNL     1       5.256   5.761  18.449  0.00  0.00    +0.000 C 
ATOM      6  O   UNL     1       4.951   5.785  19.644  0.00  0.00    +0.000 OA
ATOM      7  N   UNL     1       4.303   5.700  17.440  0.00  0.00    +0.000 N 
ATOM      8  C   UNL     1       4.682   5.505  16.041  0.00  0.00    +0.000 C 
ATOM      9  C   UNL     1       5.429   4.175  15.805  0.00  0.00    +0.000 C 
BRANCH   2  10
ATOM     10  C   UNL     1       7.569   5.020  15.031  0.00  0.00    +0.000 C 
BRANCH  10  12
ATOM     11  C   UNL     1       8.056   5.538  12.573  0.00  0.00    +0.000 C 
ATOM     12  C   UNL     1       7.228   4.733  13.563  0.00  0.00    +0.000 C 
ENDBRANCH  10  12
ENDBRANCH   2  10
ENDBRANCH   1   7
BRANCH   1  13
ATOM     13  C   UNL     1       2.497   6.634  19.006  0.00  0.00    +0.000 C 
BRANCH  13  14
ATOM     14  S   UNL     1       2.175   8.372  18.484  0.00  0.00    +0.000 S 
BRANCH  14  15
ATOM     15  C   UNL     1       1.213   9.137  19.782  0.00  0.00    +0.000 A 
ATOM     16  C   UNL     1       0.325  10.208  19.657  0.00  0.00    +0.000 A 
ATOM     17  C   UNL     1      -0.416  10.653  20.770  0.00  0.00    +0.000 A 
ATOM     18  C   UNL     1      -0.282  10.038  22.021  0.00  0.00    +0.000 A 
ATOM     19  C   UNL     1      -1.098  10.458  23.210  0.00  0.00    +0.000 C 
ATOM     20  C   UNL     1       0.616   8.979  22.150  0.00  0.00    +0.000 A 
ATOM     21  C   UNL     1       1.349   8.537  21.045  0.00  0.00    +0.000 A 
ENDBRANCH  14  15
ENDBRANCH  13  14
ENDBRANCH   1  13
BRANCH   1  22
ATOM     22  C   UNL     1       2.263   4.326  17.811  0.00  0.00    +0.000 C 
BRANCH  22  23
ATOM     23  C   UNL     1       2.253   3.750  19.208  0.00  0.00    +0.000 A 
ATOM     24  C   UNL     1       3.386   3.095  19.718  0.00  0.00    +0.000 A 
ATOM     25  C   UNL     1       3.347   2.492  20.977  0.00  0.00    +0.000 A 
ATOM     26  C   UNL     1       2.178   2.534  21.732  0.00  0.00    +0.000 A 
ATOM     27  C   UNL     1       1.059   3.207  21.246  0.00  0.00    +0.000 A 
ATOM     28  C   UNL     1       1.098   3.823  19.994  0.00  0.00    +0.000 A 
ENDBRANCH  22  23
ENDBRANCH   1  22
TORSDOF 8
ENDMDL
MODEL 8
REMARK VINA RESULT:      -6.9      2.482      7.474
REMARK  Name = 
REMARK  10 active torsions:
REMARK  status: ('A' for Active; 'I' for Inactive)
REMARK    1  A    between atoms: C_1  and  C_2
REMARK    2  A    between atoms: C_2  and  C_3
REMARK    3  A    between atoms: C_3  and  N_4
REMARK    4  A    between atoms: N_9  and  C_10
REMARK    5  A    between atoms: C_10  and  C_11
REMARK    6  A    between atoms: C_10  and  C_20
REMARK    7  A    between atoms: C_11  and  S_12
REMARK    8  A    between atoms: S_12  and  C_13
REMARK    9  A    between atoms: C_16  and  C_17
REMARK   10  A    between atoms: C_20  and  C_21
REMARK                            x       y       z     vdW  Elec       q    Type
REMARK                         _______ _______ _______ _____ _____    ______ ____
ROOT
ATOM      1  C   UNL     1       2.141   6.306  18.285  0.00  0.00    +0.000 C 
ENDROOT
BRANCH   1   7
ATOM      2  N   UNL     1       6.020   5.714  15.785  0.00  0.00    +0.000 NA
ATOM      3  C   UNL     1       5.295   4.452  15.581  0.00  0.00    +0.000 C 
ATOM      4  C   UNL     1       4.677   3.781  16.807  0.00  0.00    +0.000 C 
ATOM      5  C   UNL     1       3.347   4.395  17.206  0.00  0.00    +0.000 C 
ATOM      6  O   UNL     1       2.296   3.770  17.050  0.00  0.00    +0.000 OA
ATOM      7  N   UNL     1       3.380   5.669  17.760  0.00  0.00    +0.000 N 
ATOM      8  C   UNL     1       4.609   6.461  17.785  0.00  0.00    +0.000 C 
ATOM      9  C   UNL     1       5.160   6.753  16.372  0.00  0.00    +0.000 C 
BRANCH   2  10
ATOM     10  C   UNL     1       7.298   5.613  16.506  0.00  0.00    +0.000 C 
BRANCH  10  12
ATOM     11  C   UNL     1       7.986   6.213  18.896  0.00  0.00    +0.000 C 
ATOM     12  C   UNL     1       7.605   6.726  17.516  0.00  0.00    +0.000 C 
ENDBRANCH  10  12
ENDBRANCH   2  10
ENDBRANCH   1   7
BRANCH   1  13
ATOM     13  C   UNL     1       1.825   7.708  17.662  0.00  0.00    +0.000 C 
BRANCH  13  14
ATOM     14  S   UNL     1       1.982   9.017  18.950  0.00  0.00    +0.000 S 
BRANCH  14  15
ATOM     15  C   UNL     1       0.400   9.844  19.049  0.00  0.00    +0.000 A 
ATOM     16  C   UNL     1      -0.101  10.584  20.122  0.00  0.00    +0.000 A 
ATOM     17  C   UNL     1      -1.345  11.238  20.019  0.00  0.00    +0.000 A 
ATOM     18  C   UNL     1      -2.106  11.163  18.844  0.00  0.00    +0.000 A 
ATOM     19  C   UNL     1      -3.409  11.893  18.689  0.00  0.00    +0.000 C 
ATOM     20  C   UNL     1      -1.613  10.411  17.779  0.00  0.00    +0.000 A 
ATOM     21  C   UNL     1      -0.378   9.765  17.882  0.00  0.00    +0.000 A 
ENDBRANCH  14  15
ENDBRANCH  13  14
ENDBRANCH   1  13
BRANCH   1  22
ATOM     22  C   UNL     1       2.160   6.301  19.834  0.00  0.00    +0.000 C 
BRANCH  22  23
ATOM     23  C   UNL     1       1.848   4.943  20.419  0.00  0.00    +0.000 A 
ATOM     24  C   UNL     1       2.622   4.422  21.468  0.00  0.00    +0.000 A 
ATOM     25  C   UNL     1       2.384   3.133  21.950  0.00  0.00    +0.000 A 
ATOM     26  C   UNL     1       1.378   2.355  21.387  0.00  0.00    +0.000 A 
ATOM     27  C   UNL     1       0.586   2.875  20.364  0.00  0.00    +0.000 A 
ATOM     28  C   UNL     1       0.811   4.167  19.890  0.00  0.00    +0.000 A 
ENDBRANCH  22  23
ENDBRANCH   1  22
TORSDOF 8
ENDMDL
MODEL 9
REMARK VINA RESULT:      -6.9      0.905      1.354
REMARK  Name = 
REMARK  10 active torsions:
REMARK  status: ('A' for Active; 'I' for Inactive)
REMARK    1  A    between atoms: C_1  and  C_2
REMARK    2  A    between atoms: C_2  and  C_3
REMARK    3  A    between atoms: C_3  and  N_4
REMARK    4  A    between atoms: N_9  and  C_10
REMARK    5  A    between atoms: C_10  and  C_11
REMARK    6  A    between atoms: C_10  and  C_20
REMARK    7  A    between atoms: C_11  and  S_12
REMARK    8  A    between atoms: S_12  and  C_13
REMARK    9  A    between atoms: C_16  and  C_17
REMARK   10  A    between atoms: C_20  and  C_21
REMARK                            x       y       z     vdW  Elec       q    Type
REMARK                         _______ _______ _______ _____ _____    ______ ____
ROOT
ATOM      1  C   UNL     1       2.672   6.687  19.292  0.00  0.00    +0.000 C 
ENDROOT
BRANCH   1   7
ATOM      2  N   UNL     1      -0.455   9.681  20.997  0.00  0.00    +0.000 NA
ATOM      3  C   UNL     1      -0.261  10.150  19.618  0.00  0.00    +0.000 C 
ATOM      4  C   UNL     1       1.172  10.252  19.096  0.00  0.00    +0.000 C 
ATOM      5  C   UNL     1       1.728   8.914  18.642  0.00  0.00    +0.000 C 
ATOM      6  O   UNL     1       1.921   8.689  17.445  0.00  0.00    +0.000 OA
ATOM      7  N   UNL     1       2.018   7.982  19.630  0.00  0.00    +0.000 N 
ATOM      8  C   UNL     1       1.630   8.197  21.023  0.00  0.00    +0.000 C 
ATOM      9  C   UNL     1       0.103   8.335  21.204  0.00  0.00    +0.000 C 
BRANCH   2  10
ATOM     10  C   UNL     1      -0.021  10.604  22.057  0.00  0.00    +0.000 C 
BRANCH  10  12
ATOM     11  C   UNL     1      -2.073  12.121  22.244  0.00  0.00    +0.000 C 
ATOM     12  C   UNL     1      -1.121  11.176  22.961  0.00  0.00    +0.000 C 
ENDBRANCH  10  12
ENDBRANCH   2  10
ENDBRANCH   1   7
BRANCH   1  13
ATOM     13  C   UNL     1       3.415   6.683  17.913  0.00  0.00    +0.000 C 
BRANCH  13  14
ATOM     14  S   UNL     1       5.128   6.036  18.125  0.00  0.00    +0.000 S 
BRANCH  14  15
ATOM     15  C   UNL     1       5.657   5.428  16.530  0.00  0.00    +0.000 A 
ATOM     16  C   UNL     1       6.919   5.569  15.948  0.00  0.00    +0.000 A 
ATOM     17  C   UNL     1       7.202   4.967  14.706  0.00  0.00    +0.000 A 
ATOM     18  C   UNL     1       6.232   4.218  14.027  0.00  0.00    +0.000 A 
ATOM     19  C   UNL     1       6.525   3.523  12.728  0.00  0.00    +0.000 C 
ATOM     20  C   UNL     1       4.968   4.090  14.600  0.00  0.00    +0.000 A 
ATOM     21  C   UNL     1       4.689   4.685  15.833  0.00  0.00    +0.000 A 
ENDBRANCH  14  15
ENDBRANCH  13  14
ENDBRANCH   1  13
BRANCH   1  22
ATOM     22  C   UNL     1       1.662   5.524  19.461  0.00  0.00    +0.000 C 
BRANCH  22  23
ATOM     23  C   UNL     1       2.266   4.175  19.150  0.00  0.00    +0.000 A 
ATOM     24  C   UNL     1       3.278   3.640  19.964  0.00  0.00    +0.000 A 
ATOM     25  C   UNL     1       3.892   2.432  19.628  0.00  0.00    +0.000 A 
ATOM     26  C   UNL     1       3.505   1.753  18.477  0.00  0.00    +0.000 A 
ATOM     27  C   UNL     1       2.482   2.261  17.679  0.00  0.00    +0.000 A 
ATOM     28  C   UNL     1       1.856   3.461  18.019  0.00  0.00    +0.000 A 
ENDBRANCH  22  23
ENDBRANCH   1  22
TORSDOF 8
ENDMDL
