MODEL 1
REMARK VINA RESULT:      -8.5      0.000      0.000
REMARK  Name = 
REMARK  8 active torsions:
REMARK  status: ('A' for Active; 'I' for Inactive)
REMARK    1  A    between atoms: C_1  and  O_2
REMARK    2  A    between atoms: O_2  and  C_3
REMARK    3  A    between atoms: C_6  and  C_7
REMARK    4  A    between atoms: C_7  and  N_8
REMARK    5  A    between atoms: C_13  and  C_14
REMARK    6  A    between atoms: N_16  and  C_17
REMARK    7  A    between atoms: C_17  and  C_18
REMARK    8  A    between atoms: C_18  and  C_19
REMARK                            x       y       z     vdW  Elec       q    Type
REMARK                         _______ _______ _______ _____ _____    ______ ____
ROOT
ATOM      1  N   UNL     1       3.218   5.107  18.416  0.00  0.00    +0.000 N 
ATOM      2  C   UNL     1       2.181   4.217  18.206  0.00  0.00    +0.000 C 
ATOM      3  O   UNL     1       1.250   4.362  17.431  0.00  0.00    +0.000 OA
ATOM      4  C   UNL     1       2.362   3.051  19.142  0.00  0.00    +0.000 C 
ATOM      5  C   UNL     1       3.827   3.142  19.536  0.00  0.00    +0.000 C 
ATOM      6  C   UNL     1       4.175   4.623  19.403  0.00  0.00    +0.000 C 
ENDROOT
BRANCH   6   7
ATOM      7  C   UNL     1       5.632   4.775  18.935  0.00  0.00    +0.000 C 
ATOM      8  O   UNL     1       6.505   5.227  19.674  0.00  0.00    +0.000 OA
ATOM      9  N   UNL     1       5.902   4.225  17.695  0.00  0.00    +0.000 N 
ATOM     10  H   UNL     1       5.104   3.988  17.117  0.00  0.00    +0.000 HD
BRANCH   9  11
ATOM     11  C   UNL     1       7.197   4.401  17.062  0.00  0.00    +0.000 C 
BRANCH  11  12
ATOM     12  C   UNL     1       7.169   5.503  16.004  0.00  0.00    +0.000 C 
BRANCH  12  13
ATOM     13  C   UNL     1       6.964   4.941  14.621  0.00  0.00    +0.000 A 
ATOM     14  C   UNL     1       5.961   3.989  14.391  0.00  0.00    +0.000 A 
ATOM     15  C   UNL     1       5.786   3.437  13.121  0.00  0.00    +0.000 A 
ATOM     16  C   UNL     1       6.614   3.828  12.071  0.00  0.00    +0.000 A 
ATOM     17  C   UNL     1       7.616   4.772  12.289  0.00  0.00    +0.000 A 
ATOM     18  C   UNL     1       7.792   5.326  13.559  0.00  0.00    +0.000 A 
ENDBRANCH  12  13
ENDBRANCH  11  12
ENDBRANCH   9  11
ENDBRANCH   6   7
BRANCH   1  19
ATOM     19  C   UNL     1       3.218   6.469  17.905  0.00  0.00    +0.000 C 
BRANCH  19  23
ATOM     20  C   UNL     1       0.955   9.366  20.183  0.00  0.00    +0.000 A 
ATOM     21  C   UNL     1       1.383   8.179  20.779  0.00  0.00    +0.000 A 
ATOM     22  C   UNL     1       2.088   7.222  20.042  0.00  0.00    +0.000 A 
ATOM     23  C   UNL     1       2.366   7.438  18.686  0.00  0.00    +0.000 A 
ATOM     24  C   UNL     1       1.886   8.608  18.081  0.00  0.00    +0.000 A 
ATOM     25  C   UNL     1       1.192   9.570  18.825  0.00  0.00    +0.000 A 
BRANCH  20  27
ATOM     26  C   UNL     1      -0.044   9.721  22.298  0.00  0.00    +0.000 C 
ATOM     27  O   UNL     1       0.292  10.231  21.011  0.00  0.00    +0.000 OA
ENDBRANCH  20  27
ENDBRANCH  19  23
ENDBRANCH   1  19
TORSDOF 7
ENDMDL
MODEL 2
REMARK VINA RESULT:      -8.4      2.504      6.926
REMARK  Name = 
REMARK  8 active torsions:
REMARK  status: ('A' for Active; 'I' for Inactive)
REMARK    1  A    between atoms: C_1  and  O_2
REMARK    2  A    between atoms: O_2  and  C_3
REMARK    3  A    between atoms: C_6  and  C_7
REMARK    4  A    between atoms: C_7  and  N_8
REMARK    5  A    between atoms: C_13  and  C_14
REMARK    6  A    between atoms: N_16  and  C_17
REMARK    7  A    between atoms: C_17  and  C_18
REMARK    8  A    between atoms: C_18  and  C_19
REMARK                            x       y       z     vdW  Elec       q    Type
REMARK                         _______ _______ _______ _____ _____    ______ ____
ROOT
ATOM      1  N   UNL     1       2.841   2.768  19.489  0.00  0.00    +0.000 N 
ATOM      2  C   UNL     1       2.952   2.594  20.856  0.00  0.00    +0.000 C 
ATOM      3  O   UNL     1       3.960   2.275  21.465  0.00  0.00    +0.000 OA
ATOM      4  C   UNL     1       1.594   2.811  21.470  0.00  0.00    +0.000 C 
ATOM      5  C   UNL     1       0.842   3.583  20.398  0.00  0.00    +0.000 C 
ATOM      6  C   UNL     1       1.498   3.162  19.085  0.00  0.00    +0.000 C 
ENDROOT
BRANCH   6   7
ATOM      7  C   UNL     1       1.501   4.346  18.102  0.00  0.00    +0.000 C 
ATOM      8  O   UNL     1       0.878   4.309  17.042  0.00  0.00    +0.000 OA
ATOM      9  N   UNL     1       2.121   5.488  18.574  0.00  0.00    +0.000 N 
ATOM     10  H   UNL     1       2.706   5.384  19.396  0.00  0.00    +0.000 HD
BRANCH   9  11
ATOM     11  C   UNL     1       2.319   6.643  17.717  0.00  0.00    +0.000 C 
BRANCH  11  12
ATOM     12  C   UNL     1       2.812   7.858  18.503  0.00  0.00    +0.000 C 
BRANCH  12  13
ATOM     13  C   UNL     1       1.668   8.726  18.958  0.00  0.00    +0.000 A 
ATOM     14  C   UNL     1       1.236   8.677  20.291  0.00  0.00    +0.000 A 
ATOM     15  C   UNL     1       0.156   9.452  20.714  0.00  0.00    +0.000 A 
ATOM     16  C   UNL     1      -0.506  10.280  19.810  0.00  0.00    +0.000 A 
ATOM     17  C   UNL     1      -0.086  10.335  18.482  0.00  0.00    +0.000 A 
ATOM     18  C   UNL     1       0.996   9.561  18.056  0.00  0.00    +0.000 A 
ENDBRANCH  12  13
ENDBRANCH  11  12
ENDBRANCH   9  11
ENDBRANCH   6   7
BRANCH   1  19
ATOM     19  C   UNL     1       3.871   2.359  18.546  0.00  0.00    +0.000 C 
BRANCH  19  23
ATOM     20  C   UNL     1       6.465   5.439  16.968  0.00  0.00    +0.000 A 
ATOM     21  C   UNL     1       6.368   5.237  18.346  0.00  0.00    +0.000 A 
ATOM     22  C   UNL     1       5.508   4.264  18.866  0.00  0.00    +0.000 A 
ATOM     23  C   UNL     1       4.720   3.484  18.010  0.00  0.00    +0.000 A 
ATOM     24  C   UNL     1       4.784   3.730  16.631  0.00  0.00    +0.000 A 
ATOM     25  C   UNL     1       5.655   4.696  16.112  0.00  0.00    +0.000 A 
BRANCH  20  27
ATOM     26  C   UNL     1       7.552   7.470  17.505  0.00  0.00    +0.000 C 
ATOM     27  O   UNL     1       7.353   6.405  16.581  0.00  0.00    +0.000 OA
ENDBRANCH  20  27
ENDBRANCH  19  23
ENDBRANCH   1  19
TORSDOF 7
ENDMDL
MODEL 3
REMARK VINA RESULT:      -8.4      0.525      1.092
REMARK  Name = 
REMARK  8 active torsions:
REMARK  status: ('A' for Active; 'I' for Inactive)
REMARK    1  A    between atoms: C_1  and  O_2
REMARK    2  A    between atoms: O_2  and  C_3
REMARK    3  A    between atoms: C_6  and  C_7
REMARK    4  A    between atoms: C_7  and  N_8
REMARK    5  A    between atoms: C_13  and  C_14
REMARK    6  A    between atoms: N_16  and  C_17
REMARK    7  A    between atoms: C_17  and  C_18
REMARK    8  A    between atoms: C_18  and  C_19
REMARK                            x       y       z     vdW  Elec       q    Type
REMARK                         _______ _______ _______ _____ _____    ______ ____
ROOT
ATOM      1  N   UNL     1       3.151   5.009  18.424  0.00  0.00    +0.000 N 
ATOM      2  C   UNL     1       2.132   4.080  18.322  0.00  0.00    +0.000 C 
ATOM      3  O   UNL     1       1.191   4.121  17.545  0.00  0.00    +0.000 OA
ATOM      4  C   UNL     1       2.346   3.028  19.378  0.00  0.00    +0.000 C 
ATOM      5  C   UNL     1       3.812   3.191  19.745  0.00  0.00    +0.000 C 
ATOM      6  C   UNL     1       4.126   4.656  19.447  0.00  0.00    +0.000 C 
ENDROOT
BRANCH   6   7
ATOM      7  C   UNL     1       5.576   4.787  18.950  0.00  0.00    +0.000 C 
ATOM      8  O   UNL     1       6.467   5.241  19.667  0.00  0.00    +0.000 OA
ATOM      9  N   UNL     1       5.817   4.217  17.714  0.00  0.00    +0.000 N 
ATOM     10  H   UNL     1       5.006   3.980  17.154  0.00  0.00    +0.000 HD
BRANCH   9  11
ATOM     11  C   UNL     1       7.101   4.371  17.054  0.00  0.00    +0.000 C 
BRANCH  11  12
ATOM     12  C   UNL     1       7.076   5.487  16.010  0.00  0.00    +0.000 C 
BRANCH  12  13
ATOM     13  C   UNL     1       6.911   4.940  14.616  0.00  0.00    +0.000 A 
ATOM     14  C   UNL     1       5.919   3.987  14.348  0.00  0.00    +0.000 A 
ATOM     15  C   UNL     1       5.780   3.449  13.068  0.00  0.00    +0.000 A 
ATOM     16  C   UNL     1       6.634   3.855  12.045  0.00  0.00    +0.000 A 
ATOM     17  C   UNL     1       7.626   4.800  12.301  0.00  0.00    +0.000 A 
ATOM     18  C   UNL     1       7.766   5.340  13.581  0.00  0.00    +0.000 A 
ENDBRANCH  12  13
ENDBRANCH  11  12
ENDBRANCH   9  11
ENDBRANCH   6   7
BRANCH   1  19
ATOM     19  C   UNL     1       3.116   6.307  17.767  0.00  0.00    +0.000 C 
BRANCH  19  23
ATOM     20  C   UNL     1       0.983   9.334  20.002  0.00  0.00    +0.000 A 
ATOM     21  C   UNL     1       1.301   9.542  18.659  0.00  0.00    +0.000 A 
ATOM     22  C   UNL     1       2.018   8.582  17.937  0.00  0.00    +0.000 A 
ATOM     23  C   UNL     1       2.439   7.398  18.557  0.00  0.00    +0.000 A 
ATOM     24  C   UNL     1       2.164   7.221  19.920  0.00  0.00    +0.000 A 
ATOM     25  C   UNL     1       1.434   8.178  20.637  0.00  0.00    +0.000 A 
BRANCH  20  27
ATOM     26  C   UNL     1       0.904  11.605  20.656  0.00  0.00    +0.000 C 
ATOM     27  O   UNL     1       0.263  10.335  20.595  0.00  0.00    +0.000 OA
ENDBRANCH  20  27
ENDBRANCH  19  23
ENDBRANCH   1  19
TORSDOF 7
ENDMDL
MODEL 4
REMARK VINA RESULT:      -8.2      1.394      2.068
REMARK  Name = 
REMARK  8 active torsions:
REMARK  status: ('A' for Active; 'I' for Inactive)
REMARK    1  A    between atoms: C_1  and  O_2
REMARK    2  A    between atoms: O_2  and  C_3
REMARK    3  A    between atoms: C_6  and  C_7
REMARK    4  A    between atoms: C_7  and  N_8
REMARK    5  A    between atoms: C_13  and  C_14
REMARK    6  A    between atoms: N_16  and  C_17
REMARK    7  A    between atoms: C_17  and  C_18
REMARK    8  A    between atoms: C_18  and  C_19
REMARK                            x       y       z     vdW  Elec       q    Type
REMARK                         _______ _______ _______ _____ _____    ______ ____
ROOT
ATOM      1  N   UNL     1       2.682   4.720  18.555  0.00  0.00    +0.000 N 
ATOM      2  C   UNL     1       1.580   3.941  18.258  0.00  0.00    +0.000 C 
ATOM      3  O   UNL     1       0.832   4.080  17.303  0.00  0.00    +0.000 OA
ATOM      4  C   UNL     1       1.418   2.916  19.349  0.00  0.00    +0.000 C 
ATOM      5  C   UNL     1       2.787   2.886  20.008  0.00  0.00    +0.000 C 
ATOM      6  C   UNL     1       3.367   4.277  19.762  0.00  0.00    +0.000 C 
ENDROOT
BRANCH   6   7
ATOM      7  C   UNL     1       4.891   4.179  19.573  0.00  0.00    +0.000 C 
ATOM      8  O   UNL     1       5.447   3.106  19.346  0.00  0.00    +0.000 OA
ATOM      9  N   UNL     1       5.547   5.395  19.523  0.00  0.00    +0.000 N 
ATOM     10  H   UNL     1       5.028   6.207  19.840  0.00  0.00    +0.000 HD
BRANCH   9  11
ATOM     11  C   UNL     1       6.996   5.465  19.480  0.00  0.00    +0.000 C 
BRANCH  11  12
ATOM     12  C   UNL     1       7.493   6.248  18.266  0.00  0.00    +0.000 C 
BRANCH  12  13
ATOM     13  C   UNL     1       6.876   5.742  16.987  0.00  0.00    +0.000 A 
ATOM     14  C   UNL     1       5.945   6.530  16.297  0.00  0.00    +0.000 A 
ATOM     15  C   UNL     1       5.343   6.056  15.131  0.00  0.00    +0.000 A 
ATOM     16  C   UNL     1       5.662   4.790  14.646  0.00  0.00    +0.000 A 
ATOM     17  C   UNL     1       6.586   3.997  15.325  0.00  0.00    +0.000 A 
ATOM     18  C   UNL     1       7.190   4.470  16.493  0.00  0.00    +0.000 A 
ENDBRANCH  12  13
ENDBRANCH  11  12
ENDBRANCH   9  11
ENDBRANCH   6   7
BRANCH   1  19
ATOM     19  C   UNL     1       2.973   5.980  17.888  0.00  0.00    +0.000 C 
BRANCH  19  23
ATOM     20  C   UNL     1       1.097   9.385  19.782  0.00  0.00    +0.000 A 
ATOM     21  C   UNL     1       1.414   9.420  18.423  0.00  0.00    +0.000 A 
ATOM     22  C   UNL     1       2.049   8.335  17.809  0.00  0.00    +0.000 A 
ATOM     23  C   UNL     1       2.388   7.199  18.555  0.00  0.00    +0.000 A 
ATOM     24  C   UNL     1       2.116   7.193  19.930  0.00  0.00    +0.000 A 
ATOM     25  C   UNL     1       1.467   8.275  20.539  0.00  0.00    +0.000 A 
BRANCH  20  27
ATOM     26  C   UNL     1      -0.129  10.363  21.553  0.00  0.00    +0.000 C 
ATOM     27  O   UNL     1       0.460  10.496  20.263  0.00  0.00    +0.000 OA
ENDBRANCH  20  27
ENDBRANCH  19  23
ENDBRANCH   1  19
TORSDOF 7
ENDMDL
MODEL 5
REMARK VINA RESULT:      -8.2      4.235      6.154
REMARK  Name = 
REMARK  8 active torsions:
REMARK  status: ('A' for Active; 'I' for Inactive)
REMARK    1  A    between atoms: C_1  and  O_2
REMARK    2  A    between atoms: O_2  and  C_3
REMARK    3  A    between atoms: C_6  and  C_7
REMARK    4  A    between atoms: C_7  and  N_8
REMARK    5  A    between atoms: C_13  and  C_14
REMARK    6  A    between atoms: N_16  and  C_17
REMARK    7  A    between atoms: C_17  and  C_18
REMARK    8  A    between atoms: C_18  and  C_19
REMARK                            x       y       z     vdW  Elec       q    Type
REMARK                         _______ _______ _______ _____ _____    ______ ____
ROOT
ATOM      1  N   UNL     1       5.677   5.863  16.777  0.00  0.00    +0.000 N 
ATOM      2  C   UNL     1       5.776   5.448  15.463  0.00  0.00    +0.000 C 
ATOM      3  O   UNL     1       5.156   5.901  14.513  0.00  0.00    +0.000 OA
ATOM      4  C   UNL     1       6.743   4.296  15.402  0.00  0.00    +0.000 C 
ATOM      5  C   UNL     1       7.524   4.425  16.700  0.00  0.00    +0.000 C 
ATOM      6  C   UNL     1       6.565   5.122  17.663  0.00  0.00    +0.000 C 
ENDROOT
BRANCH   6   7
ATOM      7  C   UNL     1       7.355   6.041  18.610  0.00  0.00    +0.000 C 
ATOM      8  O   UNL     1       7.630   5.703  19.760  0.00  0.00    +0.000 OA
ATOM      9  N   UNL     1       7.856   7.187  18.020  0.00  0.00    +0.000 N 
ATOM     10  H   UNL     1       7.478   7.436  17.112  0.00  0.00    +0.000 HD
BRANCH   9  11
ATOM     11  C   UNL     1       8.510   8.214  18.810  0.00  0.00    +0.000 C 
BRANCH  11  12
ATOM     12  C   UNL     1       8.422   9.588  18.147  0.00  0.00    +0.000 C 
BRANCH  12  13
ATOM     13  C   UNL     1       9.417  10.554  18.734  0.00  0.00    +0.000 A 
ATOM     14  C   UNL     1      10.369  11.170  17.910  0.00  0.00    +0.000 A 
ATOM     15  C   UNL     1      11.316  12.040  18.450  0.00  0.00    +0.000 A 
ATOM     16  C   UNL     1      11.325  12.300  19.819  0.00  0.00    +0.000 A 
ATOM     17  C   UNL     1      10.385  11.691  20.648  0.00  0.00    +0.000 A 
ATOM     18  C   UNL     1       9.435  10.820  20.109  0.00  0.00    +0.000 A 
ENDBRANCH  12  13
ENDBRANCH  11  12
ENDBRANCH   9  11
ENDBRANCH   6   7
BRANCH   1  19
ATOM     19  C   UNL     1       4.631   6.753  17.257  0.00  0.00    +0.000 C 
BRANCH  19  23
ATOM     20  C   UNL     1       1.779   4.804  19.860  0.00  0.00    +0.000 A 
ATOM     21  C   UNL     1       2.296   4.132  18.752  0.00  0.00    +0.000 A 
ATOM     22  C   UNL     1       3.195   4.765  17.887  0.00  0.00    +0.000 A 
ATOM     23  C   UNL     1       3.581   6.092  18.115  0.00  0.00    +0.000 A 
ATOM     24  C   UNL     1       3.015   6.778  19.199  0.00  0.00    +0.000 A 
ATOM     25  C   UNL     1       2.126   6.137  20.071  0.00  0.00    +0.000 A 
BRANCH  20  27
ATOM     26  C   UNL     1       1.226   2.687  20.758  0.00  0.00    +0.000 C 
ATOM     27  O   UNL     1       0.925   4.074  20.641  0.00  0.00    +0.000 OA
ENDBRANCH  20  27
ENDBRANCH  19  23
ENDBRANCH   1  19
TORSDOF 7
ENDMDL
MODEL 6
REMARK VINA RESULT:      -8.2      1.470      2.135
REMARK  Name = 
REMARK  8 active torsions:
REMARK  status: ('A' for Active; 'I' for Inactive)
REMARK    1  A    between atoms: C_1  and  O_2
REMARK    2  A    between atoms: O_2  and  C_3
REMARK    3  A    between atoms: C_6  and  C_7
REMARK    4  A    between atoms: C_7  and  N_8
REMARK    5  A    between atoms: C_13  and  C_14
REMARK    6  A    between atoms: N_16  and  C_17
REMARK    7  A    between atoms: C_17  and  C_18
REMARK    8  A    between atoms: C_18  and  C_19
REMARK                            x       y       z     vdW  Elec       q    Type
REMARK                         _______ _______ _______ _____ _____    ______ ____
ROOT
ATOM      1  N   UNL     1       2.658   4.742  18.536  0.00  0.00    +0.000 N 
ATOM      2  C   UNL     1       1.555   3.976  18.210  0.00  0.00    +0.000 C 
ATOM      3  O   UNL     1       0.826   4.132  17.244  0.00  0.00    +0.000 OA
ATOM      4  C   UNL     1       1.367   2.938  19.285  0.00  0.00    +0.000 C 
ATOM      5  C   UNL     1       2.724   2.890  19.968  0.00  0.00    +0.000 C 
ATOM      6  C   UNL     1       3.318   4.280  19.749  0.00  0.00    +0.000 C 
ENDROOT
BRANCH   6   7
ATOM      7  C   UNL     1       4.844   4.173  19.586  0.00  0.00    +0.000 C 
ATOM      8  O   UNL     1       5.401   3.092  19.399  0.00  0.00    +0.000 OA
ATOM      9  N   UNL     1       5.504   5.386  19.512  0.00  0.00    +0.000 N 
ATOM     10  H   UNL     1       4.983   6.208  19.797  0.00  0.00    +0.000 HD
BRANCH   9  11
ATOM     11  C   UNL     1       6.954   5.451  19.488  0.00  0.00    +0.000 C 
BRANCH  11  12
ATOM     12  C   UNL     1       7.472   6.194  18.257  0.00  0.00    +0.000 C 
BRANCH  12  13
ATOM     13  C   UNL     1       6.820   5.697  16.993  0.00  0.00    +0.000 A 
ATOM     14  C   UNL     1       7.148   4.433  16.484  0.00  0.00    +0.000 A 
ATOM     15  C   UNL     1       6.575   3.977  15.296  0.00  0.00    +0.000 A 
ATOM     16  C   UNL     1       5.674   4.782  14.603  0.00  0.00    +0.000 A 
ATOM     17  C   UNL     1       5.342   6.042  15.099  0.00  0.00    +0.000 A 
ATOM     18  C   UNL     1       5.914   6.500  16.289  0.00  0.00    +0.000 A 
ENDBRANCH  12  13
ENDBRANCH  11  12
ENDBRANCH   9  11
ENDBRANCH   6   7
BRANCH   1  19
ATOM     19  C   UNL     1       2.970   6.008  17.889  0.00  0.00    +0.000 C 
BRANCH  19  23
ATOM     20  C   UNL     1       1.082   9.402  19.794  0.00  0.00    +0.000 A 
ATOM     21  C   UNL     1       1.402   9.443  18.436  0.00  0.00    +0.000 A 
ATOM     22  C   UNL     1       2.041   8.362  17.819  0.00  0.00    +0.000 A 
ATOM     23  C   UNL     1       2.381   7.223  18.560  0.00  0.00    +0.000 A 
ATOM     24  C   UNL     1       2.104   7.212  19.935  0.00  0.00    +0.000 A 
ATOM     25  C   UNL     1       1.452   8.289  20.547  0.00  0.00    +0.000 A 
BRANCH  20  27
ATOM     26  C   UNL     1       0.903  11.760  19.774  0.00  0.00    +0.000 C 
ATOM     27  O   UNL     1       0.442  10.510  20.277  0.00  0.00    +0.000 OA
ENDBRANCH  20  27
ENDBRANCH  19  23
ENDBRANCH   1  19
TORSDOF 7
ENDMDL
MODEL 7
REMARK VINA RESULT:      -8.1      4.189      6.157
REMARK  Name = 
REMARK  8 active torsions:
REMARK  status: ('A' for Active; 'I' for Inactive)
REMARK    1  A    between atoms: C_1  and  O_2
REMARK    2  A    between atoms: O_2  and  C_3
REMARK    3  A    between atoms: C_6  and  C_7
REMARK    4  A    between atoms: C_7  and  N_8
REMARK    5  A    between atoms: C_13  and  C_14
REMARK    6  A    between atoms: N_16  and  C_17
REMARK    7  A    between atoms: C_17  and  C_18
REMARK    8  A    between atoms: C_18  and  C_19
REMARK                            x       y       z     vdW  Elec       q    Type
REMARK                         _______ _______ _______ _____ _____    ______ ____
ROOT
ATOM      1  N   UNL     1       5.558   5.569  16.989  0.00  0.00    +0.000 N 
ATOM      2  C   UNL     1       5.606   5.101  15.689  0.00  0.00    +0.000 C 
ATOM      3  O   UNL     1       4.882   5.447  14.769  0.00  0.00    +0.000 OA
ATOM      4  C   UNL     1       6.671   4.040  15.608  0.00  0.00    +0.000 C 
ATOM      5  C   UNL     1       7.524   4.304  16.839  0.00  0.00    +0.000 C 
ATOM      6  C   UNL     1       6.572   4.957  17.838  0.00  0.00    +0.000 C 
ENDROOT
BRANCH   6   7
ATOM      7  C   UNL     1       7.335   5.991  18.684  0.00  0.00    +0.000 C 
ATOM      8  O   UNL     1       7.628   5.775  19.859  0.00  0.00    +0.000 OA
ATOM      9  N   UNL     1       7.791   7.091  17.981  0.00  0.00    +0.000 N 
ATOM     10  H   UNL     1       7.398   7.237  17.058  0.00  0.00    +0.000 HD
BRANCH   9  11
ATOM     11  C   UNL     1       8.413   8.211  18.662  0.00  0.00    +0.000 C 
BRANCH  11  12
ATOM     12  C   UNL     1       8.329   9.497  17.841  0.00  0.00    +0.000 C 
BRANCH  12  13
ATOM     13  C   UNL     1       8.987  10.653  18.549  0.00  0.00    +0.000 A 
ATOM     14  C   UNL     1       9.533  10.475  19.827  0.00  0.00    +0.000 A 
ATOM     15  C   UNL     1      10.114  11.548  20.504  0.00  0.00    +0.000 A 
ATOM     16  C   UNL     1      10.150  12.809  19.913  0.00  0.00    +0.000 A 
ATOM     17  C   UNL     1       9.608  12.997  18.643  0.00  0.00    +0.000 A 
ATOM     18  C   UNL     1       9.026  11.925  17.963  0.00  0.00    +0.000 A 
ENDBRANCH  12  13
ENDBRANCH  11  12
ENDBRANCH   9  11
ENDBRANCH   6   7
BRANCH   1  19
ATOM     19  C   UNL     1       4.468   6.383  17.505  0.00  0.00    +0.000 C 
BRANCH  19  23
ATOM     20  C   UNL     1       1.695   4.061  19.877  0.00  0.00    +0.000 A 
ATOM     21  C   UNL     1       1.581   4.090  18.486  0.00  0.00    +0.000 A 
ATOM     22  C   UNL     1       2.454   4.863  17.713  0.00  0.00    +0.000 A 
ATOM     23  C   UNL     1       3.452   5.631  18.327  0.00  0.00    +0.000 A 
ATOM     24  C   UNL     1       3.525   5.639  19.727  0.00  0.00    +0.000 A 
ATOM     25  C   UNL     1       2.658   4.854  20.497  0.00  0.00    +0.000 A 
BRANCH  20  27
ATOM     26  C   UNL     1       1.270   2.624  21.707  0.00  0.00    +0.000 C 
ATOM     27  O   UNL     1       0.797   3.254  20.520  0.00  0.00    +0.000 OA
ENDBRANCH  20  27
ENDBRANCH  19  23
ENDBRANCH   1  19
TORSDOF 7
ENDMDL
MODEL 8
REMARK VINA RESULT:      -8.1      2.600      7.207
REMARK  Name = 
REMARK  8 active torsions:
REMARK  status: ('A' for Active; 'I' for Inactive)
REMARK    1  A    between atoms: C_1  and  O_2
REMARK    2  A    between atoms: O_2  and  C_3
REMARK    3  A    between atoms: C_6  and  C_7
REMARK    4  A    between atoms: C_7  and  N_8
REMARK    5  A    between atoms: C_13  and  C_14
REMARK    6  A    between atoms: N_16  and  C_17
REMARK    7  A    between atoms: C_17  and  C_18
REMARK    8  A    between atoms: C_18  and  C_19
REMARK                            x       y       z     vdW  Elec       q    Type
REMARK                         _______ _______ _______ _____ _____    ______ ____
ROOT
ATOM      1  N   UNL     1       2.970   3.572  18.047  0.00  0.00    +0.000 N 
ATOM      2  C   UNL     1       2.857   2.333  18.650  0.00  0.00    +0.000 C 
ATOM      3  O   UNL     1       3.618   1.389  18.510  0.00  0.00    +0.000 OA
ATOM      4  C   UNL     1       1.596   2.322  19.474  0.00  0.00    +0.000 C 
ATOM      5  C   UNL     1       1.284   3.799  19.658  0.00  0.00    +0.000 C 
ATOM      6  C   UNL     1       1.900   4.480  18.438  0.00  0.00    +0.000 C 
ENDROOT
BRANCH   6   7
ATOM      7  C   UNL     1       2.423   5.873  18.830  0.00  0.00    +0.000 C 
ATOM      8  O   UNL     1       3.070   6.056  19.860  0.00  0.00    +0.000 OA
ATOM      9  N   UNL     1       2.244   6.850  17.868  0.00  0.00    +0.000 N 
ATOM     10  H   UNL     1       1.600   6.636  17.114  0.00  0.00    +0.000 HD
BRANCH   9  11
ATOM     11  C   UNL     1       2.567   8.239  18.139  0.00  0.00    +0.000 C 
BRANCH  11  12
ATOM     12  C   UNL     1       1.376   9.162  17.883  0.00  0.00    +0.000 C 
BRANCH  12  13
ATOM     13  C   UNL     1       0.735   9.613  19.170  0.00  0.00    +0.000 A 
ATOM     14  C   UNL     1      -0.209  10.648  19.160  0.00  0.00    +0.000 A 
ATOM     15  C   UNL     1      -0.783  11.096  20.350  0.00  0.00    +0.000 A 
ATOM     16  C   UNL     1      -0.415  10.516  21.563  0.00  0.00    +0.000 A 
ATOM     17  C   UNL     1       0.525   9.487  21.585  0.00  0.00    +0.000 A 
ATOM     18  C   UNL     1       1.100   9.037  20.394  0.00  0.00    +0.000 A 
ENDBRANCH  12  13
ENDBRANCH  11  12
ENDBRANCH   9  11
ENDBRANCH   6   7
BRANCH   1  19
ATOM     19  C   UNL     1       3.897   3.850  16.961  0.00  0.00    +0.000 C 
BRANCH  19  23
ATOM     20  C   UNL     1       7.184   6.380  18.186  0.00  0.00    +0.000 A 
ATOM     21  C   UNL     1       6.556   6.585  16.956  0.00  0.00    +0.000 A 
ATOM     22  C   UNL     1       5.513   5.752  16.538  0.00  0.00    +0.000 A 
ATOM     23  C   UNL     1       5.089   4.689  17.345  0.00  0.00    +0.000 A 
ATOM     24  C   UNL     1       5.761   4.456  18.554  0.00  0.00    +0.000 A 
ATOM     25  C   UNL     1       6.796   5.300  18.976  0.00  0.00    +0.000 A 
BRANCH  20  27
ATOM     26  C   UNL     1       8.058   8.558  17.894  0.00  0.00    +0.000 C 
ATOM     27  O   UNL     1       8.176   7.271  18.492  0.00  0.00    +0.000 OA
ENDBRANCH  20  27
ENDBRANCH  19  23
ENDBRANCH   1  19
TORSDOF 7
ENDMDL
MODEL 9
REMARK VINA RESULT:      -8.1      1.377      1.799
REMARK  Name = 
REMARK  8 active torsions:
REMARK  status: ('A' for Active; 'I' for Inactive)
REMARK    1  A    between atoms: C_1  and  O_2
REMARK    2  A    between atoms: O_2  and  C_3
REMARK    3  A    between atoms: C_6  and  C_7
REMARK    4  A    between atoms: C_7  and  N_8
REMARK    5  A    between atoms: C_13  and  C_14
REMARK    6  A    between atoms: N_16  and  C_17
REMARK    7  A    between atoms: C_17  and  C_18
REMARK    8  A    between atoms: C_18  and  C_19
REMARK                            x       y       z     vdW  Elec       q    Type
REMARK                         _______ _______ _______ _____ _____    ______ ____
ROOT
ATOM      1  N   UNL     1       2.706   4.855  18.569  0.00  0.00    +0.000 N 
ATOM      2  C   UNL     1       1.598   4.115  18.202  0.00  0.00    +0.000 C 
ATOM      3  O   UNL     1       0.871   4.328  17.244  0.00  0.00    +0.000 OA
ATOM      4  C   UNL     1       1.399   3.024  19.220  0.00  0.00    +0.000 C 
ATOM      5  C   UNL     1       2.755   2.929  19.902  0.00  0.00    +0.000 C 
ATOM      6  C   UNL     1       3.360   4.323  19.758  0.00  0.00    +0.000 C 
ENDROOT
BRANCH   6   7
ATOM      7  C   UNL     1       4.886   4.213  19.592  0.00  0.00    +0.000 C 
ATOM      8  O   UNL     1       5.440   3.131  19.405  0.00  0.00    +0.000 OA
ATOM      9  N   UNL     1       5.548   5.424  19.513  0.00  0.00    +0.000 N 
ATOM     10  H   UNL     1       5.030   6.248  19.798  0.00  0.00    +0.000 HD
BRANCH   9  11
ATOM     11  C   UNL     1       6.999   5.486  19.486  0.00  0.00    +0.000 C 
BRANCH  11  12
ATOM     12  C   UNL     1       7.516   6.201  18.239  0.00  0.00    +0.000 C 
BRANCH  12  13
ATOM     13  C   UNL     1       6.845   5.693  16.989  0.00  0.00    +0.000 A 
ATOM     14  C   UNL     1       7.159   4.422  16.490  0.00  0.00    +0.000 A 
ATOM     15  C   UNL     1       6.568   3.956  15.315  0.00  0.00    +0.000 A 
ATOM     16  C   UNL     1       5.663   4.759  14.624  0.00  0.00    +0.000 A 
ATOM     17  C   UNL     1       5.345   6.026  15.110  0.00  0.00    +0.000 A 
ATOM     18  C   UNL     1       5.935   6.494  16.287  0.00  0.00    +0.000 A 
ENDBRANCH  12  13
ENDBRANCH  11  12
ENDBRANCH   9  11
ENDBRANCH   6   7
BRANCH   1  19
ATOM     19  C   UNL     1       3.029   6.150  17.991  0.00  0.00    +0.000 C 
BRANCH  19  23
ATOM     20  C   UNL     1       1.059   9.594  19.713  0.00  0.00    +0.000 A 
ATOM     21  C   UNL     1       1.378   8.492  20.509  0.00  0.00    +0.000 A 
ATOM     22  C   UNL     1       1.986   7.362  19.954  0.00  0.00    +0.000 A 
ATOM     23  C   UNL     1       2.276   7.314  18.585  0.00  0.00    +0.000 A 
ATOM     24  C   UNL     1       1.904   8.402  17.782  0.00  0.00    +0.000 A 
ATOM     25  C   UNL     1       1.307   9.538  18.343  0.00  0.00    +0.000 A 
BRANCH  20  27
ATOM     26  C   UNL     1       0.187  10.426  21.748  0.00  0.00    +0.000 C 
ATOM     27  O   UNL     1       0.485  10.646  20.373  0.00  0.00    +0.000 OA
ENDBRANCH  20  27
ENDBRANCH  19  23
ENDBRANCH   1  19
TORSDOF 7
ENDMDL
