MODEL 1
REMARK VINA RESULT:      -6.9      0.000      0.000
REMARK  Name = 
REMARK  6 active torsions:
REMARK  status: ('A' for Active; 'I' for Inactive)
REMARK    1  A    between atoms: C_1  and  O_2
REMARK    2  A    between atoms: O_2  and  C_3
REMARK    3  A    between atoms: C_5  and  N_6
REMARK    4  A    between atoms: C_10  and  C_11
REMARK    5  A    between atoms: N_13  and  C_14
REMARK    6  A    between atoms: C_14  and  C_15
REMARK                            x       y       z     vdW  Elec       q    Type
REMARK                         _______ _______ _______ _____ _____    ______ ____
ROOT
ATOM      1  C   UNL     1       1.431   9.140  18.333  0.00  0.00    +0.000 C 
ATOM      2  O   UNL     1       2.112   9.384  17.336  0.00  0.00    +0.000 OA
ATOM      3  N   UNL     1       1.706   8.077  19.157  0.00  0.00    +0.000 N 
ATOM      4  H   UNL     1       1.141   7.982  19.998  0.00  0.00    +0.000 HD
ENDROOT
BRANCH   1  11
ATOM      5  C   UNL     1       0.043  10.633  19.924  0.00  0.00    +0.000 A 
ATOM      6  C   UNL     1      -1.098  11.435  20.111  0.00  0.00    +0.000 A 
ATOM      7  C   UNL     1      -2.031  11.637  19.087  0.00  0.00    +0.000 A 
ATOM      8  C   UNL     1      -1.842  10.960  17.874  0.00  0.00    +0.000 A 
ATOM      9 CL   UNL     1      -2.997  11.103  16.596  0.00  0.00    +0.000 Cl
ATOM     10  C   UNL     1      -0.703  10.181  17.661  0.00  0.00    +0.000 A 
ATOM     11  C   UNL     1       0.259  10.012  18.673  0.00  0.00    +0.000 A 
BRANCH   7  12
ATOM     12  N   UNL     1      -3.225  12.320  19.383  0.00  0.00    +0.000 N 
ATOM     13  H   UNL     1      -3.117  13.317  19.540  0.00  0.00    +0.000 HD
ATOM     14  H   UNL     1      -3.974  12.106  18.725  0.00  0.00    +0.000 HD
ENDBRANCH   7  12
BRANCH   5  16
ATOM     15  C   UNL     1       0.531   9.796  22.098  0.00  0.00    +0.000 C 
ATOM     16  O   UNL     1       0.979  10.454  20.914  0.00  0.00    +0.000 OA
ENDBRANCH   5  16
ENDBRANCH   1  11
BRANCH   3  17
ATOM     17  C   UNL     1       2.846   7.196  18.982  0.00  0.00    +0.000 C 
BRANCH  17  18
ATOM     18  C   UNL     1       2.425   5.753  18.683  0.00  0.00    +0.000 C 
ATOM     19  C   UNL     1       3.444   5.033  17.755  0.00  0.00    +0.000 C 
ATOM     20  C   UNL     1       3.996   3.846  18.552  0.00  0.00    +0.000 C 
ATOM     21  N   UNL     1       2.882   3.603  19.417  0.00  0.00    +0.000 NA
ATOM     22  C   UNL     1       2.918   2.702  20.533  0.00  0.00    +0.000 C 
ATOM     23  C   UNL     1       1.507   2.972  21.078  0.00  0.00    +0.000 C 
ATOM     24  C   UNL     1       1.121   4.376  20.550  0.00  0.00    +0.000 C 
ATOM     25  C   UNL     1       2.415   4.882  19.935  0.00  0.00    +0.000 C 
ENDBRANCH  17  18
ENDBRANCH   3  17
TORSDOF 5
ENDMDL
MODEL 2
REMARK VINA RESULT:      -6.8      3.378      5.158
REMARK  Name = 
REMARK  6 active torsions:
REMARK  status: ('A' for Active; 'I' for Inactive)
REMARK    1  A    between atoms: C_1  and  O_2
REMARK    2  A    between atoms: O_2  and  C_3
REMARK    3  A    between atoms: C_5  and  N_6
REMARK    4  A    between atoms: C_10  and  C_11
REMARK    5  A    between atoms: N_13  and  C_14
REMARK    6  A    between atoms: C_14  and  C_15
REMARK                            x       y       z     vdW  Elec       q    Type
REMARK                         _______ _______ _______ _____ _____    ______ ____
ROOT
ATOM      1  C   UNL     1       3.250   5.334  18.513  0.00  0.00    +0.000 C 
ATOM      2  O   UNL     1       2.845   4.893  17.438  0.00  0.00    +0.000 OA
ATOM      3  N   UNL     1       4.371   4.833  19.127  0.00  0.00    +0.000 N 
ATOM      4  H   UNL     1       4.682   5.295  19.979  0.00  0.00    +0.000 HD
ENDROOT
BRANCH   1  11
ATOM      5  C   UNL     1       1.871   6.349  20.451  0.00  0.00    +0.000 A 
ATOM      6  C   UNL     1       1.215   7.475  20.983  0.00  0.00    +0.000 A 
ATOM      7  C   UNL     1       1.179   8.696  20.301  0.00  0.00    +0.000 A 
ATOM      8  C   UNL     1       1.757   8.761  19.025  0.00  0.00    +0.000 A 
ATOM      9 CL   UNL     1       1.678  10.216  18.095  0.00  0.00    +0.000 Cl
ATOM     10  C   UNL     1       2.434   7.662  18.491  0.00  0.00    +0.000 A 
ATOM     11  C   UNL     1       2.511   6.447  19.195  0.00  0.00    +0.000 A 
BRANCH   7  12
ATOM     12  N   UNL     1       0.380   9.735  20.812  0.00  0.00    +0.000 N 
ATOM     13  H   UNL     1       0.498  10.631  20.349  0.00  0.00    +0.000 HD
ATOM     14  H   UNL     1      -0.600   9.469  20.904  0.00  0.00    +0.000 HD
ENDBRANCH   7  12
BRANCH   5  16
ATOM     15  C   UNL     1       1.085   4.112  20.659  0.00  0.00    +0.000 C 
ATOM     16  O   UNL     1       1.937   5.155  21.129  0.00  0.00    +0.000 OA
ENDBRANCH   5  16
ENDBRANCH   1  11
BRANCH   3  17
ATOM     17  C   UNL     1       5.216   3.804  18.547  0.00  0.00    +0.000 C 
BRANCH  17  18
ATOM     18  C   UNL     1       6.415   4.393  17.795  0.00  0.00    +0.000 C 
ATOM     19  C   UNL     1       6.145   4.495  16.267  0.00  0.00    +0.000 C 
ATOM     20  C   UNL     1       6.225   5.983  15.909  0.00  0.00    +0.000 C 
ATOM     21  N   UNL     1       7.121   6.425  16.935  0.00  0.00    +0.000 NA
ATOM     22  C   UNL     1       7.408   7.805  17.205  0.00  0.00    +0.000 C 
ATOM     23  C   UNL     1       8.311   7.604  18.432  0.00  0.00    +0.000 C 
ATOM     24  C   UNL     1       7.929   6.215  19.004  0.00  0.00    +0.000 C 
ATOM     25  C   UNL     1       6.699   5.836  18.198  0.00  0.00    +0.000 C 
ENDBRANCH  17  18
ENDBRANCH   3  17
TORSDOF 5
ENDMDL
MODEL 3
REMARK VINA RESULT:      -6.8      0.963      1.060
REMARK  Name = 
REMARK  6 active torsions:
REMARK  status: ('A' for Active; 'I' for Inactive)
REMARK    1  A    between atoms: C_1  and  O_2
REMARK    2  A    between atoms: O_2  and  C_3
REMARK    3  A    between atoms: C_5  and  N_6
REMARK    4  A    between atoms: C_10  and  C_11
REMARK    5  A    between atoms: N_13  and  C_14
REMARK    6  A    between atoms: C_14  and  C_15
REMARK                            x       y       z     vdW  Elec       q    Type
REMARK                         _______ _______ _______ _____ _____    ______ ____
ROOT
ATOM      1  C   UNL     1       1.916   8.532  18.314  0.00  0.00    +0.000 C 
ATOM      2  O   UNL     1       2.408   8.836  17.227  0.00  0.00    +0.000 OA
ATOM      3  N   UNL     1       2.270   7.381  18.973  0.00  0.00    +0.000 N 
ATOM      4  H   UNL     1       1.871   7.233  19.898  0.00  0.00    +0.000 HD
ENDROOT
BRANCH   1  11
ATOM      5  C   UNL     1       0.696   9.570  20.343  0.00  0.00    +0.000 A 
ATOM      6  C   UNL     1      -0.296  10.450  20.813  0.00  0.00    +0.000 A 
ATOM      7  C   UNL     1      -1.099  11.190  19.937  0.00  0.00    +0.000 A 
ATOM      8  C   UNL     1      -0.941  10.984  18.559  0.00  0.00    +0.000 A 
ATOM      9 CL   UNL     1      -1.953  11.807  17.424  0.00  0.00    +0.000 Cl
ATOM     10  C   UNL     1       0.056  10.135  18.073  0.00  0.00    +0.000 A 
ATOM     11  C   UNL     1       0.894   9.425  18.952  0.00  0.00    +0.000 A 
BRANCH   7  12
ATOM     12  N   UNL     1      -2.172  11.932  20.462  0.00  0.00    +0.000 N 
ATOM     13  H   UNL     1      -2.418  11.705  21.421  0.00  0.00    +0.000 HD
ATOM     14  H   UNL     1      -2.069  12.935  20.312  0.00  0.00    +0.000 HD
ENDBRANCH   7  12
BRANCH   5  16
ATOM     15  C   UNL     1       1.436   9.219  22.578  0.00  0.00    +0.000 C 
ATOM     16  O   UNL     1       1.508   8.864  21.198  0.00  0.00    +0.000 OA
ENDBRANCH   5  16
ENDBRANCH   1  11
BRANCH   3  17
ATOM     17  C   UNL     1       3.292   6.464  18.502  0.00  0.00    +0.000 C 
BRANCH  17  18
ATOM     18  C   UNL     1       2.827   5.004  18.544  0.00  0.00    +0.000 C 
ATOM     19  C   UNL     1       3.935   4.030  18.052  0.00  0.00    +0.000 C 
ATOM     20  C   UNL     1       4.262   3.109  19.233  0.00  0.00    +0.000 C 
ATOM     21  N   UNL     1       3.004   3.145  19.915  0.00  0.00    +0.000 NA
ATOM     22  C   UNL     1       2.789   2.598  21.225  0.00  0.00    +0.000 C 
ATOM     23  C   UNL     1       1.329   3.040  21.409  0.00  0.00    +0.000 C 
ATOM     24  C   UNL     1       1.135   4.242  20.451  0.00  0.00    +0.000 C 
ATOM     25  C   UNL     1       2.547   4.527  19.965  0.00  0.00    +0.000 C 
ENDBRANCH  17  18
ENDBRANCH   3  17
TORSDOF 5
ENDMDL
MODEL 4
REMARK VINA RESULT:      -6.8      2.812      7.623
REMARK  Name = 
REMARK  6 active torsions:
REMARK  status: ('A' for Active; 'I' for Inactive)
REMARK    1  A    between atoms: C_1  and  O_2
REMARK    2  A    between atoms: O_2  and  C_3
REMARK    3  A    between atoms: C_5  and  N_6
REMARK    4  A    between atoms: C_10  and  C_11
REMARK    5  A    between atoms: N_13  and  C_14
REMARK    6  A    between atoms: C_14  and  C_15
REMARK                            x       y       z     vdW  Elec       q    Type
REMARK                         _______ _______ _______ _____ _____    ______ ____
ROOT
ATOM      1  C   UNL     1       2.043   7.389  20.037  0.00  0.00    +0.000 C 
ATOM      2  O   UNL     1       2.148   8.259  19.172  0.00  0.00    +0.000 OA
ATOM      3  N   UNL     1       1.764   7.696  21.345  0.00  0.00    +0.000 N 
ATOM      4  H   UNL     1       1.625   6.918  21.987  0.00  0.00    +0.000 HD
ENDROOT
BRANCH   1  11
ATOM      5  C   UNL     1       2.801   5.475  18.472  0.00  0.00    +0.000 A 
ATOM      6  C   UNL     1       2.925   4.090  18.258  0.00  0.00    +0.000 A 
ATOM      7  C   UNL     1       2.494   3.158  19.210  0.00  0.00    +0.000 A 
ATOM      8  C   UNL     1       1.865   3.635  20.368  0.00  0.00    +0.000 A 
ATOM      9 CL   UNL     1       1.239   2.536  21.547  0.00  0.00    +0.000 Cl
ATOM     10  C   UNL     1       1.757   5.006  20.610  0.00  0.00    +0.000 A 
ATOM     11  C   UNL     1       2.229   5.945  19.675  0.00  0.00    +0.000 A 
BRANCH   7  12
ATOM     12  N   UNL     1       2.502   1.792  18.873  0.00  0.00    +0.000 N 
ATOM     13  H   UNL     1       3.388   1.321  19.028  0.00  0.00    +0.000 HD
ATOM     14  H   UNL     1       1.714   1.284  19.272  0.00  0.00    +0.000 HD
ENDBRANCH   7  12
BRANCH   5  16
ATOM     15  C   UNL     1       4.652   6.398  17.294  0.00  0.00    +0.000 C 
ATOM     16  O   UNL     1       3.250   6.397  17.556  0.00  0.00    +0.000 OA
ENDBRANCH   5  16
ENDBRANCH   1  11
BRANCH   3  17
ATOM     17  C   UNL     1       1.495   9.042  21.818  0.00  0.00    +0.000 C 
BRANCH  17  18
ATOM     18  C   UNL     1       0.010   9.408  21.717  0.00  0.00    +0.000 C 
ATOM     19  C   UNL     1      -0.561   9.891  23.080  0.00  0.00    +0.000 C 
ATOM     20  C   UNL     1      -1.026  11.336  22.870  0.00  0.00    +0.000 C 
ATOM     21  N   UNL     1      -1.321  11.289  21.470  0.00  0.00    +0.000 NA
ATOM     22  C   UNL     1      -1.622  12.446  20.677  0.00  0.00    +0.000 C 
ATOM     23  C   UNL     1      -1.728  11.754  19.310  0.00  0.00    +0.000 C 
ATOM     24  C   UNL     1      -0.911  10.444  19.445  0.00  0.00    +0.000 C 
ATOM     25  C   UNL     1      -0.230  10.599  20.795  0.00  0.00    +0.000 C 
ENDBRANCH  17  18
ENDBRANCH   3  17
TORSDOF 5
ENDMDL
MODEL 5
REMARK VINA RESULT:      -6.7      3.057      7.360
REMARK  Name = 
REMARK  6 active torsions:
REMARK  status: ('A' for Active; 'I' for Inactive)
REMARK    1  A    between atoms: C_1  and  O_2
REMARK    2  A    between atoms: O_2  and  C_3
REMARK    3  A    between atoms: C_5  and  N_6
REMARK    4  A    between atoms: C_10  and  C_11
REMARK    5  A    between atoms: N_13  and  C_14
REMARK    6  A    between atoms: C_14  and  C_15
REMARK                            x       y       z     vdW  Elec       q    Type
REMARK                         _______ _______ _______ _____ _____    ______ ____
ROOT
ATOM      1  C   UNL     1       2.362   8.292  18.193  0.00  0.00    +0.000 C 
ATOM      2  O   UNL     1       2.232   8.827  17.092  0.00  0.00    +0.000 OA
ATOM      3  N   UNL     1       1.764   8.798  19.321  0.00  0.00    +0.000 N 
ATOM      4  H   UNL     1       1.862   8.262  20.180  0.00  0.00    +0.000 HD
ENDROOT
BRANCH   1  11
ATOM      5  C   UNL     1       2.962   6.013  19.256  0.00  0.00    +0.000 A 
ATOM      6  C   UNL     1       3.823   4.900  19.280  0.00  0.00    +0.000 A 
ATOM      7  C   UNL     1       4.913   4.795  18.409  0.00  0.00    +0.000 A 
ATOM      8  C   UNL     1       5.179   5.867  17.546  0.00  0.00    +0.000 A 
ATOM      9 CL   UNL     1       6.555   5.836  16.500  0.00  0.00    +0.000 Cl
ATOM     10  C   UNL     1       4.322   6.968  17.489  0.00  0.00    +0.000 A 
ATOM     11  C   UNL     1       3.199   7.056  18.333  0.00  0.00    +0.000 A 
BRANCH   7  12
ATOM     12  N   UNL     1       5.823   3.736  18.585  0.00  0.00    +0.000 N 
ATOM     13  H   UNL     1       5.415   2.881  18.950  0.00  0.00    +0.000 HD
ATOM     14  H   UNL     1       6.401   3.573  17.761  0.00  0.00    +0.000 HD
ENDBRANCH   7  12
BRANCH   5  16
ATOM     15  C   UNL     1       1.460   4.906  20.733  0.00  0.00    +0.000 C 
ATOM     16  O   UNL     1       1.872   6.109  20.088  0.00  0.00    +0.000 OA
ENDBRANCH   5  16
ENDBRANCH   1  11
BRANCH   3  17
ATOM     17  C   UNL     1       0.876   9.947  19.316  0.00  0.00    +0.000 C 
BRANCH  17  18
ATOM     18  C   UNL     1      -0.277   9.794  20.315  0.00  0.00    +0.000 C 
ATOM     19  C   UNL     1       0.094   8.841  21.486  0.00  0.00    +0.000 C 
ATOM     20  C   UNL     1       0.018   9.676  22.769  0.00  0.00    +0.000 C 
ATOM     21  N   UNL     1      -0.950  10.648  22.361  0.00  0.00    +0.000 NA
ATOM     22  C   UNL     1      -1.273  11.822  23.121  0.00  0.00    +0.000 C 
ATOM     23  C   UNL     1      -2.254  12.462  22.127  0.00  0.00    +0.000 C 
ATOM     24  C   UNL     1      -1.893  11.864  20.745  0.00  0.00    +0.000 C 
ATOM     25  C   UNL     1      -0.607  11.105  21.022  0.00  0.00    +0.000 C 
ENDBRANCH  17  18
ENDBRANCH   3  17
TORSDOF 5
ENDMDL
MODEL 6
REMARK VINA RESULT:      -6.7      2.437      3.294
REMARK  Name = 
REMARK  6 active torsions:
REMARK  status: ('A' for Active; 'I' for Inactive)
REMARK    1  A    between atoms: C_1  and  O_2
REMARK    2  A    between atoms: O_2  and  C_3
REMARK    3  A    between atoms: C_5  and  N_6
REMARK    4  A    between atoms: C_10  and  C_11
REMARK    5  A    between atoms: N_13  and  C_14
REMARK    6  A    between atoms: C_14  and  C_15
REMARK                            x       y       z     vdW  Elec       q    Type
REMARK                         _______ _______ _______ _____ _____    ______ ____
ROOT
ATOM      1  C   UNL     1       2.307   8.448  18.174  0.00  0.00    +0.000 C 
ATOM      2  O   UNL     1       2.061   9.167  17.205  0.00  0.00    +0.000 OA
ATOM      3  N   UNL     1       3.245   7.447  18.114  0.00  0.00    +0.000 N 
ATOM      4  H   UNL     1       3.441   6.941  18.975  0.00  0.00    +0.000 HD
ENDROOT
BRANCH   1  11
ATOM      5  C   UNL     1       1.561   7.739  20.546  0.00  0.00    +0.000 A 
ATOM      6  C   UNL     1       0.831   8.052  21.707  0.00  0.00    +0.000 A 
ATOM      7  C   UNL     1       0.109   9.245  21.823  0.00  0.00    +0.000 A 
ATOM      8  C   UNL     1       0.067  10.106  20.717  0.00  0.00    +0.000 A 
ATOM      9 CL   UNL     1      -0.870  11.557  20.765  0.00  0.00    +0.000 Cl
ATOM     10  C   UNL     1       0.806   9.825  19.566  0.00  0.00    +0.000 A 
ATOM     11  C   UNL     1       1.570   8.648  19.464  0.00  0.00    +0.000 A 
BRANCH   7  12
ATOM     12  N   UNL     1      -0.723   9.429  22.943  0.00  0.00    +0.000 N 
ATOM     13  H   UNL     1      -1.715   9.471  22.735  0.00  0.00    +0.000 HD
ATOM     14  H   UNL     1      -0.509   8.782  23.702  0.00  0.00    +0.000 HD
ENDBRANCH   7  12
BRANCH   5  16
ATOM     15  C   UNL     1       1.591   5.361  20.635  0.00  0.00    +0.000 C 
ATOM     16  O   UNL     1       2.298   6.584  20.436  0.00  0.00    +0.000 OA
ENDBRANCH   5  16
ENDBRANCH   1  11
BRANCH   3  17
ATOM     17  C   UNL     1       4.076   7.189  16.952  0.00  0.00    +0.000 C 
BRANCH  17  18
ATOM     18  C   UNL     1       4.824   5.855  17.057  0.00  0.00    +0.000 C 
ATOM     19  C   UNL     1       6.137   5.992  17.880  0.00  0.00    +0.000 C 
ATOM     20  C   UNL     1       5.986   5.072  19.096  0.00  0.00    +0.000 C 
ATOM     21  N   UNL     1       5.086   4.103  18.550  0.00  0.00    +0.000 NA
ATOM     22  C   UNL     1       4.438   3.086  19.327  0.00  0.00    +0.000 C 
ATOM     23  C   UNL     1       3.569   2.480  18.214  0.00  0.00    +0.000 C 
ATOM     24  C   UNL     1       3.426   3.594  17.148  0.00  0.00    +0.000 C 
ATOM     25  C   UNL     1       4.033   4.807  17.831  0.00  0.00    +0.000 C 
ENDBRANCH  17  18
ENDBRANCH   3  17
TORSDOF 5
ENDMDL
MODEL 7
REMARK VINA RESULT:      -6.7      0.948      1.665
REMARK  Name = 
REMARK  6 active torsions:
REMARK  status: ('A' for Active; 'I' for Inactive)
REMARK    1  A    between atoms: C_1  and  O_2
REMARK    2  A    between atoms: O_2  and  C_3
REMARK    3  A    between atoms: C_5  and  N_6
REMARK    4  A    between atoms: C_10  and  C_11
REMARK    5  A    between atoms: N_13  and  C_14
REMARK    6  A    between atoms: C_14  and  C_15
REMARK                            x       y       z     vdW  Elec       q    Type
REMARK                         _______ _______ _______ _____ _____    ______ ____
ROOT
ATOM      1  C   UNL     1       1.696   8.814  18.360  0.00  0.00    +0.000 C 
ATOM      2  O   UNL     1       2.294   9.099  17.323  0.00  0.00    +0.000 OA
ATOM      3  N   UNL     1       1.973   7.671  19.068  0.00  0.00    +0.000 N 
ATOM      4  H   UNL     1       1.484   7.540  19.951  0.00  0.00    +0.000 HD
ENDROOT
BRANCH   1  11
ATOM      5  C   UNL     1       0.498  10.147  20.224  0.00  0.00    +0.000 A 
ATOM      6  C   UNL     1      -0.554  11.010  20.582  0.00  0.00    +0.000 A 
ATOM      7  C   UNL     1      -1.486  11.465  19.641  0.00  0.00    +0.000 A 
ATOM      8  C   UNL     1      -1.392  10.982  18.329  0.00  0.00    +0.000 A 
ATOM      9 CL   UNL     1      -2.557  11.441  17.136  0.00  0.00    +0.000 Cl
ATOM     10  C   UNL     1      -0.340  10.146  17.948  0.00  0.00    +0.000 A 
ATOM     11  C   UNL     1       0.623   9.724  18.882  0.00  0.00    +0.000 A 
BRANCH   7  12
ATOM     12  N   UNL     1      -2.600  12.199  20.089  0.00  0.00    +0.000 N 
ATOM     13  H   UNL     1      -3.475  11.965  19.632  0.00  0.00    +0.000 HD
ATOM     14  H   UNL     1      -2.680  12.210  21.106  0.00  0.00    +0.000 HD
ENDBRANCH   7  12
BRANCH   5  16
ATOM     15  C   UNL     1       0.936   9.029  22.279  0.00  0.00    +0.000 C 
ATOM     16  O   UNL     1       1.434   9.722  21.136  0.00  0.00    +0.000 OA
ENDBRANCH   5  16
ENDBRANCH   1  11
BRANCH   3  17
ATOM     17  C   UNL     1       3.029   6.740  18.713  0.00  0.00    +0.000 C 
BRANCH  17  18
ATOM     18  C   UNL     1       3.024   5.490  19.600  0.00  0.00    +0.000 C 
ATOM     19  C   UNL     1       1.814   5.478  20.576  0.00  0.00    +0.000 C 
ATOM     20  C   UNL     1       0.983   4.239  20.225  0.00  0.00    +0.000 C 
ATOM     21  N   UNL     1       2.016   3.405  19.689  0.00  0.00    +0.000 NA
ATOM     22  C   UNL     1       1.771   2.164  19.012  0.00  0.00    +0.000 C 
ATOM     23  C   UNL     1       3.219   1.843  18.613  0.00  0.00    +0.000 C 
ATOM     24  C   UNL     1       3.960   3.203  18.612  0.00  0.00    +0.000 C 
ATOM     25  C   UNL     1       2.836   4.209  18.793  0.00  0.00    +0.000 C 
ENDBRANCH  17  18
ENDBRANCH   3  17
TORSDOF 5
ENDMDL
MODEL 8
REMARK VINA RESULT:      -6.6      2.744      7.735
REMARK  Name = 
REMARK  6 active torsions:
REMARK  status: ('A' for Active; 'I' for Inactive)
REMARK    1  A    between atoms: C_1  and  O_2
REMARK    2  A    between atoms: O_2  and  C_3
REMARK    3  A    between atoms: C_5  and  N_6
REMARK    4  A    between atoms: C_10  and  C_11
REMARK    5  A    between atoms: N_13  and  C_14
REMARK    6  A    between atoms: C_14  and  C_15
REMARK                            x       y       z     vdW  Elec       q    Type
REMARK                         _______ _______ _______ _____ _____    ______ ____
ROOT
ATOM      1  C   UNL     1       2.342   7.276  18.992  0.00  0.00    +0.000 C 
ATOM      2  O   UNL     1       2.194   7.594  20.172  0.00  0.00    +0.000 OA
ATOM      3  N   UNL     1       2.058   8.143  17.965  0.00  0.00    +0.000 N 
ATOM      4  H   UNL     1       2.271   7.831  17.020  0.00  0.00    +0.000 HD
ENDROOT
BRANCH   1  11
ATOM      5  C   UNL     1       3.917   5.631  17.768  0.00  0.00    +0.000 A 
ATOM      6  C   UNL     1       4.290   4.295  17.527  0.00  0.00    +0.000 A 
ATOM      7  C   UNL     1       3.620   3.224  18.130  0.00  0.00    +0.000 A 
ATOM      8  C   UNL     1       2.509   3.507  18.937  0.00  0.00    +0.000 A 
ATOM      9 CL   UNL     1       1.589   2.228  19.649  0.00  0.00    +0.000 Cl
ATOM     10  C   UNL     1       2.140   4.826  19.209  0.00  0.00    +0.000 A 
ATOM     11  C   UNL     1       2.841   5.905  18.640  0.00  0.00    +0.000 A 
BRANCH   7  12
ATOM     12  N   UNL     1       3.938   1.913  17.731  0.00  0.00    +0.000 N 
ATOM     13  H   UNL     1       4.884   1.619  17.951  0.00  0.00    +0.000 HD
ATOM     14  H   UNL     1       3.238   1.233  18.022  0.00  0.00    +0.000 HD
ENDBRANCH   7  12
BRANCH   5  16
ATOM     15  C   UNL     1       5.169   6.458  15.920  0.00  0.00    +0.000 C 
ATOM     16  O   UNL     1       4.590   6.688  17.203  0.00  0.00    +0.000 OA
ENDBRANCH   5  16
ENDBRANCH   1  11
BRANCH   3  17
ATOM     17  C   UNL     1       1.634   9.517  18.166  0.00  0.00    +0.000 C 
BRANCH  17  18
ATOM     18  C   UNL     1       0.240   9.609  18.796  0.00  0.00    +0.000 C 
ATOM     19  C   UNL     1       0.271  10.351  20.162  0.00  0.00    +0.000 C 
ATOM     20  C   UNL     1      -0.610  11.595  20.002  0.00  0.00    +0.000 C 
ATOM     21  N   UNL     1      -1.503  11.123  18.988  0.00  0.00    +0.000 NA
ATOM     22  C   UNL     1      -2.443  11.960  18.298  0.00  0.00    +0.000 C 
ATOM     23  C   UNL     1      -2.987  10.914  17.314  0.00  0.00    +0.000 C 
ATOM     24  C   UNL     1      -1.883   9.832  17.208  0.00  0.00    +0.000 C 
ATOM     25  C   UNL     1      -0.718  10.451  17.961  0.00  0.00    +0.000 C 
ENDBRANCH  17  18
ENDBRANCH   3  17
TORSDOF 5
ENDMDL
MODEL 9
REMARK VINA RESULT:      -6.6      2.933      7.582
REMARK  Name = 
REMARK  6 active torsions:
REMARK  status: ('A' for Active; 'I' for Inactive)
REMARK    1  A    between atoms: C_1  and  O_2
REMARK    2  A    between atoms: O_2  and  C_3
REMARK    3  A    between atoms: C_5  and  N_6
REMARK    4  A    between atoms: C_10  and  C_11
REMARK    5  A    between atoms: N_13  and  C_14
REMARK    6  A    between atoms: C_14  and  C_15
REMARK                            x       y       z     vdW  Elec       q    Type
REMARK                         _______ _______ _______ _____ _____    ______ ____
ROOT
ATOM      1  C   UNL     1       2.431   7.828  18.464  0.00  0.00    +0.000 C 
ATOM      2  O   UNL     1       2.467   8.336  17.343  0.00  0.00    +0.000 OA
ATOM      3  N   UNL     1       1.777   8.428  19.511  0.00  0.00    +0.000 N 
ATOM      4  H   UNL     1       1.733   7.914  20.389  0.00  0.00    +0.000 HD
ENDROOT
BRANCH   1  11
ATOM      5  C   UNL     1       4.273   6.063  18.042  0.00  0.00    +0.000 A 
ATOM      6  C   UNL     1       4.825   4.815  18.383  0.00  0.00    +0.000 A 
ATOM      7  C   UNL     1       4.262   4.008  19.378  0.00  0.00    +0.000 A 
ATOM      8  C   UNL     1       3.079   4.440  19.992  0.00  0.00    +0.000 A 
ATOM      9 CL   UNL     1       2.288   3.456  21.173  0.00  0.00    +0.000 Cl
ATOM     10  C   UNL     1       2.530   5.688  19.686  0.00  0.00    +0.000 A 
ATOM     11  C   UNL     1       3.119   6.520  18.718  0.00  0.00    +0.000 A 
BRANCH   7  12
ATOM     12  N   UNL     1       4.768   2.708  19.565  0.00  0.00    +0.000 N 
ATOM     13  H   UNL     1       4.276   1.983  19.053  0.00  0.00    +0.000 HD
ATOM     14  H   UNL     1       5.779   2.658  19.441  0.00  0.00    +0.000 HD
ENDBRANCH   7  12
BRANCH   5  16
ATOM     15  C   UNL     1       6.254   7.031  17.148  0.00  0.00    +0.000 C 
ATOM     16  O   UNL     1       4.838   6.875  17.088  0.00  0.00    +0.000 OA
ENDBRANCH   5  16
ENDBRANCH   1  11
BRANCH   3  17
ATOM     17  C   UNL     1       1.015   9.658  19.388  0.00  0.00    +0.000 C 
BRANCH  17  18
ATOM     18  C   UNL     1      -0.210   9.679  20.309  0.00  0.00    +0.000 C 
ATOM     19  C   UNL     1      -0.023   8.747  21.540  0.00  0.00    +0.000 C 
ATOM     20  C   UNL     1      -0.089   9.645  22.780  0.00  0.00    +0.000 C 
ATOM     21  N   UNL     1      -0.915  10.695  22.268  0.00  0.00    +0.000 NA
ATOM     22  C   UNL     1      -1.154  11.932  22.956  0.00  0.00    +0.000 C 
ATOM     23  C   UNL     1      -1.992  12.627  21.871  0.00  0.00    +0.000 C 
ATOM     24  C   UNL     1      -1.611  11.928  20.542  0.00  0.00    +0.000 C 
ATOM     25  C   UNL     1      -0.437  11.049  20.938  0.00  0.00    +0.000 C 
ENDBRANCH  17  18
ENDBRANCH   3  17
TORSDOF 5
ENDMDL
