MODEL 1
REMARK VINA RESULT:      -8.6      0.000      0.000
REMARK  Name = 
REMARK  8 active torsions:
REMARK  status: ('A' for Active; 'I' for Inactive)
REMARK    1  A    between atoms: C_1  and  O_2
REMARK    2  A    between atoms: O_2  and  C_3
REMARK    3  A    between atoms: C_12  and  O_13
REMARK    4  A    between atoms: O_13  and  C_14
REMARK    5  A    between atoms: C_14  and  C_15
REMARK    6  A    between atoms: C_15  and  O_16
REMARK    7  A    between atoms: C_15  and  C_17
REMARK    8  A    between atoms: C_17  and  N_18
REMARK                            x       y       z     vdW  Elec       q    Type
REMARK                         _______ _______ _______ _____ _____    ______ ____
ROOT
ATOM      1  C   UNL     1      -1.056  11.665  22.322  0.00  0.00    +0.000 A 
ATOM      2  C   UNL     1      -1.106  10.562  23.180  0.00  0.00    +0.000 A 
ATOM      3  C   UNL     1      -0.479   9.369  22.848  0.00  0.00    +0.000 A 
ATOM      4  C   UNL     1       0.220   9.244  21.650  0.00  0.00    +0.000 A 
ATOM      5  C   UNL     1       0.830   8.038  21.337  0.00  0.00    +0.000 A 
ATOM      6  C   UNL     1       1.562   7.881  20.154  0.00  0.00    +0.000 A 
ATOM      7  N   UNL     1       1.653   8.938  19.298  0.00  0.00    +0.000 N 
ATOM      8  C   UNL     1       1.047  10.123  19.583  0.00  0.00    +0.000 A 
ATOM      9  C   UNL     1       0.311  10.331  20.765  0.00  0.00    +0.000 A 
ATOM     10  C   UNL     1      -0.332  11.561  21.109  0.00  0.00    +0.000 A 
ATOM     11  C   UNL     1       2.503   8.862  18.079  0.00  0.00    +0.000 C 
ATOM     12  C   UNL     1       2.421   7.494  17.425  0.00  0.00    +0.000 C 
ATOM     13  C   UNL     1       2.667   6.410  18.439  0.00  0.00    +0.000 A 
ATOM     14  C   UNL     1       3.247   5.191  18.035  0.00  0.00    +0.000 A 
ATOM     15  C   UNL     1       3.366   4.189  18.971  0.00  0.00    +0.000 A 
ATOM     16  C   UNL     1       2.951   4.368  20.261  0.00  0.00    +0.000 A 
ATOM     17  C   UNL     1       2.399   5.557  20.692  0.00  0.00    +0.000 A 
ATOM     18  C   UNL     1       2.224   6.615  19.772  0.00  0.00    +0.000 A 
ATOM     19  O   UNL     1       3.125   3.260  21.027  0.00  0.00    +0.000 OA
ATOM     20  C   UNL     1       3.641   2.331  20.047  0.00  0.00    +0.000 C 
ATOM     21  O   UNL     1       3.865   2.944  18.757  0.00  0.00    +0.000 OA
ENDROOT
BRANCH   1  23
ATOM     22  C   UNL     1      -0.973  13.790  23.437  0.00  0.00    +0.000 C 
ATOM     23  O   UNL     1      -1.676  12.845  22.634  0.00  0.00    +0.000 OA
ENDBRANCH   1  23
BRANCH  10  24
ATOM     24  O   UNL     1      -0.154  12.557  20.167  0.00  0.00    +0.000 OA
BRANCH  24  25
ATOM     25  C   UNL     1      -1.311  13.238  19.664  0.00  0.00    +0.000 C 
BRANCH  25  26
ATOM     26  C   UNL     1      -1.808  12.574  18.370  0.00  0.00    +0.000 C 
BRANCH  26  27
ATOM     27  O   UNL     1      -0.677  12.069  17.643  0.00  0.00    +0.000 OA
ATOM     28  H   UNL     1      -0.624  11.105  17.765  0.00  0.00    +0.000 HD
ENDBRANCH  26  27
BRANCH  26  29
ATOM     29  C   UNL     1      -2.794  11.449  18.725  0.00  0.00    +0.000 C 
BRANCH  29  30
ATOM     30  N   UNL     1      -4.161  11.759  18.365  0.00  0.00    +0.000 N 
ATOM     31  C   UNL     1      -4.680  11.650  17.104  0.00  0.00    +0.000 A 
ATOM     32  N   UNL     1      -5.942  12.007  17.067  0.00  0.00    +0.000 NA
ATOM     33  C   UNL     1      -6.259  12.343  18.360  0.00  0.00    +0.000 A 
ATOM     34  C   UNL     1      -7.475  12.798  18.886  0.00  0.00    +0.000 A 
ATOM     35  C   UNL     1      -7.555  13.069  20.258  0.00  0.00    +0.000 A 
ATOM     36  C   UNL     1      -6.449  12.885  21.088  0.00  0.00    +0.000 A 
ATOM     37  C   UNL     1      -5.223  12.435  20.581  0.00  0.00    +0.000 A 
ATOM     38  C   UNL     1      -5.162  12.180  19.205  0.00  0.00    +0.000 A 
ENDBRANCH  29  30
ENDBRANCH  26  29
ENDBRANCH  25  26
ENDBRANCH  24  25
ENDBRANCH  10  24
TORSDOF 7
ENDMDL
MODEL 2
REMARK VINA RESULT:      -8.5      2.893      4.957
REMARK  Name = 
REMARK  8 active torsions:
REMARK  status: ('A' for Active; 'I' for Inactive)
REMARK    1  A    between atoms: C_1  and  O_2
REMARK    2  A    between atoms: O_2  and  C_3
REMARK    3  A    between atoms: C_12  and  O_13
REMARK    4  A    between atoms: O_13  and  C_14
REMARK    5  A    between atoms: C_14  and  C_15
REMARK    6  A    between atoms: C_15  and  O_16
REMARK    7  A    between atoms: C_15  and  C_17
REMARK    8  A    between atoms: C_17  and  N_18
REMARK                            x       y       z     vdW  Elec       q    Type
REMARK                         _______ _______ _______ _____ _____    ______ ____
ROOT
ATOM      1  C   UNL     1      -0.823  11.368  22.666  0.00  0.00    +0.000 A 
ATOM      2  C   UNL     1      -0.904  10.179  23.396  0.00  0.00    +0.000 A 
ATOM      3  C   UNL     1      -0.309   9.012  22.934  0.00  0.00    +0.000 A 
ATOM      4  C   UNL     1       0.386   9.002  21.727  0.00  0.00    +0.000 A 
ATOM      5  C   UNL     1       0.963   7.821  21.282  0.00  0.00    +0.000 A 
ATOM      6  C   UNL     1       1.690   7.775  20.087  0.00  0.00    +0.000 A 
ATOM      7  N   UNL     1       1.811   8.917  19.352  0.00  0.00    +0.000 N 
ATOM      8  C   UNL     1       1.238  10.080  19.768  0.00  0.00    +0.000 A 
ATOM      9  C   UNL     1       0.507  10.176  20.968  0.00  0.00    +0.000 A 
ATOM     10  C   UNL     1      -0.101  11.378  21.446  0.00  0.00    +0.000 A 
ATOM     11  C   UNL     1       2.660   8.953  18.130  0.00  0.00    +0.000 C 
ATOM     12  C   UNL     1       2.540   7.668  17.330  0.00  0.00    +0.000 C 
ATOM     13  C   UNL     1       2.755   6.473  18.217  0.00  0.00    +0.000 A 
ATOM     14  C   UNL     1       3.301   5.291  17.680  0.00  0.00    +0.000 A 
ATOM     15  C   UNL     1       3.392   4.188  18.499  0.00  0.00    +0.000 A 
ATOM     16  C   UNL     1       2.981   4.235  19.802  0.00  0.00    +0.000 A 
ATOM     17  C   UNL     1       2.462   5.384  20.362  0.00  0.00    +0.000 A 
ATOM     18  C   UNL     1       2.318   6.542  19.565  0.00  0.00    +0.000 A 
ATOM     19  O   UNL     1       3.124   3.044  20.440  0.00  0.00    +0.000 OA
ATOM     20  C   UNL     1       3.614   2.216  19.362  0.00  0.00    +0.000 C 
ATOM     21  O   UNL     1       3.855   2.961  18.148  0.00  0.00    +0.000 OA
ENDROOT
BRANCH   1  23
ATOM     22  C   UNL     1      -2.832  12.596  23.135  0.00  0.00    +0.000 C 
ATOM     23  O   UNL     1      -1.409  12.523  23.108  0.00  0.00    +0.000 OA
ENDBRANCH   1  23
BRANCH  10  24
ATOM     24  O   UNL     1       0.105  12.467  20.620  0.00  0.00    +0.000 OA
BRANCH  24  25
ATOM     25  C   UNL     1      -0.916  12.814  19.676  0.00  0.00    +0.000 C 
BRANCH  25  26
ATOM     26  C   UNL     1      -0.291  13.348  18.377  0.00  0.00    +0.000 C 
BRANCH  26  27
ATOM     27  O   UNL     1      -1.089  12.913  17.265  0.00  0.00    +0.000 OA
ATOM     28  H   UNL     1      -1.616  13.663  16.938  0.00  0.00    +0.000 HD
ENDBRANCH  26  27
BRANCH  26  29
ATOM     29  C   UNL     1      -0.213  14.881  18.446  0.00  0.00    +0.000 C 
BRANCH  29  30
ATOM     30  N   UNL     1       0.876  15.357  19.272  0.00  0.00    +0.000 N 
ATOM     31  C   UNL     1       0.725  15.963  20.489  0.00  0.00    +0.000 A 
ATOM     32  N   UNL     1       1.882  16.300  21.009  0.00  0.00    +0.000 NA
ATOM     33  C   UNL     1       2.821  15.880  20.101  0.00  0.00    +0.000 A 
ATOM     34  C   UNL     1       4.216  15.990  20.151  0.00  0.00    +0.000 A 
ATOM     35  C   UNL     1       4.972  15.469  19.093  0.00  0.00    +0.000 A 
ATOM     36  C   UNL     1       4.349  14.844  18.011  0.00  0.00    +0.000 A 
ATOM     37  C   UNL     1       2.955  14.727  17.940  0.00  0.00    +0.000 A 
ATOM     38  C   UNL     1       2.218  15.265  19.003  0.00  0.00    +0.000 A 
ENDBRANCH  29  30
ENDBRANCH  26  29
ENDBRANCH  25  26
ENDBRANCH  24  25
ENDBRANCH  10  24
TORSDOF 7
ENDMDL
MODEL 3
REMARK VINA RESULT:      -8.4      1.112      1.248
REMARK  Name = 
REMARK  8 active torsions:
REMARK  status: ('A' for Active; 'I' for Inactive)
REMARK    1  A    between atoms: C_1  and  O_2
REMARK    2  A    between atoms: O_2  and  C_3
REMARK    3  A    between atoms: C_12  and  O_13
REMARK    4  A    between atoms: O_13  and  C_14
REMARK    5  A    between atoms: C_14  and  C_15
REMARK    6  A    between atoms: C_15  and  O_16
REMARK    7  A    between atoms: C_15  and  C_17
REMARK    8  A    between atoms: C_17  and  N_18
REMARK                            x       y       z     vdW  Elec       q    Type
REMARK                         _______ _______ _______ _____ _____    ______ ____
ROOT
ATOM      1  C   UNL     1      -0.951  11.260  22.495  0.00  0.00    +0.000 A 
ATOM      2  C   UNL     1      -0.842  10.152  23.339  0.00  0.00    +0.000 A 
ATOM      3  C   UNL     1      -0.173   9.005  22.933  0.00  0.00    +0.000 A 
ATOM      4  C   UNL     1       0.410   8.934  21.669  0.00  0.00    +0.000 A 
ATOM      5  C   UNL     1       1.064   7.774  21.283  0.00  0.00    +0.000 A 
ATOM      6  C   UNL     1       1.684   7.673  20.032  0.00  0.00    +0.000 A 
ATOM      7  N   UNL     1       1.618   8.738  19.184  0.00  0.00    +0.000 N 
ATOM      8  C   UNL     1       0.966   9.879  19.542  0.00  0.00    +0.000 A 
ATOM      9  C   UNL     1       0.339  10.029  20.794  0.00  0.00    +0.000 A 
ATOM     10  C   UNL     1      -0.346  11.211  21.214  0.00  0.00    +0.000 A 
ATOM     11  C   UNL     1       2.346   8.726  17.885  0.00  0.00    +0.000 C 
ATOM     12  C   UNL     1       2.291   7.360  17.226  0.00  0.00    +0.000 C 
ATOM     13  C   UNL     1       2.707   6.290  18.197  0.00  0.00    +0.000 A 
ATOM     14  C   UNL     1       3.324   5.115  17.724  0.00  0.00    +0.000 A 
ATOM     15  C   UNL     1       3.603   4.117  18.631  0.00  0.00    +0.000 A 
ATOM     16  C   UNL     1       3.307   4.261  19.958  0.00  0.00    +0.000 A 
ATOM     17  C   UNL     1       2.722   5.408  20.455  0.00  0.00    +0.000 A 
ATOM     18  C   UNL     1       2.387   6.457  19.570  0.00  0.00    +0.000 A 
ATOM     19  O   UNL     1       3.630   3.163  20.689  0.00  0.00    +0.000 OA
ATOM     20  C   UNL     1       4.106   2.277  19.651  0.00  0.00    +0.000 C 
ATOM     21  O   UNL     1       4.159   2.910  18.354  0.00  0.00    +0.000 OA
ENDROOT
BRANCH   1  23
ATOM     22  C   UNL     1      -2.904  12.260  23.470  0.00  0.00    +0.000 C 
ATOM     23  O   UNL     1      -1.614  12.394  22.880  0.00  0.00    +0.000 OA
ENDBRANCH   1  23
BRANCH  10  24
ATOM     24  O   UNL     1      -0.330  12.223  20.272  0.00  0.00    +0.000 OA
BRANCH  24  25
ATOM     25  C   UNL     1      -1.276  12.172  19.196  0.00  0.00    +0.000 C 
BRANCH  25  26
ATOM     26  C   UNL     1      -2.698  12.440  19.714  0.00  0.00    +0.000 C 
BRANCH  26  27
ATOM     27  O   UNL     1      -2.739  13.749  20.303  0.00  0.00    +0.000 OA
ATOM     28  H   UNL     1      -3.217  14.352  19.708  0.00  0.00    +0.000 HD
ENDBRANCH  26  27
BRANCH  26  29
ATOM     29  C   UNL     1      -3.693  12.318  18.550  0.00  0.00    +0.000 C 
BRANCH  29  30
ATOM     30  N   UNL     1      -4.925  11.656  18.923  0.00  0.00    +0.000 N 
ATOM     31  C   UNL     1      -5.469  10.590  18.262  0.00  0.00    +0.000 A 
ATOM     32  N   UNL     1      -6.594  10.200  18.814  0.00  0.00    +0.000 NA
ATOM     33  C   UNL     1      -6.777  11.037  19.887  0.00  0.00    +0.000 A 
ATOM     34  C   UNL     1      -7.821  11.068  20.820  0.00  0.00    +0.000 A 
ATOM     35  C   UNL     1      -7.779  12.021  21.846  0.00  0.00    +0.000 A 
ATOM     36  C   UNL     1      -6.716  12.920  21.941  0.00  0.00    +0.000 A 
ATOM     37  C   UNL     1      -5.665  12.908  21.016  0.00  0.00    +0.000 A 
ATOM     38  C   UNL     1      -5.732  11.954  19.993  0.00  0.00    +0.000 A 
ENDBRANCH  29  30
ENDBRANCH  26  29
ENDBRANCH  25  26
ENDBRANCH  24  25
ENDBRANCH  10  24
TORSDOF 7
ENDMDL
MODEL 4
REMARK VINA RESULT:      -8.3      3.686     10.674
REMARK  Name = 
REMARK  8 active torsions:
REMARK  status: ('A' for Active; 'I' for Inactive)
REMARK    1  A    between atoms: C_1  and  O_2
REMARK    2  A    between atoms: O_2  and  C_3
REMARK    3  A    between atoms: C_12  and  O_13
REMARK    4  A    between atoms: O_13  and  C_14
REMARK    5  A    between atoms: C_14  and  C_15
REMARK    6  A    between atoms: C_15  and  O_16
REMARK    7  A    between atoms: C_15  and  C_17
REMARK    8  A    between atoms: C_17  and  N_18
REMARK                            x       y       z     vdW  Elec       q    Type
REMARK                         _______ _______ _______ _____ _____    ______ ____
ROOT
ATOM      1  C   UNL     1       3.185   4.263  19.464  0.00  0.00    +0.000 A 
ATOM      2  C   UNL     1       2.448   4.226  20.650  0.00  0.00    +0.000 A 
ATOM      3  C   UNL     1       1.775   5.350  21.111  0.00  0.00    +0.000 A 
ATOM      4  C   UNL     1       1.818   6.544  20.395  0.00  0.00    +0.000 A 
ATOM      5  C   UNL     1       1.146   7.656  20.881  0.00  0.00    +0.000 A 
ATOM      6  C   UNL     1       1.144   8.867  20.179  0.00  0.00    +0.000 A 
ATOM      7  N   UNL     1       1.836   8.942  19.007  0.00  0.00    +0.000 N 
ATOM      8  C   UNL     1       2.513   7.864  18.524  0.00  0.00    +0.000 A 
ATOM      9  C   UNL     1       2.533   6.624  19.190  0.00  0.00    +0.000 A 
ATOM     10  C   UNL     1       3.223   5.465  18.714  0.00  0.00    +0.000 A 
ATOM     11  C   UNL     1       1.783  10.170  18.166  0.00  0.00    +0.000 C 
ATOM     12  C   UNL     1       1.795  11.428  19.015  0.00  0.00    +0.000 C 
ATOM     13  C   UNL     1       0.745  11.349  20.089  0.00  0.00    +0.000 A 
ATOM     14  C   UNL     1       0.140  12.528  20.567  0.00  0.00    +0.000 A 
ATOM     15  C   UNL     1      -0.744  12.424  21.617  0.00  0.00    +0.000 A 
ATOM     16  C   UNL     1      -1.046  11.212  22.175  0.00  0.00    +0.000 A 
ATOM     17  C   UNL     1      -0.486  10.038  21.715  0.00  0.00    +0.000 A 
ATOM     18  C   UNL     1       0.450  10.082  20.657  0.00  0.00    +0.000 A 
ATOM     19  O   UNL     1      -1.915  11.315  23.214  0.00  0.00    +0.000 OA
ATOM     20  C   UNL     1      -2.077  12.749  23.290  0.00  0.00    +0.000 C 
ATOM     21  O   UNL     1      -1.392  13.449  22.228  0.00  0.00    +0.000 OA
ENDROOT
BRANCH   1  23
ATOM     22  C   UNL     1       3.106   2.091  18.443  0.00  0.00    +0.000 C 
ATOM     23  O   UNL     1       3.859   3.164  19.002  0.00  0.00    +0.000 OA
ENDBRANCH   1  23
BRANCH  10  24
ATOM     24  O   UNL     1       3.872   5.665  17.510  0.00  0.00    +0.000 OA
BRANCH  24  25
ATOM     25  C   UNL     1       5.140   6.333  17.519  0.00  0.00    +0.000 C 
BRANCH  25  26
ATOM     26  C   UNL     1       6.288   5.311  17.524  0.00  0.00    +0.000 C 
BRANCH  26  27
ATOM     27  O   UNL     1       6.360   4.698  18.821  0.00  0.00    +0.000 OA
ATOM     28  H   UNL     1       7.184   4.973  19.258  0.00  0.00    +0.000 HD
ENDBRANCH  26  27
BRANCH  26  29
ATOM     29  C   UNL     1       6.041   4.267  16.423  0.00  0.00    +0.000 C 
BRANCH  29  30
ATOM     30  N   UNL     1       6.704   4.589  15.177  0.00  0.00    +0.000 N 
ATOM     31  C   UNL     1       7.796   5.404  15.062  0.00  0.00    +0.000 A 
ATOM     32  N   UNL     1       8.179   5.526  13.813  0.00  0.00    +0.000 NA
ATOM     33  C   UNL     1       7.313   4.743  13.092  0.00  0.00    +0.000 A 
ATOM     34  C   UNL     1       7.264   4.511  11.711  0.00  0.00    +0.000 A 
ATOM     35  C   UNL     1       6.280   3.652  11.207  0.00  0.00    +0.000 A 
ATOM     36  C   UNL     1       5.368   3.032  12.062  0.00  0.00    +0.000 A 
ATOM     37  C   UNL     1       5.397   3.253  13.444  0.00  0.00    +0.000 A 
ATOM     38  C   UNL     1       6.382   4.124  13.927  0.00  0.00    +0.000 A 
ENDBRANCH  29  30
ENDBRANCH  26  29
ENDBRANCH  25  26
ENDBRANCH  24  25
ENDBRANCH  10  24
TORSDOF 7
ENDMDL
MODEL 5
REMARK VINA RESULT:      -8.3      3.086      5.078
REMARK  Name = 
REMARK  8 active torsions:
REMARK  status: ('A' for Active; 'I' for Inactive)
REMARK    1  A    between atoms: C_1  and  O_2
REMARK    2  A    between atoms: O_2  and  C_3
REMARK    3  A    between atoms: C_12  and  O_13
REMARK    4  A    between atoms: O_13  and  C_14
REMARK    5  A    between atoms: C_14  and  C_15
REMARK    6  A    between atoms: C_15  and  O_16
REMARK    7  A    between atoms: C_15  and  C_17
REMARK    8  A    between atoms: C_17  and  N_18
REMARK                            x       y       z     vdW  Elec       q    Type
REMARK                         _______ _______ _______ _____ _____    ______ ____
ROOT
ATOM      1  C   UNL     1      -0.776  11.647  22.461  0.00  0.00    +0.000 A 
ATOM      2  C   UNL     1      -0.876  10.501  23.253  0.00  0.00    +0.000 A 
ATOM      3  C   UNL     1      -0.309   9.299  22.849  0.00  0.00    +0.000 A 
ATOM      4  C   UNL     1       0.377   9.210  21.641  0.00  0.00    +0.000 A 
ATOM      5  C   UNL     1       0.926   7.996  21.255  0.00  0.00    +0.000 A 
ATOM      6  C   UNL     1       1.644   7.872  20.060  0.00  0.00    +0.000 A 
ATOM      7  N   UNL     1       1.782   8.971  19.265  0.00  0.00    +0.000 N 
ATOM      8  C   UNL     1       1.237  10.166  19.622  0.00  0.00    +0.000 A 
ATOM      9  C   UNL     1       0.517  10.340  20.820  0.00  0.00    +0.000 A 
ATOM     10  C   UNL     1      -0.063  11.579  21.238  0.00  0.00    +0.000 A 
ATOM     11  C   UNL     1       2.623   8.924  18.037  0.00  0.00    +0.000 C 
ATOM     12  C   UNL     1       2.471   7.602  17.306  0.00  0.00    +0.000 C 
ATOM     13  C   UNL     1       2.668   6.451  18.254  0.00  0.00    +0.000 A 
ATOM     14  C   UNL     1       3.185   5.231  17.777  0.00  0.00    +0.000 A 
ATOM     15  C   UNL     1       3.259   4.171  18.653  0.00  0.00    +0.000 A 
ATOM     16  C   UNL     1       2.859   4.295  19.954  0.00  0.00    +0.000 A 
ATOM     17  C   UNL     1       2.368   5.483  20.456  0.00  0.00    +0.000 A 
ATOM     18  C   UNL     1       2.241   6.600  19.600  0.00  0.00    +0.000 A 
ATOM     19  O   UNL     1       2.982   3.137  20.654  0.00  0.00    +0.000 OA
ATOM     20  C   UNL     1       3.447   2.243  19.618  0.00  0.00    +0.000 C 
ATOM     21  O   UNL     1       3.695   2.918  18.364  0.00  0.00    +0.000 OA
ENDROOT
BRANCH   1  23
ATOM     22  C   UNL     1      -2.693  12.841  23.278  0.00  0.00    +0.000 C 
ATOM     23  O   UNL     1      -1.335  12.837  22.844  0.00  0.00    +0.000 OA
ENDBRANCH   1  23
BRANCH  10  24
ATOM     24  O   UNL     1       0.159  12.618  20.354  0.00  0.00    +0.000 OA
BRANCH  24  25
ATOM     25  C   UNL     1      -0.973  13.308  19.809  0.00  0.00    +0.000 C 
BRANCH  25  26
ATOM     26  C   UNL     1      -0.880  14.813  20.103  0.00  0.00    +0.000 C 
BRANCH  26  27
ATOM     27  O   UNL     1       0.052  15.021  21.176  0.00  0.00    +0.000 OA
ATOM     28  H   UNL     1       0.884  14.560  20.969  0.00  0.00    +0.000 HD
ENDBRANCH  26  27
BRANCH  26  29
ATOM     29  C   UNL     1      -0.442  15.552  18.828  0.00  0.00    +0.000 C 
BRANCH  29  30
ATOM     30  N   UNL     1       0.827  16.233  18.975  0.00  0.00    +0.000 N 
ATOM     31  C   UNL     1       0.974  17.527  19.392  0.00  0.00    +0.000 A 
ATOM     32  N   UNL     1       2.236  17.886  19.421  0.00  0.00    +0.000 NA
ATOM     33  C   UNL     1       2.936  16.773  19.026  0.00  0.00    +0.000 A 
ATOM     34  C   UNL     1       4.318  16.600  18.876  0.00  0.00    +0.000 A 
ATOM     35  C   UNL     1       4.800  15.351  18.464  0.00  0.00    +0.000 A 
ATOM     36  C   UNL     1       3.922  14.295  18.213  0.00  0.00    +0.000 A 
ATOM     37  C   UNL     1       2.537  14.449  18.352  0.00  0.00    +0.000 A 
ATOM     38  C   UNL     1       2.076  15.709  18.755  0.00  0.00    +0.000 A 
ENDBRANCH  29  30
ENDBRANCH  26  29
ENDBRANCH  25  26
ENDBRANCH  24  25
ENDBRANCH  10  24
TORSDOF 7
ENDMDL
MODEL 6
REMARK VINA RESULT:      -8.2      0.849      1.417
REMARK  Name = 
REMARK  8 active torsions:
REMARK  status: ('A' for Active; 'I' for Inactive)
REMARK    1  A    between atoms: C_1  and  O_2
REMARK    2  A    between atoms: O_2  and  C_3
REMARK    3  A    between atoms: C_12  and  O_13
REMARK    4  A    between atoms: O_13  and  C_14
REMARK    5  A    between atoms: C_14  and  C_15
REMARK    6  A    between atoms: C_15  and  O_16
REMARK    7  A    between atoms: C_15  and  C_17
REMARK    8  A    between atoms: C_17  and  N_18
REMARK                            x       y       z     vdW  Elec       q    Type
REMARK                         _______ _______ _______ _____ _____    ______ ____
ROOT
ATOM      1  C   UNL     1      -0.877  11.486  22.405  0.00  0.00    +0.000 A 
ATOM      2  C   UNL     1      -0.911  10.356  23.227  0.00  0.00    +0.000 A 
ATOM      3  C   UNL     1      -0.299   9.171  22.841  0.00  0.00    +0.000 A 
ATOM      4  C   UNL     1       0.367   9.082  21.620  0.00  0.00    +0.000 A 
ATOM      5  C   UNL     1       0.961   7.884  21.252  0.00  0.00    +0.000 A 
ATOM      6  C   UNL     1       1.661   7.762  20.046  0.00  0.00    +0.000 A 
ATOM      7  N   UNL     1       1.735   8.845  19.222  0.00  0.00    +0.000 N 
ATOM      8  C   UNL     1       1.144  10.024  19.562  0.00  0.00    +0.000 A 
ATOM      9  C   UNL     1       0.440  10.196  20.770  0.00  0.00    +0.000 A 
ATOM     10  C   UNL     1      -0.186  11.418  21.170  0.00  0.00    +0.000 A 
ATOM     11  C   UNL     1       2.552   8.805  17.979  0.00  0.00    +0.000 C 
ATOM     12  C   UNL     1       2.445   7.460  17.284  0.00  0.00    +0.000 C 
ATOM     13  C   UNL     1       2.711   6.343  18.255  0.00  0.00    +0.000 A 
ATOM     14  C   UNL     1       3.273   5.134  17.796  0.00  0.00    +0.000 A 
ATOM     15  C   UNL     1       3.411   4.101  18.695  0.00  0.00    +0.000 A 
ATOM     16  C   UNL     1       3.032   4.240  20.002  0.00  0.00    +0.000 A 
ATOM     17  C   UNL     1       2.498   5.418  20.485  0.00  0.00    +0.000 A 
ATOM     18  C   UNL     1       2.305   6.506  19.605  0.00  0.00    +0.000 A 
ATOM     19  O   UNL     1       3.220   3.107  20.726  0.00  0.00    +0.000 OA
ATOM     20  C   UNL     1       3.703   2.209  19.703  0.00  0.00    +0.000 C 
ATOM     21  O   UNL     1       3.896   2.862  18.429  0.00  0.00    +0.000 OA
ENDROOT
BRANCH   1  23
ATOM     22  C   UNL     1      -2.518  12.613  23.747  0.00  0.00    +0.000 C 
ATOM     23  O   UNL     1      -1.481  12.659  22.771  0.00  0.00    +0.000 OA
ENDBRANCH   1  23
BRANCH  10  24
ATOM     24  O   UNL     1      -0.027  12.443  20.257  0.00  0.00    +0.000 OA
BRANCH  24  25
ATOM     25  C   UNL     1      -1.165  13.252  19.931  0.00  0.00    +0.000 C 
BRANCH  25  26
ATOM     26  C   UNL     1      -1.859  12.722  18.665  0.00  0.00    +0.000 C 
BRANCH  26  27
ATOM     27  O   UNL     1      -0.866  12.166  17.789  0.00  0.00    +0.000 OA
ATOM     28  H   UNL     1      -0.015  12.120  18.260  0.00  0.00    +0.000 HD
ENDBRANCH  26  27
BRANCH  26  29
ATOM     29  C   UNL     1      -2.906  11.671  19.065  0.00  0.00    +0.000 C 
BRANCH  29  30
ATOM     30  N   UNL     1      -4.145  12.253  19.535  0.00  0.00    +0.000 N 
ATOM     31  C   UNL     1      -4.385  12.642  20.824  0.00  0.00    +0.000 A 
ATOM     32  N   UNL     1      -5.596  13.127  20.966  0.00  0.00    +0.000 NA
ATOM     33  C   UNL     1      -6.156  13.067  19.714  0.00  0.00    +0.000 A 
ATOM     34  C   UNL     1      -7.437  13.453  19.296  0.00  0.00    +0.000 A 
ATOM     35  C   UNL     1      -7.778  13.301  17.946  0.00  0.00    +0.000 A 
ATOM     36  C   UNL     1      -6.859  12.783  17.032  0.00  0.00    +0.000 A 
ATOM     37  C   UNL     1      -5.576  12.388  17.431  0.00  0.00    +0.000 A 
ATOM     38  C   UNL     1      -5.260  12.538  18.787  0.00  0.00    +0.000 A 
ENDBRANCH  29  30
ENDBRANCH  26  29
ENDBRANCH  25  26
ENDBRANCH  24  25
ENDBRANCH  10  24
TORSDOF 7
ENDMDL
MODEL 7
REMARK VINA RESULT:      -8.1      3.755      5.926
REMARK  Name = 
REMARK  8 active torsions:
REMARK  status: ('A' for Active; 'I' for Inactive)
REMARK    1  A    between atoms: C_1  and  O_2
REMARK    2  A    between atoms: O_2  and  C_3
REMARK    3  A    between atoms: C_12  and  O_13
REMARK    4  A    between atoms: O_13  and  C_14
REMARK    5  A    between atoms: C_14  and  C_15
REMARK    6  A    between atoms: C_15  and  O_16
REMARK    7  A    between atoms: C_15  and  C_17
REMARK    8  A    between atoms: C_17  and  N_18
REMARK                            x       y       z     vdW  Elec       q    Type
REMARK                         _______ _______ _______ _____ _____    ______ ____
ROOT
ATOM      1  C   UNL     1      -0.892  11.464  22.418  0.00  0.00    +0.000 A 
ATOM      2  C   UNL     1      -0.890  10.340  23.249  0.00  0.00    +0.000 A 
ATOM      3  C   UNL     1      -0.264   9.163  22.860  0.00  0.00    +0.000 A 
ATOM      4  C   UNL     1       0.381   9.077  21.628  0.00  0.00    +0.000 A 
ATOM      5  C   UNL     1       0.990   7.887  21.258  0.00  0.00    +0.000 A 
ATOM      6  C   UNL     1       1.669   7.768  20.040  0.00  0.00    +0.000 A 
ATOM      7  N   UNL     1       1.708   8.846  19.207  0.00  0.00    +0.000 N 
ATOM      8  C   UNL     1       1.102  10.016  19.548  0.00  0.00    +0.000 A 
ATOM      9  C   UNL     1       0.418  10.185  20.767  0.00  0.00    +0.000 A 
ATOM     10  C   UNL     1      -0.223  11.398  21.170  0.00  0.00    +0.000 A 
ATOM     11  C   UNL     1       2.503   8.810  17.948  0.00  0.00    +0.000 C 
ATOM     12  C   UNL     1       2.407   7.458  17.266  0.00  0.00    +0.000 C 
ATOM     13  C   UNL     1       2.712   6.353  18.240  0.00  0.00    +0.000 A 
ATOM     14  C   UNL     1       3.287   5.152  17.781  0.00  0.00    +0.000 A 
ATOM     15  C   UNL     1       3.461   4.129  18.685  0.00  0.00    +0.000 A 
ATOM     16  C   UNL     1       3.103   4.271  19.997  0.00  0.00    +0.000 A 
ATOM     17  C   UNL     1       2.557   5.443  20.481  0.00  0.00    +0.000 A 
ATOM     18  C   UNL     1       2.328   6.520  19.596  0.00  0.00    +0.000 A 
ATOM     19  O   UNL     1       3.326   3.147  20.726  0.00  0.00    +0.000 OA
ATOM     20  C   UNL     1       3.807   2.250  19.701  0.00  0.00    +0.000 C 
ATOM     21  O   UNL     1       3.964   2.896  18.418  0.00  0.00    +0.000 OA
ENDROOT
BRANCH   1  23
ATOM     22  C   UNL     1      -2.835  12.871  22.320  0.00  0.00    +0.000 C 
ATOM     23  O   UNL     1      -1.511  12.628  22.786  0.00  0.00    +0.000 OA
ENDBRANCH   1  23
BRANCH  10  24
ATOM     24  O   UNL     1      -0.101  12.419  20.246  0.00  0.00    +0.000 OA
BRANCH  24  25
ATOM     25  C   UNL     1       0.924  13.403  20.444  0.00  0.00    +0.000 C 
BRANCH  25  26
ATOM     26  C   UNL     1       1.703  13.639  19.140  0.00  0.00    +0.000 C 
BRANCH  26  27
ATOM     27  O   UNL     1       0.947  13.102  18.043  0.00  0.00    +0.000 OA
ATOM     28  H   UNL     1       1.553  12.895  17.310  0.00  0.00    +0.000 HD
ENDBRANCH  26  27
BRANCH  26  29
ATOM     29  C   UNL     1       1.953  15.145  18.965  0.00  0.00    +0.000 C 
BRANCH  29  30
ATOM     30  N   UNL     1       3.356  15.477  18.841  0.00  0.00    +0.000 N 
ATOM     31  C   UNL     1       4.229  14.866  17.984  0.00  0.00    +0.000 A 
ATOM     32  N   UNL     1       5.439  15.362  18.091  0.00  0.00    +0.000 NA
ATOM     33  C   UNL     1       5.342  16.346  19.042  0.00  0.00    +0.000 A 
ATOM     34  C   UNL     1       6.337  17.193  19.548  0.00  0.00    +0.000 A 
ATOM     35  C   UNL     1       5.987  18.138  20.520  0.00  0.00    +0.000 A 
ATOM     36  C   UNL     1       4.671  18.240  20.975  0.00  0.00    +0.000 A 
ATOM     37  C   UNL     1       3.663  17.400  20.485  0.00  0.00    +0.000 A 
ATOM     38  C   UNL     1       4.037  16.456  19.520  0.00  0.00    +0.000 A 
ENDBRANCH  29  30
ENDBRANCH  26  29
ENDBRANCH  25  26
ENDBRANCH  24  25
ENDBRANCH  10  24
TORSDOF 7
ENDMDL
MODEL 8
REMARK VINA RESULT:      -8.1      2.953      4.622
REMARK  Name = 
REMARK  8 active torsions:
REMARK  status: ('A' for Active; 'I' for Inactive)
REMARK    1  A    between atoms: C_1  and  O_2
REMARK    2  A    between atoms: O_2  and  C_3
REMARK    3  A    between atoms: C_12  and  O_13
REMARK    4  A    between atoms: O_13  and  C_14
REMARK    5  A    between atoms: C_14  and  C_15
REMARK    6  A    between atoms: C_15  and  O_16
REMARK    7  A    between atoms: C_15  and  C_17
REMARK    8  A    between atoms: C_17  and  N_18
REMARK                            x       y       z     vdW  Elec       q    Type
REMARK                         _______ _______ _______ _____ _____    ______ ____
ROOT
ATOM      1  C   UNL     1      -1.405  11.902  22.473  0.00  0.00    +0.000 A 
ATOM      2  C   UNL     1      -1.449  10.773  23.296  0.00  0.00    +0.000 A 
ATOM      3  C   UNL     1      -0.795   9.601  22.939  0.00  0.00    +0.000 A 
ATOM      4  C   UNL     1      -0.075   9.525  21.749  0.00  0.00    +0.000 A 
ATOM      5  C   UNL     1       0.561   8.340  21.410  0.00  0.00    +0.000 A 
ATOM      6  C   UNL     1       1.314   8.232  20.236  0.00  0.00    +0.000 A 
ATOM      7  N   UNL     1       1.399   9.315  19.413  0.00  0.00    +0.000 N 
ATOM      8  C   UNL     1       0.768  10.481  19.724  0.00  0.00    +0.000 A 
ATOM      9  C   UNL     1       0.009  10.639  20.899  0.00  0.00    +0.000 A 
ATOM     10  C   UNL     1      -0.661  11.847  21.269  0.00  0.00    +0.000 A 
ATOM     11  C   UNL     1       2.270   9.291  18.206  0.00  0.00    +0.000 C 
ATOM     12  C   UNL     1       2.223   7.943  17.510  0.00  0.00    +0.000 C 
ATOM     13  C   UNL     1       2.472   6.833  18.494  0.00  0.00    +0.000 A 
ATOM     14  C   UNL     1       3.080   5.637  18.064  0.00  0.00    +0.000 A 
ATOM     15  C   UNL     1       3.202   4.609  18.971  0.00  0.00    +0.000 A 
ATOM     16  C   UNL     1       2.764   4.742  20.260  0.00  0.00    +0.000 A 
ATOM     17  C   UNL     1       2.183   5.908  20.716  0.00  0.00    +0.000 A 
ATOM     18  C   UNL     1       2.005   6.990  19.826  0.00  0.00    +0.000 A 
ATOM     19  O   UNL     1       2.946   3.614  20.994  0.00  0.00    +0.000 OA
ATOM     20  C   UNL     1       3.493   2.725  19.995  0.00  0.00    +0.000 C 
ATOM     21  O   UNL     1       3.726   3.380  18.728  0.00  0.00    +0.000 OA
ENDROOT
BRANCH   1  23
ATOM     22  C   UNL     1      -1.376  13.996  23.648  0.00  0.00    +0.000 C 
ATOM     23  O   UNL     1      -2.051  13.062  22.810  0.00  0.00    +0.000 OA
ENDBRANCH   1  23
BRANCH  10  24
ATOM     24  O   UNL     1      -0.486  12.875  20.361  0.00  0.00    +0.000 OA
BRANCH  24  25
ATOM     25  C   UNL     1      -1.648  13.477  19.776  0.00  0.00    +0.000 C 
BRANCH  25  26
ATOM     26  C   UNL     1      -1.519  15.009  19.777  0.00  0.00    +0.000 C 
BRANCH  26  27
ATOM     27  O   UNL     1      -2.654  15.571  20.454  0.00  0.00    +0.000 OA
ATOM     28  H   UNL     1      -2.515  16.527  20.570  0.00  0.00    +0.000 HD
ENDBRANCH  26  27
BRANCH  26  29
ATOM     29  C   UNL     1      -0.203  15.406  20.464  0.00  0.00    +0.000 C 
BRANCH  29  30
ATOM     30  N   UNL     1       0.815  15.843  19.532  0.00  0.00    +0.000 N 
ATOM     31  C   UNL     1       2.100  15.376  19.503  0.00  0.00    +0.000 A 
ATOM     32  N   UNL     1       2.805  15.956  18.561  0.00  0.00    +0.000 NA
ATOM     33  C   UNL     1       1.938  16.821  17.942  0.00  0.00    +0.000 A 
ATOM     34  C   UNL     1       2.167  17.694  16.871  0.00  0.00    +0.000 A 
ATOM     35  C   UNL     1       1.107  18.479  16.403  0.00  0.00    +0.000 A 
ATOM     36  C   UNL     1      -0.158  18.391  16.986  0.00  0.00    +0.000 A 
ATOM     37  C   UNL     1      -0.408  17.527  18.060  0.00  0.00    +0.000 A 
ATOM     38  C   UNL     1       0.670  16.759  18.520  0.00  0.00    +0.000 A 
ENDBRANCH  29  30
ENDBRANCH  26  29
ENDBRANCH  25  26
ENDBRANCH  24  25
ENDBRANCH  10  24
TORSDOF 7
ENDMDL
MODEL 9
REMARK VINA RESULT:      -8.1      3.287      4.667
REMARK  Name = 
REMARK  8 active torsions:
REMARK  status: ('A' for Active; 'I' for Inactive)
REMARK    1  A    between atoms: C_1  and  O_2
REMARK    2  A    between atoms: O_2  and  C_3
REMARK    3  A    between atoms: C_12  and  O_13
REMARK    4  A    between atoms: O_13  and  C_14
REMARK    5  A    between atoms: C_14  and  C_15
REMARK    6  A    between atoms: C_15  and  O_16
REMARK    7  A    between atoms: C_15  and  C_17
REMARK    8  A    between atoms: C_17  and  N_18
REMARK                            x       y       z     vdW  Elec       q    Type
REMARK                         _______ _______ _______ _____ _____    ______ ____
ROOT
ATOM      1  C   UNL     1      -1.118  11.910  22.290  0.00  0.00    +0.000 A 
ATOM      2  C   UNL     1      -1.222  10.804  23.138  0.00  0.00    +0.000 A 
ATOM      3  C   UNL     1      -0.619   9.595  22.815  0.00  0.00    +0.000 A 
ATOM      4  C   UNL     1       0.108   9.459  21.634  0.00  0.00    +0.000 A 
ATOM      5  C   UNL     1       0.692   8.238  21.330  0.00  0.00    +0.000 A 
ATOM      6  C   UNL     1       1.451   8.068  20.166  0.00  0.00    +0.000 A 
ATOM      7  N   UNL     1       1.594   9.127  19.320  0.00  0.00    +0.000 N 
ATOM      8  C   UNL     1       1.014  10.327  19.597  0.00  0.00    +0.000 A 
ATOM      9  C   UNL     1       0.252  10.548  20.760  0.00  0.00    +0.000 A 
ATOM     10  C   UNL     1      -0.365  11.793  21.095  0.00  0.00    +0.000 A 
ATOM     11  C   UNL     1       2.475   9.035  18.123  0.00  0.00    +0.000 C 
ATOM     12  C   UNL     1       2.372   7.674  17.458  0.00  0.00    +0.000 C 
ATOM     13  C   UNL     1       2.560   6.578  18.470  0.00  0.00    +0.000 A 
ATOM     14  C   UNL     1       3.116   5.345  18.074  0.00  0.00    +0.000 A 
ATOM     15  C   UNL     1       3.183   4.334  19.005  0.00  0.00    +0.000 A 
ATOM     16  C   UNL     1       2.738   4.517  20.285  0.00  0.00    +0.000 A 
ATOM     17  C   UNL     1       2.207   5.718  20.709  0.00  0.00    +0.000 A 
ATOM     18  C   UNL     1       2.088   6.786  19.792  0.00  0.00    +0.000 A 
ATOM     19  O   UNL     1       2.860   3.399  21.048  0.00  0.00    +0.000 OA
ATOM     20  C   UNL     1       3.376   2.463  20.075  0.00  0.00    +0.000 C 
ATOM     21  O   UNL     1       3.651   3.077  18.796  0.00  0.00    +0.000 OA
ENDROOT
BRANCH   1  23
ATOM     22  C   UNL     1      -1.363  13.747  23.816  0.00  0.00    +0.000 C 
ATOM     23  O   UNL     1      -1.713  13.105  22.593  0.00  0.00    +0.000 OA
ENDBRANCH   1  23
BRANCH  10  24
ATOM     24  O   UNL     1      -0.134  12.790  20.166  0.00  0.00    +0.000 OA
BRANCH  24  25
ATOM     25  C   UNL     1       1.208  13.259  19.983  0.00  0.00    +0.000 C 
BRANCH  25  26
ATOM     26  C   UNL     1       1.387  14.644  20.624  0.00  0.00    +0.000 C 
BRANCH  26  27
ATOM     27  O   UNL     1       1.424  14.495  22.052  0.00  0.00    +0.000 OA
ATOM     28  H   UNL     1       0.514  14.490  22.396  0.00  0.00    +0.000 HD
ENDBRANCH  26  27
BRANCH  26  29
ATOM     29  C   UNL     1       2.681  15.284  20.094  0.00  0.00    +0.000 C 
BRANCH  29  30
ATOM     30  N   UNL     1       2.456  16.178  18.978  0.00  0.00    +0.000 N 
ATOM     31  C   UNL     1       3.411  16.554  18.075  0.00  0.00    +0.000 A 
ATOM     32  N   UNL     1       2.929  17.380  17.176  0.00  0.00    +0.000 NA
ATOM     33  C   UNL     1       1.604  17.530  17.499  0.00  0.00    +0.000 A 
ATOM     34  C   UNL     1       0.619  18.305  16.872  0.00  0.00    +0.000 A 
ATOM     35  C   UNL     1      -0.682  18.286  17.388  0.00  0.00    +0.000 A 
ATOM     36  C   UNL     1      -0.997  17.507  18.502  0.00  0.00    +0.000 A 
ATOM     37  C   UNL     1      -0.027  16.729  19.146  0.00  0.00    +0.000 A 
ATOM     38  C   UNL     1       1.270  16.770  18.620  0.00  0.00    +0.000 A 
ENDBRANCH  29  30
ENDBRANCH  26  29
ENDBRANCH  25  26
ENDBRANCH  24  25
ENDBRANCH  10  24
TORSDOF 7
ENDMDL
