MODEL 1
REMARK VINA RESULT:      -7.6      0.000      0.000
REMARK  Name = 
REMARK  11 active torsions:
REMARK  status: ('A' for Active; 'I' for Inactive)
REMARK    1  A    between atoms: C_1  and  C_2
REMARK    2  A    between atoms: C_5  and  C_6
REMARK    3  A    between atoms: C_6  and  C_8
REMARK    4  A    between atoms: C_8  and  N_9
REMARK    5  A    between atoms: N_9  and  C_10
REMARK    6  A    between atoms: N_9  and  S_15
REMARK    7  A    between atoms: C_10  and  C_11
REMARK    8  A    between atoms: C_11  and  C_12
REMARK    9  A    between atoms: C_12  and  O_14
REMARK   10  A    between atoms: S_15  and  C_18
REMARK   11  A    between atoms: C_21  and  N_22
REMARK                            x       y       z     vdW  Elec       q    Type
REMARK                         _______ _______ _______ _____ _____    ______ ____
ROOT
ATOM      1  N   UNL     1       3.730   4.981  19.055  0.00  0.00    +0.000 NA
ENDROOT
BRANCH   1   2
ATOM      2  S   UNL     1       4.259   3.500  18.336  0.00  0.00    +0.000 S 
ATOM      3  O   UNL     1       5.179   2.851  19.245  0.00  0.00    +0.000 OA
ATOM      4  O   UNL     1       3.077   2.823  17.848  0.00  0.00    +0.000 OA
BRANCH   2   5
ATOM      5  C   UNL     1       5.226   4.002  16.935  0.00  0.00    +0.000 A 
ATOM      6  C   UNL     1       4.757   3.718  15.647  0.00  0.00    +0.000 A 
ATOM      7  C   UNL     1       5.529   4.078  14.542  0.00  0.00    +0.000 A 
ATOM      8  C   UNL     1       6.753   4.741  14.737  0.00  0.00    +0.000 A 
ATOM      9  C   UNL     1       7.201   5.055  16.030  0.00  0.00    +0.000 A 
ATOM     10  C   UNL     1       6.431   4.684  17.133  0.00  0.00    +0.000 A 
BRANCH   8  11
ATOM     11  N   UNL     1       7.577   5.102  13.576  0.00  0.00    +0.000 N 
ATOM     12  O   UNL     1       8.556   5.836  13.774  0.00  0.00    +0.000 OA
ATOM     13  O   UNL     1       7.237   4.661  12.470  0.00  0.00    +0.000 OA
ENDBRANCH   8  11
ENDBRANCH   2   5
ENDBRANCH   1   2
BRANCH   1  14
ATOM     14  C   UNL     1       2.687   5.694  18.232  0.00  0.00    +0.000 C 
BRANCH  14  15
ATOM     15  C   UNL     1       2.962   7.164  17.982  0.00  0.00    +0.000 C 
ATOM     16  O   UNL     1       3.901   7.525  17.274  0.00  0.00    +0.000 OA
BRANCH  15  21
ATOM     17  C   UNL     1      -0.179  11.276  20.598  0.00  0.00    +0.000 C 
ATOM     18  C   UNL     1       0.557  10.174  19.894  0.00  0.00    +0.000 A 
ATOM     19  C   UNL     1       0.947   9.019  20.579  0.00  0.00    +0.000 A 
ATOM     20  C   UNL     1       1.699   8.035  19.934  0.00  0.00    +0.000 A 
ATOM     21  C   UNL     1       2.081   8.199  18.596  0.00  0.00    +0.000 A 
ATOM     22  C   UNL     1       1.640   9.323  17.892  0.00  0.00    +0.000 A 
ATOM     23  C   UNL     1       0.885  10.305  18.539  0.00  0.00    +0.000 A 
ENDBRANCH  15  21
ENDBRANCH  14  15
ENDBRANCH   1  14
BRANCH   1  24
ATOM     24  C   UNL     1       3.211   4.789  20.480  0.00  0.00    +0.000 C 
BRANCH  24  25
ATOM     25  C   UNL     1       1.701   4.589  20.557  0.00  0.00    +0.000 C 
BRANCH  25  26
ATOM     26  C   UNL     1       1.342   3.167  20.884  0.00  0.00    +0.000 C 
ATOM     27  O   UNL     1       1.460   2.644  21.983  0.00  0.00    +0.000 OA
BRANCH  26  28
ATOM     28  O   UNL     1       0.840   2.506  19.816  0.00  0.00    +0.000 OA
ATOM     29  H   UNL     1       1.068   2.911  18.955  0.00  0.00    +0.000 HD
ENDBRANCH  26  28
ENDBRANCH  25  26
ENDBRANCH  24  25
ENDBRANCH   1  24
TORSDOF 10
ENDMDL
MODEL 2
REMARK VINA RESULT:      -7.5      1.089      1.874
REMARK  Name = 
REMARK  11 active torsions:
REMARK  status: ('A' for Active; 'I' for Inactive)
REMARK    1  A    between atoms: C_1  and  C_2
REMARK    2  A    between atoms: C_5  and  C_6
REMARK    3  A    between atoms: C_6  and  C_8
REMARK    4  A    between atoms: C_8  and  N_9
REMARK    5  A    between atoms: N_9  and  C_10
REMARK    6  A    between atoms: N_9  and  S_15
REMARK    7  A    between atoms: C_10  and  C_11
REMARK    8  A    between atoms: C_11  and  C_12
REMARK    9  A    between atoms: C_12  and  O_14
REMARK   10  A    between atoms: S_15  and  C_18
REMARK   11  A    between atoms: C_21  and  N_22
REMARK                            x       y       z     vdW  Elec       q    Type
REMARK                         _______ _______ _______ _____ _____    ______ ____
ROOT
ATOM      1  N   UNL     1       3.722   5.120  19.217  0.00  0.00    +0.000 NA
ENDROOT
BRANCH   1   2
ATOM      2  S   UNL     1       5.226   4.266  19.192  0.00  0.00    +0.000 S 
ATOM      3  O   UNL     1       6.193   5.016  19.965  0.00  0.00    +0.000 OA
ATOM      4  O   UNL     1       4.929   2.882  19.495  0.00  0.00    +0.000 OA
BRANCH   2   5
ATOM      5  C   UNL     1       5.767   4.359  17.505  0.00  0.00    +0.000 A 
ATOM      6  C   UNL     1       6.946   5.052  17.206  0.00  0.00    +0.000 A 
ATOM      7  C   UNL     1       7.359   5.160  15.878  0.00  0.00    +0.000 A 
ATOM      8  C   UNL     1       6.600   4.551  14.864  0.00  0.00    +0.000 A 
ATOM      9  C   UNL     1       5.439   3.827  15.174  0.00  0.00    +0.000 A 
ATOM     10  C   UNL     1       5.023   3.729  16.502  0.00  0.00    +0.000 A 
BRANCH   8  11
ATOM     11  N   UNL     1       7.021   4.681  13.463  0.00  0.00    +0.000 N 
ATOM     12  O   UNL     1       7.788   5.612  13.178  0.00  0.00    +0.000 OA
ATOM     13  O   UNL     1       6.575   3.860  12.650  0.00  0.00    +0.000 OA
ENDBRANCH   8  11
ENDBRANCH   2   5
ENDBRANCH   1   2
BRANCH   1  14
ATOM     14  C   UNL     1       3.364   5.718  17.881  0.00  0.00    +0.000 C 
BRANCH  14  15
ATOM     15  C   UNL     1       3.504   7.225  17.792  0.00  0.00    +0.000 C 
ATOM     16  O   UNL     1       4.429   7.743  17.167  0.00  0.00    +0.000 OA
BRANCH  15  21
ATOM     17  C   UNL     1      -0.632  10.517  20.175  0.00  0.00    +0.000 C 
ATOM     18  C   UNL     1       0.500   9.720  19.594  0.00  0.00    +0.000 A 
ATOM     19  C   UNL     1       0.960   9.967  18.296  0.00  0.00    +0.000 A 
ATOM     20  C   UNL     1       1.961   9.169  17.738  0.00  0.00    +0.000 A 
ATOM     21  C   UNL     1       2.506   8.104  18.467  0.00  0.00    +0.000 A 
ATOM     22  C   UNL     1       2.092   7.894  19.785  0.00  0.00    +0.000 A 
ATOM     23  C   UNL     1       1.092   8.697  20.343  0.00  0.00    +0.000 A 
ENDBRANCH  15  21
ENDBRANCH  14  15
ENDBRANCH   1  14
BRANCH   1  24
ATOM     24  C   UNL     1       2.565   4.256  19.716  0.00  0.00    +0.000 C 
BRANCH  24  25
ATOM     25  C   UNL     1       1.536   3.933  18.637  0.00  0.00    +0.000 C 
BRANCH  25  26
ATOM     26  C   UNL     1       1.280   2.455  18.536  0.00  0.00    +0.000 C 
ATOM     27  O   UNL     1       0.215   1.906  18.778  0.00  0.00    +0.000 OA
BRANCH  26  28
ATOM     28  O   UNL     1       2.370   1.773  18.118  0.00  0.00    +0.000 OA
ATOM     29  H   UNL     1       2.984   2.303  17.570  0.00  0.00    +0.000 HD
ENDBRANCH  26  28
ENDBRANCH  25  26
ENDBRANCH  24  25
ENDBRANCH   1  24
TORSDOF 10
ENDMDL
MODEL 3
REMARK VINA RESULT:      -7.5      1.135      1.708
REMARK  Name = 
REMARK  11 active torsions:
REMARK  status: ('A' for Active; 'I' for Inactive)
REMARK    1  A    between atoms: C_1  and  C_2
REMARK    2  A    between atoms: C_5  and  C_6
REMARK    3  A    between atoms: C_6  and  C_8
REMARK    4  A    between atoms: C_8  and  N_9
REMARK    5  A    between atoms: N_9  and  C_10
REMARK    6  A    between atoms: N_9  and  S_15
REMARK    7  A    between atoms: C_10  and  C_11
REMARK    8  A    between atoms: C_11  and  C_12
REMARK    9  A    between atoms: C_12  and  O_14
REMARK   10  A    between atoms: S_15  and  C_18
REMARK   11  A    between atoms: C_21  and  N_22
REMARK                            x       y       z     vdW  Elec       q    Type
REMARK                         _______ _______ _______ _____ _____    ______ ____
ROOT
ATOM      1  N   UNL     1       3.790   5.076  19.301  0.00  0.00    +0.000 NA
ENDROOT
BRANCH   1   2
ATOM      2  S   UNL     1       5.359   4.352  19.229  0.00  0.00    +0.000 S 
ATOM      3  O   UNL     1       6.287   5.195  19.954  0.00  0.00    +0.000 OA
ATOM      4  O   UNL     1       5.194   2.954  19.560  0.00  0.00    +0.000 OA
BRANCH   2   5
ATOM      5  C   UNL     1       5.827   4.464  17.521  0.00  0.00    +0.000 A 
ATOM      6  C   UNL     1       5.048   3.813  16.558  0.00  0.00    +0.000 A 
ATOM      7  C   UNL     1       5.429   3.867  15.217  0.00  0.00    +0.000 A 
ATOM      8  C   UNL     1       6.574   4.593  14.851  0.00  0.00    +0.000 A 
ATOM      9  C   UNL     1       7.332   5.274  15.816  0.00  0.00    +0.000 A 
ATOM     10  C   UNL     1       6.953   5.210  17.158  0.00  0.00    +0.000 A 
BRANCH   8  11
ATOM     11  N   UNL     1       6.990   4.634  13.442  0.00  0.00    +0.000 N 
ATOM     12  O   UNL     1       7.772   5.532  13.100  0.00  0.00    +0.000 OA
ATOM     13  O   UNL     1       6.524   3.776  12.680  0.00  0.00    +0.000 OA
ENDBRANCH   8  11
ENDBRANCH   2   5
ENDBRANCH   1   2
BRANCH   1  14
ATOM     14  C   UNL     1       3.329   5.613  17.970  0.00  0.00    +0.000 C 
BRANCH  14  15
ATOM     15  C   UNL     1       3.454   7.115  17.806  0.00  0.00    +0.000 C 
ATOM     16  O   UNL     1       4.344   7.608  17.114  0.00  0.00    +0.000 OA
BRANCH  15  21
ATOM     17  C   UNL     1      -0.580  10.513  20.214  0.00  0.00    +0.000 C 
ATOM     18  C   UNL     1       0.527   9.688  19.626  0.00  0.00    +0.000 A 
ATOM     19  C   UNL     1       0.983   9.920  18.324  0.00  0.00    +0.000 A 
ATOM     20  C   UNL     1       1.959   9.096  17.760  0.00  0.00    +0.000 A 
ATOM     21  C   UNL     1       2.484   8.020  18.487  0.00  0.00    +0.000 A 
ATOM     22  C   UNL     1       2.075   7.823  19.809  0.00  0.00    +0.000 A 
ATOM     23  C   UNL     1       1.100   8.651  20.372  0.00  0.00    +0.000 A 
ENDBRANCH  15  21
ENDBRANCH  14  15
ENDBRANCH   1  14
BRANCH   1  24
ATOM     24  C   UNL     1       2.732   4.127  19.862  0.00  0.00    +0.000 C 
BRANCH  24  25
ATOM     25  C   UNL     1       1.553   3.902  18.919  0.00  0.00    +0.000 C 
BRANCH  25  26
ATOM     26  C   UNL     1       1.536   2.503  18.373  0.00  0.00    +0.000 C 
ATOM     27  O   UNL     1       2.506   1.905  17.933  0.00  0.00    +0.000 OA
BRANCH  26  28
ATOM     28  O   UNL     1       0.306   1.942  18.438  0.00  0.00    +0.000 OA
ATOM     29  H   UNL     1       0.304   0.974  18.297  0.00  0.00    +0.000 HD
ENDBRANCH  26  28
ENDBRANCH  25  26
ENDBRANCH  24  25
ENDBRANCH   1  24
TORSDOF 10
ENDMDL
MODEL 4
REMARK VINA RESULT:      -7.4      1.451      1.975
REMARK  Name = 
REMARK  11 active torsions:
REMARK  status: ('A' for Active; 'I' for Inactive)
REMARK    1  A    between atoms: C_1  and  C_2
REMARK    2  A    between atoms: C_5  and  C_6
REMARK    3  A    between atoms: C_6  and  C_8
REMARK    4  A    between atoms: C_8  and  N_9
REMARK    5  A    between atoms: N_9  and  C_10
REMARK    6  A    between atoms: N_9  and  S_15
REMARK    7  A    between atoms: C_10  and  C_11
REMARK    8  A    between atoms: C_11  and  C_12
REMARK    9  A    between atoms: C_12  and  O_14
REMARK   10  A    between atoms: S_15  and  C_18
REMARK   11  A    between atoms: C_21  and  N_22
REMARK                            x       y       z     vdW  Elec       q    Type
REMARK                         _______ _______ _______ _____ _____    ______ ____
ROOT
ATOM      1  N   UNL     1       3.543   4.841  18.865  0.00  0.00    +0.000 NA
ENDROOT
BRANCH   1   2
ATOM      2  S   UNL     1       5.201   4.362  18.982  0.00  0.00    +0.000 S 
ATOM      3  O   UNL     1       5.900   5.324  19.807  0.00  0.00    +0.000 OA
ATOM      4  O   UNL     1       5.210   2.950  19.297  0.00  0.00    +0.000 OA
BRANCH   2   5
ATOM      5  C   UNL     1       5.844   4.566  17.340  0.00  0.00    +0.000 A 
ATOM      6  C   UNL     1       5.530   3.614  16.364  0.00  0.00    +0.000 A 
ATOM      7  C   UNL     1       6.060   3.748  15.080  0.00  0.00    +0.000 A 
ATOM      8  C   UNL     1       6.880   4.850  14.781  0.00  0.00    +0.000 A 
ATOM      9  C   UNL     1       7.161   5.821  15.754  0.00  0.00    +0.000 A 
ATOM     10  C   UNL     1       6.637   5.677  17.040  0.00  0.00    +0.000 A 
BRANCH   8  11
ATOM     11  N   UNL     1       7.457   4.983  13.436  0.00  0.00    +0.000 N 
ATOM     12  O   UNL     1       8.380   5.795  13.286  0.00  0.00    +0.000 OA
ATOM     13  O   UNL     1       6.977   4.284  12.533  0.00  0.00    +0.000 OA
ENDBRANCH   8  11
ENDBRANCH   2   5
ENDBRANCH   1   2
BRANCH   1  14
ATOM     14  C   UNL     1       3.362   6.337  18.874  0.00  0.00    +0.000 C 
BRANCH  14  15
ATOM     15  C   UNL     1       2.267   6.847  19.790  0.00  0.00    +0.000 C 
ATOM     16  O   UNL     1       1.820   6.147  20.697  0.00  0.00    +0.000 OA
BRANCH  15  21
ATOM     17  C   UNL     1      -0.107  12.042  18.796  0.00  0.00    +0.000 C 
ATOM     18  C   UNL     1       0.580  10.740  19.084  0.00  0.00    +0.000 A 
ATOM     19  C   UNL     1       1.323  10.085  18.096  0.00  0.00    +0.000 A 
ATOM     20  C   UNL     1       1.894   8.836  18.353  0.00  0.00    +0.000 A 
ATOM     21  C   UNL     1       1.717   8.220  19.598  0.00  0.00    +0.000 A 
ATOM     22  C   UNL     1       1.028   8.899  20.607  0.00  0.00    +0.000 A 
ATOM     23  C   UNL     1       0.461  10.150  20.349  0.00  0.00    +0.000 A 
ENDBRANCH  15  21
ENDBRANCH  14  15
ENDBRANCH   1  14
BRANCH   1  24
ATOM     24  C   UNL     1       2.846   4.250  17.640  0.00  0.00    +0.000 C 
BRANCH  24  25
ATOM     25  C   UNL     1       1.382   3.897  17.883  0.00  0.00    +0.000 C 
BRANCH  25  26
ATOM     26  C   UNL     1       1.236   2.578  18.587  0.00  0.00    +0.000 C 
ATOM     27  O   UNL     1       0.178   2.002  18.793  0.00  0.00    +0.000 OA
BRANCH  26  28
ATOM     28  O   UNL     1       2.428   2.063  18.965  0.00  0.00    +0.000 OA
ATOM     29  H   UNL     1       2.594   1.159  18.628  0.00  0.00    +0.000 HD
ENDBRANCH  26  28
ENDBRANCH  25  26
ENDBRANCH  24  25
ENDBRANCH   1  24
TORSDOF 10
ENDMDL
MODEL 5
REMARK VINA RESULT:      -7.2      1.467      2.252
REMARK  Name = 
REMARK  11 active torsions:
REMARK  status: ('A' for Active; 'I' for Inactive)
REMARK    1  A    between atoms: C_1  and  C_2
REMARK    2  A    between atoms: C_5  and  C_6
REMARK    3  A    between atoms: C_6  and  C_8
REMARK    4  A    between atoms: C_8  and  N_9
REMARK    5  A    between atoms: N_9  and  C_10
REMARK    6  A    between atoms: N_9  and  S_15
REMARK    7  A    between atoms: C_10  and  C_11
REMARK    8  A    between atoms: C_11  and  C_12
REMARK    9  A    between atoms: C_12  and  O_14
REMARK   10  A    between atoms: S_15  and  C_18
REMARK   11  A    between atoms: C_21  and  N_22
REMARK                            x       y       z     vdW  Elec       q    Type
REMARK                         _______ _______ _______ _____ _____    ______ ____
ROOT
ATOM      1  N   UNL     1       3.570   4.943  18.793  0.00  0.00    +0.000 NA
ENDROOT
BRANCH   1   2
ATOM      2  S   UNL     1       5.231   4.496  18.966  0.00  0.00    +0.000 S 
ATOM      3  O   UNL     1       5.900   5.510  19.752  0.00  0.00    +0.000 OA
ATOM      4  O   UNL     1       5.254   3.102  19.355  0.00  0.00    +0.000 OA
BRANCH   2   5
ATOM      5  C   UNL     1       5.902   4.622  17.328  0.00  0.00    +0.000 A 
ATOM      6  C   UNL     1       6.665   5.746  16.991  0.00  0.00    +0.000 A 
ATOM      7  C   UNL     1       7.167   5.870  15.694  0.00  0.00    +0.000 A 
ATOM      8  C   UNL     1       6.919   4.854  14.755  0.00  0.00    +0.000 A 
ATOM      9  C   UNL     1       6.184   3.712  15.110  0.00  0.00    +0.000 A 
ATOM     10  C   UNL     1       5.676   3.597  16.404  0.00  0.00    +0.000 A 
BRANCH   8  11
ATOM     11  N   UNL     1       7.428   4.991  13.384  0.00  0.00    +0.000 N 
ATOM     12  O   UNL     1       6.880   4.320  12.498  0.00  0.00    +0.000 OA
ATOM     13  O   UNL     1       8.381   5.761  13.199  0.00  0.00    +0.000 OA
ENDBRANCH   8  11
ENDBRANCH   2   5
ENDBRANCH   1   2
BRANCH   1  14
ATOM     14  C   UNL     1       3.360   6.436  18.799  0.00  0.00    +0.000 C 
BRANCH  14  15
ATOM     15  C   UNL     1       2.279   6.930  19.740  0.00  0.00    +0.000 C 
ATOM     16  O   UNL     1       1.860   6.221  20.655  0.00  0.00    +0.000 OA
BRANCH  15  21
ATOM     17  C   UNL     1      -0.167  12.105  18.817  0.00  0.00    +0.000 C 
ATOM     18  C   UNL     1       0.539  10.808  19.088  0.00  0.00    +0.000 A 
ATOM     19  C   UNL     1       1.287  10.175  18.089  0.00  0.00    +0.000 A 
ATOM     20  C   UNL     1       1.875   8.931  18.329  0.00  0.00    +0.000 A 
ATOM     21  C   UNL     1       1.711   8.297  19.568  0.00  0.00    +0.000 A 
ATOM     22  C   UNL     1       1.016   8.955  20.586  0.00  0.00    +0.000 A 
ATOM     23  C   UNL     1       0.431  10.202  20.345  0.00  0.00    +0.000 A 
ENDBRANCH  15  21
ENDBRANCH  14  15
ENDBRANCH   1  14
BRANCH   1  24
ATOM     24  C   UNL     1       2.927   4.343  17.543  0.00  0.00    +0.000 C 
BRANCH  24  25
ATOM     25  C   UNL     1       1.455   3.985  17.727  0.00  0.00    +0.000 C 
BRANCH  25  26
ATOM     26  C   UNL     1       1.284   2.680  18.452  0.00  0.00    +0.000 C 
ATOM     27  O   UNL     1       0.232   2.070  18.567  0.00  0.00    +0.000 OA
BRANCH  26  28
ATOM     28  O   UNL     1       2.450   2.221  18.962  0.00  0.00    +0.000 OA
ATOM     29  H   UNL     1       2.338   1.605  19.714  0.00  0.00    +0.000 HD
ENDBRANCH  26  28
ENDBRANCH  25  26
ENDBRANCH  24  25
ENDBRANCH   1  24
TORSDOF 10
ENDMDL
MODEL 6
REMARK VINA RESULT:      -7.2      2.258      5.216
REMARK  Name = 
REMARK  11 active torsions:
REMARK  status: ('A' for Active; 'I' for Inactive)
REMARK    1  A    between atoms: C_1  and  C_2
REMARK    2  A    between atoms: C_5  and  C_6
REMARK    3  A    between atoms: C_6  and  C_8
REMARK    4  A    between atoms: C_8  and  N_9
REMARK    5  A    between atoms: N_9  and  C_10
REMARK    6  A    between atoms: N_9  and  S_15
REMARK    7  A    between atoms: C_10  and  C_11
REMARK    8  A    between atoms: C_11  and  C_12
REMARK    9  A    between atoms: C_12  and  O_14
REMARK   10  A    between atoms: S_15  and  C_18
REMARK   11  A    between atoms: C_21  and  N_22
REMARK                            x       y       z     vdW  Elec       q    Type
REMARK                         _______ _______ _______ _____ _____    ______ ____
ROOT
ATOM      1  N   UNL     1       5.690   6.111  16.618  0.00  0.00    +0.000 NA
ENDROOT
BRANCH   1   2
ATOM      2  S   UNL     1       5.317   4.459  16.268  0.00  0.00    +0.000 S 
ATOM      3  O   UNL     1       4.485   4.418  15.084  0.00  0.00    +0.000 OA
ATOM      4  O   UNL     1       6.559   3.721  16.342  0.00  0.00    +0.000 OA
BRANCH   2   5
ATOM      5  C   UNL     1       4.283   3.938  17.612  0.00  0.00    +0.000 A 
ATOM      6  C   UNL     1       2.900   3.848  17.412  0.00  0.00    +0.000 A 
ATOM      7  C   UNL     1       2.077   3.473  18.475  0.00  0.00    +0.000 A 
ATOM      8  C   UNL     1       2.650   3.168  19.721  0.00  0.00    +0.000 A 
ATOM      9  C   UNL     1       4.040   3.225  19.906  0.00  0.00    +0.000 A 
ATOM     10  C   UNL     1       4.859   3.609  18.843  0.00  0.00    +0.000 A 
BRANCH   8  11
ATOM     11  N   UNL     1       1.784   2.794  20.848  0.00  0.00    +0.000 N 
ATOM     12  O   UNL     1       0.559   2.840  20.669  0.00  0.00    +0.000 OA
ATOM     13  O   UNL     1       2.331   2.467  21.909  0.00  0.00    +0.000 OA
ENDBRANCH   8  11
ENDBRANCH   2   5
ENDBRANCH   1   2
BRANCH   1  14
ATOM     14  C   UNL     1       4.910   6.654  17.788  0.00  0.00    +0.000 C 
BRANCH  14  15
ATOM     15  C   UNL     1       3.672   7.450  17.421  0.00  0.00    +0.000 C 
ATOM     16  O   UNL     1       3.466   7.806  16.261  0.00  0.00    +0.000 OA
BRANCH  15  21
ATOM     17  C   UNL     1       0.101   8.887  21.756  0.00  0.00    +0.000 C 
ATOM     18  C   UNL     1       0.956   8.475  20.593  0.00  0.00    +0.000 A 
ATOM     19  C   UNL     1       1.688   7.284  20.627  0.00  0.00    +0.000 A 
ATOM     20  C   UNL     1       2.540   6.949  19.572  0.00  0.00    +0.000 A 
ATOM     21  C   UNL     1       2.680   7.808  18.475  0.00  0.00    +0.000 A 
ATOM     22  C   UNL     1       1.904   8.969  18.411  0.00  0.00    +0.000 A 
ATOM     23  C   UNL     1       1.049   9.300  19.466  0.00  0.00    +0.000 A 
ENDBRANCH  15  21
ENDBRANCH  14  15
ENDBRANCH   1  14
BRANCH   1  24
ATOM     24  C   UNL     1       7.183   6.338  16.851  0.00  0.00    +0.000 C 
BRANCH  24  25
ATOM     25  C   UNL     1       7.525   6.716  18.289  0.00  0.00    +0.000 C 
BRANCH  25  26
ATOM     26  C   UNL     1       7.848   5.507  19.121  0.00  0.00    +0.000 C 
ATOM     27  O   UNL     1       7.746   5.440  20.337  0.00  0.00    +0.000 OA
BRANCH  26  28
ATOM     28  O   UNL     1       8.254   4.460  18.368  0.00  0.00    +0.000 OA
ATOM     29  H   UNL     1       7.620   4.205  17.668  0.00  0.00    +0.000 HD
ENDBRANCH  26  28
ENDBRANCH  25  26
ENDBRANCH  24  25
ENDBRANCH   1  24
TORSDOF 10
ENDMDL
MODEL 7
REMARK VINA RESULT:      -7.1      0.580      1.356
REMARK  Name = 
REMARK  11 active torsions:
REMARK  status: ('A' for Active; 'I' for Inactive)
REMARK    1  A    between atoms: C_1  and  C_2
REMARK    2  A    between atoms: C_5  and  C_6
REMARK    3  A    between atoms: C_6  and  C_8
REMARK    4  A    between atoms: C_8  and  N_9
REMARK    5  A    between atoms: N_9  and  C_10
REMARK    6  A    between atoms: N_9  and  S_15
REMARK    7  A    between atoms: C_10  and  C_11
REMARK    8  A    between atoms: C_11  and  C_12
REMARK    9  A    between atoms: C_12  and  O_14
REMARK   10  A    between atoms: S_15  and  C_18
REMARK   11  A    between atoms: C_21  and  N_22
REMARK                            x       y       z     vdW  Elec       q    Type
REMARK                         _______ _______ _______ _____ _____    ______ ____
ROOT
ATOM      1  N   UNL     1       3.237   4.932  18.898  0.00  0.00    +0.000 NA
ENDROOT
BRANCH   1   2
ATOM      2  S   UNL     1       4.202   3.541  18.543  0.00  0.00    +0.000 S 
ATOM      3  O   UNL     1       5.153   3.357  19.619  0.00  0.00    +0.000 OA
ATOM      4  O   UNL     1       3.294   2.486  18.150  0.00  0.00    +0.000 OA
BRANCH   2   5
ATOM      5  C   UNL     1       5.156   4.008  17.121  0.00  0.00    +0.000 A 
ATOM      6  C   UNL     1       4.625   3.787  15.844  0.00  0.00    +0.000 A 
ATOM      7  C   UNL     1       5.383   4.118  14.721  0.00  0.00    +0.000 A 
ATOM      8  C   UNL     1       6.656   4.691  14.887  0.00  0.00    +0.000 A 
ATOM      9  C   UNL     1       7.167   4.944  16.170  0.00  0.00    +0.000 A 
ATOM     10  C   UNL     1       6.410   4.602  17.291  0.00  0.00    +0.000 A 
BRANCH   8  11
ATOM     11  N   UNL     1       7.465   5.021  13.706  0.00  0.00    +0.000 N 
ATOM     12  O   UNL     1       7.136   4.513  12.625  0.00  0.00    +0.000 OA
ATOM     13  O   UNL     1       8.432   5.778  13.866  0.00  0.00    +0.000 OA
ENDBRANCH   8  11
ENDBRANCH   2   5
ENDBRANCH   1   2
BRANCH   1  14
ATOM     14  C   UNL     1       2.950   5.774  17.681  0.00  0.00    +0.000 C 
BRANCH  14  15
ATOM     15  C   UNL     1       3.298   7.243  17.820  0.00  0.00    +0.000 C 
ATOM     16  O   UNL     1       4.355   7.691  17.376  0.00  0.00    +0.000 OA
BRANCH  15  21
ATOM     17  C   UNL     1      -0.660  10.726  20.231  0.00  0.00    +0.000 C 
ATOM     18  C   UNL     1       0.429   9.879  19.640  0.00  0.00    +0.000 A 
ATOM     19  C   UNL     1       0.865  10.083  18.327  0.00  0.00    +0.000 A 
ATOM     20  C   UNL     1       1.823   9.238  17.762  0.00  0.00    +0.000 A 
ATOM     21  C   UNL     1       2.349   8.170  18.500  0.00  0.00    +0.000 A 
ATOM     22  C   UNL     1       1.960   8.001  19.832  0.00  0.00    +0.000 A 
ATOM     23  C   UNL     1       1.003   8.850  20.396  0.00  0.00    +0.000 A 
ENDBRANCH  15  21
ENDBRANCH  14  15
ENDBRANCH   1  14
BRANCH   1  24
ATOM     24  C   UNL     1       1.923   4.572  19.590  0.00  0.00    +0.000 C 
BRANCH  24  25
ATOM     25  C   UNL     1       2.073   4.310  21.086  0.00  0.00    +0.000 C 
BRANCH  25  26
ATOM     26  C   UNL     1       1.923   2.851  21.413  0.00  0.00    +0.000 C 
ATOM     27  O   UNL     1       1.041   2.120  20.988  0.00  0.00    +0.000 OA
BRANCH  26  28
ATOM     28  O   UNL     1       2.903   2.406  22.233  0.00  0.00    +0.000 OA
ATOM     29  H   UNL     1       3.408   3.120  22.672  0.00  0.00    +0.000 HD
ENDBRANCH  26  28
ENDBRANCH  25  26
ENDBRANCH  24  25
ENDBRANCH   1  24
TORSDOF 10
ENDMDL
MODEL 8
REMARK VINA RESULT:      -7.1      0.706      1.404
REMARK  Name = 
REMARK  11 active torsions:
REMARK  status: ('A' for Active; 'I' for Inactive)
REMARK    1  A    between atoms: C_1  and  C_2
REMARK    2  A    between atoms: C_5  and  C_6
REMARK    3  A    between atoms: C_6  and  C_8
REMARK    4  A    between atoms: C_8  and  N_9
REMARK    5  A    between atoms: N_9  and  C_10
REMARK    6  A    between atoms: N_9  and  S_15
REMARK    7  A    between atoms: C_10  and  C_11
REMARK    8  A    between atoms: C_11  and  C_12
REMARK    9  A    between atoms: C_12  and  O_14
REMARK   10  A    between atoms: S_15  and  C_18
REMARK   11  A    between atoms: C_21  and  N_22
REMARK                            x       y       z     vdW  Elec       q    Type
REMARK                         _______ _______ _______ _____ _____    ______ ____
ROOT
ATOM      1  N   UNL     1       3.669   4.823  18.503  0.00  0.00    +0.000 NA
ENDROOT
BRANCH   1   2
ATOM      2  S   UNL     1       3.669   3.523  17.362  0.00  0.00    +0.000 S 
ATOM      3  O   UNL     1       4.183   2.339  18.017  0.00  0.00    +0.000 OA
ATOM      4  O   UNL     1       2.373   3.527  16.719  0.00  0.00    +0.000 OA
BRANCH   2   5
ATOM      5  C   UNL     1       4.886   3.984  16.156  0.00  0.00    +0.000 A 
ATOM      6  C   UNL     1       6.058   4.621  16.582  0.00  0.00    +0.000 A 
ATOM      7  C   UNL     1       7.004   5.019  15.636  0.00  0.00    +0.000 A 
ATOM      8  C   UNL     1       6.777   4.753  14.275  0.00  0.00    +0.000 A 
ATOM      9  C   UNL     1       5.617   4.081  13.858  0.00  0.00    +0.000 A 
ATOM     10  C   UNL     1       4.669   3.694  14.806  0.00  0.00    +0.000 A 
BRANCH   8  11
ATOM     11  N   UNL     1       7.761   5.189  13.275  0.00  0.00    +0.000 N 
ATOM     12  O   UNL     1       7.614   4.788  12.112  0.00  0.00    +0.000 OA
ATOM     13  O   UNL     1       8.684   5.920  13.659  0.00  0.00    +0.000 OA
ENDBRANCH   8  11
ENDBRANCH   2   5
ENDBRANCH   1   2
BRANCH   1  14
ATOM     14  C   UNL     1       2.485   5.743  18.345  0.00  0.00    +0.000 C 
BRANCH  14  15
ATOM     15  C   UNL     1       2.831   7.204  18.132  0.00  0.00    +0.000 C 
ATOM     16  O   UNL     1       3.810   7.535  17.463  0.00  0.00    +0.000 OA
BRANCH  15  21
ATOM     17  C   UNL     1      -0.207  11.427  20.691  0.00  0.00    +0.000 C 
ATOM     18  C   UNL     1       0.502  10.295  20.006  0.00  0.00    +0.000 A 
ATOM     19  C   UNL     1       0.908   9.164  20.721  0.00  0.00    +0.000 A 
ATOM     20  C   UNL     1       1.634   8.152  20.088  0.00  0.00    +0.000 A 
ATOM     21  C   UNL     1       1.975   8.266  18.735  0.00  0.00    +0.000 A 
ATOM     22  C   UNL     1       1.519   9.366  18.004  0.00  0.00    +0.000 A 
ATOM     23  C   UNL     1       0.789  10.375  18.638  0.00  0.00    +0.000 A 
ENDBRANCH  15  21
ENDBRANCH  14  15
ENDBRANCH   1  14
BRANCH   1  24
ATOM     24  C   UNL     1       3.745   4.335  19.949  0.00  0.00    +0.000 C 
BRANCH  24  25
ATOM     25  C   UNL     1       2.437   4.499  20.718  0.00  0.00    +0.000 C 
BRANCH  25  26
ATOM     26  C   UNL     1       1.966   3.197  21.301  0.00  0.00    +0.000 C 
ATOM     27  O   UNL     1       0.835   2.745  21.196  0.00  0.00    +0.000 OA
BRANCH  26  28
ATOM     28  O   UNL     1       2.952   2.541  21.955  0.00  0.00    +0.000 OA
ATOM     29  H   UNL     1       3.819   2.993  21.923  0.00  0.00    +0.000 HD
ENDBRANCH  26  28
ENDBRANCH  25  26
ENDBRANCH  24  25
ENDBRANCH   1  24
TORSDOF 10
ENDMDL
MODEL 9
REMARK VINA RESULT:      -7.1      0.902      1.267
REMARK  Name = 
REMARK  11 active torsions:
REMARK  status: ('A' for Active; 'I' for Inactive)
REMARK    1  A    between atoms: C_1  and  C_2
REMARK    2  A    between atoms: C_5  and  C_6
REMARK    3  A    between atoms: C_6  and  C_8
REMARK    4  A    between atoms: C_8  and  N_9
REMARK    5  A    between atoms: N_9  and  C_10
REMARK    6  A    between atoms: N_9  and  S_15
REMARK    7  A    between atoms: C_10  and  C_11
REMARK    8  A    between atoms: C_11  and  C_12
REMARK    9  A    between atoms: C_12  and  O_14
REMARK   10  A    between atoms: S_15  and  C_18
REMARK   11  A    between atoms: C_21  and  N_22
REMARK                            x       y       z     vdW  Elec       q    Type
REMARK                         _______ _______ _______ _____ _____    ______ ____
ROOT
ATOM      1  N   UNL     1       3.817   4.974  19.759  0.00  0.00    +0.000 NA
ENDROOT
BRANCH   1   2
ATOM      2  S   UNL     1       4.263   3.468  19.035  0.00  0.00    +0.000 S 
ATOM      3  O   UNL     1       5.226   2.813  19.894  0.00  0.00    +0.000 OA
ATOM      4  O   UNL     1       3.036   2.812  18.638  0.00  0.00    +0.000 OA
BRANCH   2   5
ATOM      5  C   UNL     1       5.147   3.922  17.564  0.00  0.00    +0.000 A 
ATOM      6  C   UNL     1       4.478   3.900  16.335  0.00  0.00    +0.000 A 
ATOM      7  C   UNL     1       5.176   4.222  15.169  0.00  0.00    +0.000 A 
ATOM      8  C   UNL     1       6.530   4.585  15.251  0.00  0.00    +0.000 A 
ATOM      9  C   UNL     1       7.186   4.641  16.491  0.00  0.00    +0.000 A 
ATOM     10  C   UNL     1       6.487   4.309  17.653  0.00  0.00    +0.000 A 
BRANCH   8  11
ATOM     11  N   UNL     1       7.273   4.904  14.024  0.00  0.00    +0.000 N 
ATOM     12  O   UNL     1       8.222   5.695  14.116  0.00  0.00    +0.000 OA
ATOM     13  O   UNL     1       6.897   4.372  12.971  0.00  0.00    +0.000 OA
ENDBRANCH   8  11
ENDBRANCH   2   5
ENDBRANCH   1   2
BRANCH   1  14
ATOM     14  C   UNL     1       3.893   6.134  18.799  0.00  0.00    +0.000 C 
BRANCH  14  15
ATOM     15  C   UNL     1       2.555   6.650  18.308  0.00  0.00    +0.000 C 
ATOM     16  O   UNL     1       1.852   5.979  17.553  0.00  0.00    +0.000 OA
BRANCH  15  21
ATOM     17  C   UNL     1       0.387  11.826  19.768  0.00  0.00    +0.000 C 
ATOM     18  C   UNL     1       1.028  10.513  19.422  0.00  0.00    +0.000 A 
ATOM     19  C   UNL     1       1.554  10.285  18.146  0.00  0.00    +0.000 A 
ATOM     20  C   UNL     1       2.078   9.035  17.811  0.00  0.00    +0.000 A 
ATOM     21  C   UNL     1       2.070   7.991  18.745  0.00  0.00    +0.000 A 
ATOM     22  C   UNL     1       1.601   8.234  20.039  0.00  0.00    +0.000 A 
ATOM     23  C   UNL     1       1.081   9.487  20.373  0.00  0.00    +0.000 A 
ENDBRANCH  15  21
ENDBRANCH  14  15
ENDBRANCH   1  14
BRANCH   1  24
ATOM     24  C   UNL     1       2.428   4.930  20.397  0.00  0.00    +0.000 C 
BRANCH  24  25
ATOM     25  C   UNL     1       2.376   4.120  21.689  0.00  0.00    +0.000 C 
BRANCH  25  26
ATOM     26  C   UNL     1       1.446   2.946  21.573  0.00  0.00    +0.000 C 
ATOM     27  O   UNL     1       1.457   1.963  22.301  0.00  0.00    +0.000 OA
BRANCH  26  28
ATOM     28  O   UNL     1       0.553   3.095  20.569  0.00  0.00    +0.000 OA
ATOM     29  H   UNL     1      -0.082   3.825  20.708  0.00  0.00    +0.000 HD
ENDBRANCH  26  28
ENDBRANCH  25  26
ENDBRANCH  24  25
ENDBRANCH   1  24
TORSDOF 10
ENDMDL
