MODEL 1
REMARK VINA RESULT:      -9.2      0.000      0.000
REMARK  Name = 
REMARK  10 active torsions:
REMARK  status: ('A' for Active; 'I' for Inactive)
REMARK    1  A    between atoms: C_1  and  O_2
REMARK    2  A    between atoms: O_2  and  C_3
REMARK    3  A    between atoms: C_7  and  N_8
REMARK    4  A    between atoms: N_8  and  C_9
REMARK    5  A    between atoms: C_12  and  C_13
REMARK    6  A    between atoms: C_13  and  C_14
REMARK    7  A    between atoms: N_15  and  O_16
REMARK    8  A    between atoms: O_16  and  C_17
REMARK    9  A    between atoms: C_17  and  C_18
REMARK   10  A    between atoms: C_18  and  N_19
REMARK                            x       y       z     vdW  Elec       q    Type
REMARK                         _______ _______ _______ _____ _____    ______ ____
ROOT
ATOM      1  N   UNL     1       3.071   6.344  19.661  0.00  0.00    +0.000 N 
ATOM      2  H   UNL     1       3.195   6.095  20.640  0.00  0.00    +0.000 HD
ENDROOT
BRANCH   1   7
ATOM      3  C   UNL     1       6.543   5.509  15.962  0.00  0.00    +0.000 A 
ATOM      4  C   UNL     1       6.436   6.429  16.980  0.00  0.00    +0.000 A 
ATOM      5  C   UNL     1       5.452   6.275  17.934  0.00  0.00    +0.000 A 
ATOM      6  C   UNL     1       4.433   5.312  17.831  0.00  0.00    +0.000 A 
ATOM      7  C   UNL     1       3.320   5.299  18.733  0.00  0.00    +0.000 A 
ATOM      8  C   UNL     1       2.475   4.178  18.636  0.00  0.00    +0.000 A 
ATOM      9  C   UNL     1       1.309   3.697  19.297  0.00  0.00    +0.000 A 
ATOM     10 CL   UNL     1       0.508   4.441  20.596  0.00  0.00    +0.000 Cl
ATOM     11  C   UNL     1       0.962   2.516  18.686  0.00  0.00    +0.000 A 
ATOM     12  O   UNL     1       1.822   2.240  17.672  0.00  0.00    +0.000 OA
ATOM     13  C   UNL     1       2.740   3.248  17.630  0.00  0.00    +0.000 A 
ATOM     14  N   UNL     1       3.722   3.291  16.715  0.00  0.00    +0.000 NA
ATOM     15  C   UNL     1       4.561   4.328  16.826  0.00  0.00    +0.000 A 
ATOM     16  C   UNL     1       5.623   4.447  15.915  0.00  0.00    +0.000 A 
BRANCH   3  18
ATOM     17  C   UNL     1       7.205   4.868  13.785  0.00  0.00    +0.000 C 
ATOM     18  O   UNL     1       7.521   5.556  15.002  0.00  0.00    +0.000 OA
ENDBRANCH   3  18
ENDBRANCH   1   7
BRANCH   1  19
ATOM     19  C   UNL     1       2.450   7.602  19.456  0.00  0.00    +0.000 A 
ATOM     20  C   UNL     1       1.661   8.205  20.450  0.00  0.00    +0.000 A 
ATOM     21  C   UNL     1       0.695   9.175  20.115  0.00  0.00    +0.000 A 
ATOM     22  C   UNL     1       0.574   9.618  18.800  0.00  0.00    +0.000 A 
ATOM     23  C   UNL     1       1.467   9.126  17.834  0.00  0.00    +0.000 A 
ATOM     24  C   UNL     1       2.391   8.124  18.160  0.00  0.00    +0.000 A 
BRANCH  22  25
ATOM     25  C   UNL     1      -0.563  10.517  18.421  0.00  0.00    +0.000 C 
ATOM     26  C   UNL     1      -0.523  11.967  18.862  0.00  0.00    +0.000 C 
ATOM     27  N   UNL     1      -1.538  10.046  17.694  0.00  0.00    +0.000 NA
BRANCH  27  28
ATOM     28  O   UNL     1      -2.482  11.055  17.411  0.00  0.00    +0.000 OA
BRANCH  28  29
ATOM     29  C   UNL     1      -3.793  10.597  17.759  0.00  0.00    +0.000 C 
BRANCH  29  30
ATOM     30  C   UNL     1      -4.831  11.690  17.476  0.00  0.00    +0.000 C 
BRANCH  30  31
ATOM     31  N   UNL     1      -6.230  11.257  17.682  0.00  0.00    +0.000 NA
ATOM     32  C   UNL     1      -7.107  12.421  17.916  0.00  0.00    +0.000 C 
ATOM     33  C   UNL     1      -7.002  12.681  19.406  0.00  0.00    +0.000 C 
ATOM     34  C   UNL     1      -7.004  11.279  19.978  0.00  0.00    +0.000 C 
ATOM     35  C   UNL     1      -6.380  10.417  18.886  0.00  0.00    +0.000 C 
ENDBRANCH  30  31
ENDBRANCH  29  30
ENDBRANCH  28  29
ENDBRANCH  27  28
ENDBRANCH  22  25
ENDBRANCH   1  19
TORSDOF 8
ENDMDL
MODEL 2
REMARK VINA RESULT:      -9.1      1.985      2.769
REMARK  Name = 
REMARK  10 active torsions:
REMARK  status: ('A' for Active; 'I' for Inactive)
REMARK    1  A    between atoms: C_1  and  O_2
REMARK    2  A    between atoms: O_2  and  C_3
REMARK    3  A    between atoms: C_7  and  N_8
REMARK    4  A    between atoms: N_8  and  C_9
REMARK    5  A    between atoms: C_12  and  C_13
REMARK    6  A    between atoms: C_13  and  C_14
REMARK    7  A    between atoms: N_15  and  O_16
REMARK    8  A    between atoms: O_16  and  C_17
REMARK    9  A    between atoms: C_17  and  C_18
REMARK   10  A    between atoms: C_18  and  N_19
REMARK                            x       y       z     vdW  Elec       q    Type
REMARK                         _______ _______ _______ _____ _____    ______ ____
ROOT
ATOM      1  N   UNL     1       3.164   6.416  19.603  0.00  0.00    +0.000 N 
ATOM      2  H   UNL     1       3.417   6.218  20.569  0.00  0.00    +0.000 HD
ENDROOT
BRANCH   1   7
ATOM      3  C   UNL     1       6.611   5.489  15.902  0.00  0.00    +0.000 A 
ATOM      4  C   UNL     1       6.520   6.423  16.909  0.00  0.00    +0.000 A 
ATOM      5  C   UNL     1       5.538   6.293  17.868  0.00  0.00    +0.000 A 
ATOM      6  C   UNL     1       4.506   5.344  17.781  0.00  0.00    +0.000 A 
ATOM      7  C   UNL     1       3.396   5.356  18.687  0.00  0.00    +0.000 A 
ATOM      8  C   UNL     1       2.536   4.245  18.606  0.00  0.00    +0.000 A 
ATOM      9  C   UNL     1       1.366   3.788  19.278  0.00  0.00    +0.000 A 
ATOM     10 CL   UNL     1       0.580   4.559  20.570  0.00  0.00    +0.000 Cl
ATOM     11  C   UNL     1       1.001   2.605  18.682  0.00  0.00    +0.000 A 
ATOM     12  O   UNL     1       1.854   2.304  17.669  0.00  0.00    +0.000 OA
ATOM     13  C   UNL     1       2.785   3.300  17.611  0.00  0.00    +0.000 A 
ATOM     14  N   UNL     1       3.764   3.318  16.693  0.00  0.00    +0.000 NA
ATOM     15  C   UNL     1       4.617   4.345  16.788  0.00  0.00    +0.000 A 
ATOM     16  C   UNL     1       5.677   4.439  15.871  0.00  0.00    +0.000 A 
BRANCH   3  18
ATOM     17  C   UNL     1       7.233   4.865  13.708  0.00  0.00    +0.000 C 
ATOM     18  O   UNL     1       7.587   5.511  14.937  0.00  0.00    +0.000 OA
ENDBRANCH   3  18
ENDBRANCH   1   7
BRANCH   1  19
ATOM     19  C   UNL     1       2.420   7.610  19.429  0.00  0.00    +0.000 A 
ATOM     20  C   UNL     1       1.630   8.143  20.461  0.00  0.00    +0.000 A 
ATOM     21  C   UNL     1       0.564   9.019  20.175  0.00  0.00    +0.000 A 
ATOM     22  C   UNL     1       0.337   9.442  18.868  0.00  0.00    +0.000 A 
ATOM     23  C   UNL     1       1.221   9.030  17.859  0.00  0.00    +0.000 A 
ATOM     24  C   UNL     1       2.249   8.118  18.138  0.00  0.00    +0.000 A 
BRANCH  22  25
ATOM     25  C   UNL     1      -0.896  10.231  18.548  0.00  0.00    +0.000 C 
ATOM     26  C   UNL     1      -1.566  10.022  17.204  0.00  0.00    +0.000 C 
ATOM     27  N   UNL     1      -1.384  11.047  19.440  0.00  0.00    +0.000 NA
BRANCH  27  28
ATOM     28  O   UNL     1      -2.563  11.660  18.966  0.00  0.00    +0.000 OA
BRANCH  28  29
ATOM     29  C   UNL     1      -2.936  12.728  19.843  0.00  0.00    +0.000 C 
BRANCH  29  30
ATOM     30  C   UNL     1      -1.686  13.385  20.442  0.00  0.00    +0.000 C 
BRANCH  30  31
ATOM     31  N   UNL     1      -1.823  13.747  21.869  0.00  0.00    +0.000 NA
ATOM     32  C   UNL     1      -0.752  13.122  22.670  0.00  0.00    +0.000 C 
ATOM     33  C   UNL     1      -1.285  11.741  23.003  0.00  0.00    +0.000 C 
ATOM     34  C   UNL     1      -2.742  12.023  23.301  0.00  0.00    +0.000 C 
ATOM     35  C   UNL     1      -3.081  13.242  22.452  0.00  0.00    +0.000 C 
ENDBRANCH  30  31
ENDBRANCH  29  30
ENDBRANCH  28  29
ENDBRANCH  27  28
ENDBRANCH  22  25
ENDBRANCH   1  19
TORSDOF 8
ENDMDL
MODEL 3
REMARK VINA RESULT:      -9.0      1.631      2.398
REMARK  Name = 
REMARK  10 active torsions:
REMARK  status: ('A' for Active; 'I' for Inactive)
REMARK    1  A    between atoms: C_1  and  O_2
REMARK    2  A    between atoms: O_2  and  C_3
REMARK    3  A    between atoms: C_7  and  N_8
REMARK    4  A    between atoms: N_8  and  C_9
REMARK    5  A    between atoms: C_12  and  C_13
REMARK    6  A    between atoms: C_13  and  C_14
REMARK    7  A    between atoms: N_15  and  O_16
REMARK    8  A    between atoms: O_16  and  C_17
REMARK    9  A    between atoms: C_17  and  C_18
REMARK   10  A    between atoms: C_18  and  N_19
REMARK                            x       y       z     vdW  Elec       q    Type
REMARK                         _______ _______ _______ _____ _____    ______ ____
ROOT
ATOM      1  N   UNL     1       3.363   6.038  19.754  0.00  0.00    +0.000 N 
ATOM      2  H   UNL     1       3.881   5.962  20.626  0.00  0.00    +0.000 HD
ENDROOT
BRANCH   1   7
ATOM      3  C   UNL     1       6.758   5.472  15.936  0.00  0.00    +0.000 A 
ATOM      4  C   UNL     1       6.635   6.362  16.978  0.00  0.00    +0.000 A 
ATOM      5  C   UNL     1       5.690   6.135  17.956  0.00  0.00    +0.000 A 
ATOM      6  C   UNL     1       4.721   5.121  17.861  0.00  0.00    +0.000 A 
ATOM      7  C   UNL     1       3.638   5.029  18.794  0.00  0.00    +0.000 A 
ATOM      8  C   UNL     1       2.851   3.866  18.696  0.00  0.00    +0.000 A 
ATOM      9  C   UNL     1       1.733   3.309  19.380  0.00  0.00    +0.000 A 
ATOM     10 CL   UNL     1       0.934   3.980  20.719  0.00  0.00    +0.000 Cl
ATOM     11  C   UNL     1       1.431   2.125  18.752  0.00  0.00    +0.000 A 
ATOM     12  O   UNL     1       2.273   1.917  17.708  0.00  0.00    +0.000 OA
ATOM     13  C   UNL     1       3.134   2.974  17.662  0.00  0.00    +0.000 A 
ATOM     14  N   UNL     1       4.084   3.089  16.720  0.00  0.00    +0.000 NA
ATOM     15  C   UNL     1       4.870   4.168  16.830  0.00  0.00    +0.000 A 
ATOM     16  C   UNL     1       5.896   4.363  15.891  0.00  0.00    +0.000 A 
BRANCH   3  18
ATOM     17  C   UNL     1       7.375   4.937  13.717  0.00  0.00    +0.000 C 
ATOM     18  O   UNL     1       7.704   5.592  14.948  0.00  0.00    +0.000 OA
ENDBRANCH   3  18
ENDBRANCH   1   7
BRANCH   1  19
ATOM     19  C   UNL     1       2.312   6.990  19.784  0.00  0.00    +0.000 A 
ATOM     20  C   UNL     1       2.170   7.962  18.779  0.00  0.00    +0.000 A 
ATOM     21  C   UNL     1       1.458   9.154  19.023  0.00  0.00    +0.000 A 
ATOM     22  C   UNL     1       0.806   9.343  20.239  0.00  0.00    +0.000 A 
ATOM     23  C   UNL     1       0.820   8.306  21.185  0.00  0.00    +0.000 A 
ATOM     24  C   UNL     1       1.572   7.144  20.960  0.00  0.00    +0.000 A 
BRANCH  22  25
ATOM     25  C   UNL     1       0.200  10.677  20.555  0.00  0.00    +0.000 C 
ATOM     26  C   UNL     1      -0.097  11.017  22.002  0.00  0.00    +0.000 C 
ATOM     27  N   UNL     1      -0.024  11.524  19.590  0.00  0.00    +0.000 NA
BRANCH  27  28
ATOM     28  O   UNL     1      -0.554  12.730  20.095  0.00  0.00    +0.000 OA
BRANCH  28  29
ATOM     29  C   UNL     1      -1.658  13.146  19.285  0.00  0.00    +0.000 C 
BRANCH  29  30
ATOM     30  C   UNL     1      -2.723  12.043  19.230  0.00  0.00    +0.000 C 
BRANCH  30  31
ATOM     31  N   UNL     1      -3.284  11.817  17.880  0.00  0.00    +0.000 NA
ATOM     32  C   UNL     1      -4.212  10.669  17.888  0.00  0.00    +0.000 C 
ATOM     33  C   UNL     1      -3.320   9.460  17.683  0.00  0.00    +0.000 C 
ATOM     34  C   UNL     1      -2.333   9.959  16.650  0.00  0.00    +0.000 C 
ATOM     35  C   UNL     1      -2.242  11.461  16.898  0.00  0.00    +0.000 C 
ENDBRANCH  30  31
ENDBRANCH  29  30
ENDBRANCH  28  29
ENDBRANCH  27  28
ENDBRANCH  22  25
ENDBRANCH   1  19
TORSDOF 8
ENDMDL
MODEL 4
REMARK VINA RESULT:      -9.0      2.184      2.450
REMARK  Name = 
REMARK  10 active torsions:
REMARK  status: ('A' for Active; 'I' for Inactive)
REMARK    1  A    between atoms: C_1  and  O_2
REMARK    2  A    between atoms: O_2  and  C_3
REMARK    3  A    between atoms: C_7  and  N_8
REMARK    4  A    between atoms: N_8  and  C_9
REMARK    5  A    between atoms: C_12  and  C_13
REMARK    6  A    between atoms: C_13  and  C_14
REMARK    7  A    between atoms: N_15  and  O_16
REMARK    8  A    between atoms: O_16  and  C_17
REMARK    9  A    between atoms: C_17  and  C_18
REMARK   10  A    between atoms: C_18  and  N_19
REMARK                            x       y       z     vdW  Elec       q    Type
REMARK                         _______ _______ _______ _____ _____    ______ ____
ROOT
ATOM      1  N   UNL     1       3.239   6.282  19.674  0.00  0.00    +0.000 N 
ATOM      2  H   UNL     1       3.485   6.035  20.630  0.00  0.00    +0.000 HD
ENDROOT
BRANCH   1   7
ATOM      3  C   UNL     1       6.608   5.456  15.880  0.00  0.00    +0.000 A 
ATOM      4  C   UNL     1       6.549   6.349  16.925  0.00  0.00    +0.000 A 
ATOM      5  C   UNL     1       5.581   6.195  17.895  0.00  0.00    +0.000 A 
ATOM      6  C   UNL     1       4.533   5.266  17.787  0.00  0.00    +0.000 A 
ATOM      7  C   UNL     1       3.438   5.258  18.712  0.00  0.00    +0.000 A 
ATOM      8  C   UNL     1       2.560   4.164  18.602  0.00  0.00    +0.000 A 
ATOM      9  C   UNL     1       1.395   3.698  19.274  0.00  0.00    +0.000 A 
ATOM     10 CL   UNL     1       0.642   4.426  20.610  0.00  0.00    +0.000 Cl
ATOM     11  C   UNL     1       1.001   2.545  18.638  0.00  0.00    +0.000 A 
ATOM     12  O   UNL     1       1.832   2.273  17.599  0.00  0.00    +0.000 OA
ATOM     13  C   UNL     1       2.777   3.256  17.565  0.00  0.00    +0.000 A 
ATOM     14  N   UNL     1       3.741   3.298  16.631  0.00  0.00    +0.000 NA
ATOM     15  C   UNL     1       4.611   4.307  16.753  0.00  0.00    +0.000 A 
ATOM     16  C   UNL     1       5.658   4.422  15.822  0.00  0.00    +0.000 A 
BRANCH   3  18
ATOM     17  C   UNL     1       7.224   4.821  13.687  0.00  0.00    +0.000 C 
ATOM     18  O   UNL     1       7.567   5.503  14.900  0.00  0.00    +0.000 OA
ENDBRANCH   3  18
ENDBRANCH   1   7
BRANCH   1  19
ATOM     19  C   UNL     1       2.531   7.505  19.554  0.00  0.00    +0.000 A 
ATOM     20  C   UNL     1       1.771   8.025  20.615  0.00  0.00    +0.000 A 
ATOM     21  C   UNL     1       0.730   8.944  20.376  0.00  0.00    +0.000 A 
ATOM     22  C   UNL     1       0.500   9.421  19.088  0.00  0.00    +0.000 A 
ATOM     23  C   UNL     1       1.358   9.019  18.053  0.00  0.00    +0.000 A 
ATOM     24  C   UNL     1       2.360   8.066  18.284  0.00  0.00    +0.000 A 
BRANCH  22  25
ATOM     25  C   UNL     1      -0.711  10.260  18.813  0.00  0.00    +0.000 C 
ATOM     26  C   UNL     1      -1.435  10.084  17.493  0.00  0.00    +0.000 C 
ATOM     27  N   UNL     1      -1.134  11.091  19.725  0.00  0.00    +0.000 NA
BRANCH  27  28
ATOM     28  O   UNL     1      -2.304  11.752  19.294  0.00  0.00    +0.000 OA
BRANCH  28  29
ATOM     29  C   UNL     1      -2.565  12.871  20.148  0.00  0.00    +0.000 C 
BRANCH  29  30
ATOM     30  C   UNL     1      -2.386  12.472  21.618  0.00  0.00    +0.000 C 
BRANCH  30  31
ATOM     31  N   UNL     1      -3.658  12.328  22.360  0.00  0.00    +0.000 NA
ATOM     32  C   UNL     1      -4.550  13.472  22.092  0.00  0.00    +0.000 C 
ATOM     33  C   UNL     1      -4.123  14.528  23.093  0.00  0.00    +0.000 C 
ATOM     34  C   UNL     1      -3.875  13.706  24.340  0.00  0.00    +0.000 C 
ATOM     35  C   UNL     1      -3.452  12.336  23.821  0.00  0.00    +0.000 C 
ENDBRANCH  30  31
ENDBRANCH  29  30
ENDBRANCH  28  29
ENDBRANCH  27  28
ENDBRANCH  22  25
ENDBRANCH   1  19
TORSDOF 8
ENDMDL
MODEL 5
REMARK VINA RESULT:      -8.9      2.629      3.159
REMARK  Name = 
REMARK  10 active torsions:
REMARK  status: ('A' for Active; 'I' for Inactive)
REMARK    1  A    between atoms: C_1  and  O_2
REMARK    2  A    between atoms: O_2  and  C_3
REMARK    3  A    between atoms: C_7  and  N_8
REMARK    4  A    between atoms: N_8  and  C_9
REMARK    5  A    between atoms: C_12  and  C_13
REMARK    6  A    between atoms: C_13  and  C_14
REMARK    7  A    between atoms: N_15  and  O_16
REMARK    8  A    between atoms: O_16  and  C_17
REMARK    9  A    between atoms: C_17  and  C_18
REMARK   10  A    between atoms: C_18  and  N_19
REMARK                            x       y       z     vdW  Elec       q    Type
REMARK                         _______ _______ _______ _____ _____    ______ ____
ROOT
ATOM      1  N   UNL     1       3.264   6.308  19.523  0.00  0.00    +0.000 N 
ATOM      2  H   UNL     1       3.657   6.286  20.461  0.00  0.00    +0.000 HD
ENDROOT
BRANCH   1   7
ATOM      3  C   UNL     1       6.809   5.401  15.910  0.00  0.00    +0.000 A 
ATOM      4  C   UNL     1       6.624   6.404  16.835  0.00  0.00    +0.000 A 
ATOM      5  C   UNL     1       5.652   6.264  17.802  0.00  0.00    +0.000 A 
ATOM      6  C   UNL     1       4.714   5.217  17.797  0.00  0.00    +0.000 A 
ATOM      7  C   UNL     1       3.600   5.202  18.699  0.00  0.00    +0.000 A 
ATOM      8  C   UNL     1       2.849   4.012  18.713  0.00  0.00    +0.000 A 
ATOM      9  C   UNL     1       1.723   3.506  19.421  0.00  0.00    +0.000 A 
ATOM     10 CL   UNL     1       0.858   4.304  20.645  0.00  0.00    +0.000 Cl
ATOM     11  C   UNL     1       1.474   2.247  18.928  0.00  0.00    +0.000 A 
ATOM     12  O   UNL     1       2.358   1.944  17.944  0.00  0.00    +0.000 OA
ATOM     13  C   UNL     1       3.193   3.014  17.801  0.00  0.00    +0.000 A 
ATOM     14  N   UNL     1       4.172   3.047  16.883  0.00  0.00    +0.000 NA
ATOM     15  C   UNL     1       4.924   4.154  16.891  0.00  0.00    +0.000 A 
ATOM     16  C   UNL     1       5.978   4.269  15.969  0.00  0.00    +0.000 A 
BRANCH   3  18
ATOM     17  C   UNL     1       7.389   4.916  13.670  0.00  0.00    +0.000 C 
ATOM     18  O   UNL     1       7.785   5.434  14.947  0.00  0.00    +0.000 OA
ENDBRANCH   3  18
ENDBRANCH   1   7
BRANCH   1  19
ATOM     19  C   UNL     1       2.281   7.311  19.327  0.00  0.00    +0.000 A 
ATOM     20  C   UNL     1       2.113   7.946  18.085  0.00  0.00    +0.000 A 
ATOM     21  C   UNL     1       1.500   9.212  17.999  0.00  0.00    +0.000 A 
ATOM     22  C   UNL     1       0.967   9.811  19.138  0.00  0.00    +0.000 A 
ATOM     23  C   UNL     1       0.999   9.107  20.352  0.00  0.00    +0.000 A 
ATOM     24  C   UNL     1       1.655   7.871  20.445  0.00  0.00    +0.000 A 
BRANCH  22  25
ATOM     25  C   UNL     1       0.473  11.224  19.071  0.00  0.00    +0.000 C 
ATOM     26  C   UNL     1      -0.824  11.508  18.342  0.00  0.00    +0.000 C 
ATOM     27  N   UNL     1       1.146  12.167  19.670  0.00  0.00    +0.000 NA
BRANCH  27  28
ATOM     28  O   UNL     1       0.498  13.411  19.528  0.00  0.00    +0.000 OA
BRANCH  28  29
ATOM     29  C   UNL     1       0.177  13.936  20.821  0.00  0.00    +0.000 C 
BRANCH  29  30
ATOM     30  C   UNL     1      -1.344  14.034  20.992  0.00  0.00    +0.000 C 
BRANCH  30  31
ATOM     31  N   UNL     1      -1.783  14.156  22.399  0.00  0.00    +0.000 NA
ATOM     32  C   UNL     1      -1.243  13.050  23.211  0.00  0.00    +0.000 C 
ATOM     33  C   UNL     1      -2.243  11.924  23.031  0.00  0.00    +0.000 C 
ATOM     34  C   UNL     1      -3.565  12.660  23.071  0.00  0.00    +0.000 C 
ATOM     35  C   UNL     1      -3.249  14.051  22.534  0.00  0.00    +0.000 C 
ENDBRANCH  30  31
ENDBRANCH  29  30
ENDBRANCH  28  29
ENDBRANCH  27  28
ENDBRANCH  22  25
ENDBRANCH   1  19
TORSDOF 8
ENDMDL
MODEL 6
REMARK VINA RESULT:      -8.9      3.021      5.269
REMARK  Name = 
REMARK  10 active torsions:
REMARK  status: ('A' for Active; 'I' for Inactive)
REMARK    1  A    between atoms: C_1  and  O_2
REMARK    2  A    between atoms: O_2  and  C_3
REMARK    3  A    between atoms: C_7  and  N_8
REMARK    4  A    between atoms: N_8  and  C_9
REMARK    5  A    between atoms: C_12  and  C_13
REMARK    6  A    between atoms: C_13  and  C_14
REMARK    7  A    between atoms: N_15  and  O_16
REMARK    8  A    between atoms: O_16  and  C_17
REMARK    9  A    between atoms: C_17  and  C_18
REMARK   10  A    between atoms: C_18  and  N_19
REMARK                            x       y       z     vdW  Elec       q    Type
REMARK                         _______ _______ _______ _____ _____    ______ ____
ROOT
ATOM      1  N   UNL     1       3.209   6.357  19.514  0.00  0.00    +0.000 N 
ATOM      2  H   UNL     1       3.585   6.326  20.459  0.00  0.00    +0.000 HD
ENDROOT
BRANCH   1   7
ATOM      3  C   UNL     1       6.761   5.240  15.968  0.00  0.00    +0.000 A 
ATOM      4  C   UNL     1       6.610   6.261  16.879  0.00  0.00    +0.000 A 
ATOM      5  C   UNL     1       5.618   6.178  17.832  0.00  0.00    +0.000 A 
ATOM      6  C   UNL     1       4.630   5.178  17.822  0.00  0.00    +0.000 A 
ATOM      7  C   UNL     1       3.504   5.226  18.707  0.00  0.00    +0.000 A 
ATOM      8  C   UNL     1       2.696   4.075  18.722  0.00  0.00    +0.000 A 
ATOM      9  C   UNL     1       1.536   3.630  19.417  0.00  0.00    +0.000 A 
ATOM     10 CL   UNL     1       0.693   4.484  20.618  0.00  0.00    +0.000 Cl
ATOM     11  C   UNL     1       1.234   2.380  18.934  0.00  0.00    +0.000 A 
ATOM     12  O   UNL     1       2.118   2.024  17.966  0.00  0.00    +0.000 OA
ATOM     13  C   UNL     1       3.005   3.051  17.826  0.00  0.00    +0.000 A 
ATOM     14  N   UNL     1       3.999   3.026  16.923  0.00  0.00    +0.000 NA
ATOM     15  C   UNL     1       4.803   4.096  16.931  0.00  0.00    +0.000 A 
ATOM     16  C   UNL     1       5.875   4.150  16.025  0.00  0.00    +0.000 A 
BRANCH   3  18
ATOM     17  C   UNL     1       7.290   5.092  13.668  0.00  0.00    +0.000 C 
ATOM     18  O   UNL     1       7.752   5.215  15.019  0.00  0.00    +0.000 OA
ENDBRANCH   3  18
ENDBRANCH   1   7
BRANCH   1  19
ATOM     19  C   UNL     1       2.280   7.404  19.292  0.00  0.00    +0.000 A 
ATOM     20  C   UNL     1       2.252   8.122  18.084  0.00  0.00    +0.000 A 
ATOM     21  C   UNL     1       1.687   9.412  18.024  0.00  0.00    +0.000 A 
ATOM     22  C   UNL     1       1.064   9.956  19.144  0.00  0.00    +0.000 A 
ATOM     23  C   UNL     1       0.956   9.176  20.306  0.00  0.00    +0.000 A 
ATOM     24  C   UNL     1       1.564   7.914  20.379  0.00  0.00    +0.000 A 
BRANCH  22  25
ATOM     25  C   UNL     1       0.620  11.387  19.123  0.00  0.00    +0.000 C 
ATOM     26  C   UNL     1      -0.670  11.760  19.827  0.00  0.00    +0.000 C 
ATOM     27  N   UNL     1       1.367  12.281  18.538  0.00  0.00    +0.000 NA
BRANCH  27  28
ATOM     28  O   UNL     1       0.801  13.566  18.665  0.00  0.00    +0.000 OA
BRANCH  28  29
ATOM     29  C   UNL     1       1.838  14.527  18.890  0.00  0.00    +0.000 C 
BRANCH  29  30
ATOM     30  C   UNL     1       3.179  13.996  18.368  0.00  0.00    +0.000 C 
BRANCH  30  31
ATOM     31  N   UNL     1       3.989  15.009  17.657  0.00  0.00    +0.000 NA
ATOM     32  C   UNL     1       5.429  14.774  17.881  0.00  0.00    +0.000 C 
ATOM     33  C   UNL     1       5.731  15.493  19.182  0.00  0.00    +0.000 C 
ATOM     34  C   UNL     1       4.920  16.763  19.043  0.00  0.00    +0.000 C 
ATOM     35  C   UNL     1       3.740  16.373  18.160  0.00  0.00    +0.000 C 
ENDBRANCH  30  31
ENDBRANCH  29  30
ENDBRANCH  28  29
ENDBRANCH  27  28
ENDBRANCH  22  25
ENDBRANCH   1  19
TORSDOF 8
ENDMDL
MODEL 7
REMARK VINA RESULT:      -8.9      2.309      2.751
REMARK  Name = 
REMARK  10 active torsions:
REMARK  status: ('A' for Active; 'I' for Inactive)
REMARK    1  A    between atoms: C_1  and  O_2
REMARK    2  A    between atoms: O_2  and  C_3
REMARK    3  A    between atoms: C_7  and  N_8
REMARK    4  A    between atoms: N_8  and  C_9
REMARK    5  A    between atoms: C_12  and  C_13
REMARK    6  A    between atoms: C_13  and  C_14
REMARK    7  A    between atoms: N_15  and  O_16
REMARK    8  A    between atoms: O_16  and  C_17
REMARK    9  A    between atoms: C_17  and  C_18
REMARK   10  A    between atoms: C_18  and  N_19
REMARK                            x       y       z     vdW  Elec       q    Type
REMARK                         _______ _______ _______ _____ _____    ______ ____
ROOT
ATOM      1  N   UNL     1       3.267   6.227  19.602  0.00  0.00    +0.000 N 
ATOM      2  H   UNL     1       3.670   6.156  20.534  0.00  0.00    +0.000 HD
ENDROOT
BRANCH   1   7
ATOM      3  C   UNL     1       6.779   5.421  15.935  0.00  0.00    +0.000 A 
ATOM      4  C   UNL     1       6.619   6.381  16.907  0.00  0.00    +0.000 A 
ATOM      5  C   UNL     1       5.647   6.215  17.871  0.00  0.00    +0.000 A 
ATOM      6  C   UNL     1       4.687   5.191  17.819  0.00  0.00    +0.000 A 
ATOM      7  C   UNL     1       3.576   5.155  18.724  0.00  0.00    +0.000 A 
ATOM      8  C   UNL     1       2.800   3.983  18.685  0.00  0.00    +0.000 A 
ATOM      9  C   UNL     1       1.665   3.466  19.373  0.00  0.00    +0.000 A 
ATOM     10 CL   UNL     1       0.822   4.223  20.637  0.00  0.00    +0.000 Cl
ATOM     11  C   UNL     1       1.388   2.239  18.821  0.00  0.00    +0.000 A 
ATOM     12  O   UNL     1       2.263   1.965  17.819  0.00  0.00    +0.000 OA
ATOM     13  C   UNL     1       3.119   3.022  17.724  0.00  0.00    +0.000 A 
ATOM     14  N   UNL     1       4.096   3.079  16.805  0.00  0.00    +0.000 NA
ATOM     15  C   UNL     1       4.871   4.168  16.862  0.00  0.00    +0.000 A 
ATOM     16  C   UNL     1       5.924   4.305  15.942  0.00  0.00    +0.000 A 
BRANCH   3  18
ATOM     17  C   UNL     1       7.365   4.958  13.691  0.00  0.00    +0.000 C 
ATOM     18  O   UNL     1       7.752   5.479  14.969  0.00  0.00    +0.000 OA
ENDBRANCH   3  18
ENDBRANCH   1   7
BRANCH   1  19
ATOM     19  C   UNL     1       2.298   7.253  19.464  0.00  0.00    +0.000 A 
ATOM     20  C   UNL     1       2.191   8.013  18.288  0.00  0.00    +0.000 A 
ATOM     21  C   UNL     1       1.587   9.286  18.303  0.00  0.00    +0.000 A 
ATOM     22  C   UNL     1       1.003   9.770  19.471  0.00  0.00    +0.000 A 
ATOM     23  C   UNL     1       0.974   8.945  20.607  0.00  0.00    +0.000 A 
ATOM     24  C   UNL     1       1.621   7.701  20.603  0.00  0.00    +0.000 A 
BRANCH  22  25
ATOM     25  C   UNL     1       0.517  11.186  19.527  0.00  0.00    +0.000 C 
ATOM     26  C   UNL     1       1.394  12.280  18.950  0.00  0.00    +0.000 C 
ATOM     27  N   UNL     1      -0.658  11.442  20.031  0.00  0.00    +0.000 NA
BRANCH  27  28
ATOM     28  O   UNL     1      -0.947  12.820  19.952  0.00  0.00    +0.000 OA
BRANCH  28  29
ATOM     29  C   UNL     1      -1.405  13.288  21.225  0.00  0.00    +0.000 C 
BRANCH  29  30
ATOM     30  C   UNL     1      -2.796  12.720  21.532  0.00  0.00    +0.000 C 
BRANCH  30  31
ATOM     31  N   UNL     1      -3.725  13.699  22.136  0.00  0.00    +0.000 NA
ATOM     32  C   UNL     1      -3.264  14.094  23.481  0.00  0.00    +0.000 C 
ATOM     33  C   UNL     1      -3.834  13.034  24.403  0.00  0.00    +0.000 C 
ATOM     34  C   UNL     1      -5.218  12.819  23.828  0.00  0.00    +0.000 C 
ATOM     35  C   UNL     1      -5.072  13.133  22.344  0.00  0.00    +0.000 C 
ENDBRANCH  30  31
ENDBRANCH  29  30
ENDBRANCH  28  29
ENDBRANCH  27  28
ENDBRANCH  22  25
ENDBRANCH   1  19
TORSDOF 8
ENDMDL
MODEL 8
REMARK VINA RESULT:      -8.8      3.135      4.594
REMARK  Name = 
REMARK  10 active torsions:
REMARK  status: ('A' for Active; 'I' for Inactive)
REMARK    1  A    between atoms: C_1  and  O_2
REMARK    2  A    between atoms: O_2  and  C_3
REMARK    3  A    between atoms: C_7  and  N_8
REMARK    4  A    between atoms: N_8  and  C_9
REMARK    5  A    between atoms: C_12  and  C_13
REMARK    6  A    between atoms: C_13  and  C_14
REMARK    7  A    between atoms: N_15  and  O_16
REMARK    8  A    between atoms: O_16  and  C_17
REMARK    9  A    between atoms: C_17  and  C_18
REMARK   10  A    between atoms: C_18  and  N_19
REMARK                            x       y       z     vdW  Elec       q    Type
REMARK                         _______ _______ _______ _____ _____    ______ ____
ROOT
ATOM      1  N   UNL     1       3.312   6.199  19.660  0.00  0.00    +0.000 N 
ATOM      2  H   UNL     1       3.776   6.139  20.563  0.00  0.00    +0.000 HD
ENDROOT
BRANCH   1   7
ATOM      3  C   UNL     1       6.802   5.487  15.953  0.00  0.00    +0.000 A 
ATOM      4  C   UNL     1       6.649   6.421  16.953  0.00  0.00    +0.000 A 
ATOM      5  C   UNL     1       5.682   6.230  17.917  0.00  0.00    +0.000 A 
ATOM      6  C   UNL     1       4.719   5.209  17.841  0.00  0.00    +0.000 A 
ATOM      7  C   UNL     1       3.614   5.151  18.751  0.00  0.00    +0.000 A 
ATOM      8  C   UNL     1       2.835   3.982  18.684  0.00  0.00    +0.000 A 
ATOM      9  C   UNL     1       1.703   3.449  19.363  0.00  0.00    +0.000 A 
ATOM     10 CL   UNL     1       0.868   4.172  20.653  0.00  0.00    +0.000 Cl
ATOM     11  C   UNL     1       1.420   2.237  18.779  0.00  0.00    +0.000 A 
ATOM     12  O   UNL     1       2.288   1.989  17.765  0.00  0.00    +0.000 OA
ATOM     13  C   UNL     1       3.146   3.048  17.695  0.00  0.00    +0.000 A 
ATOM     14  N   UNL     1       4.118   3.127  16.772  0.00  0.00    +0.000 NA
ATOM     15  C   UNL     1       4.897   4.213  16.856  0.00  0.00    +0.000 A 
ATOM     16  C   UNL     1       5.945   4.373  15.934  0.00  0.00    +0.000 A 
BRANCH   3  18
ATOM     17  C   UNL     1       7.432   4.946  13.739  0.00  0.00    +0.000 C 
ATOM     18  O   UNL     1       7.770   5.570  14.984  0.00  0.00    +0.000 OA
ENDBRANCH   3  18
ENDBRANCH   1   7
BRANCH   1  19
ATOM     19  C   UNL     1       2.288   7.179  19.597  0.00  0.00    +0.000 A 
ATOM     20  C   UNL     1       2.153   8.033  18.490  0.00  0.00    +0.000 A 
ATOM     21  C   UNL     1       1.479   9.265  18.607  0.00  0.00    +0.000 A 
ATOM     22  C   UNL     1       0.855   9.611  19.804  0.00  0.00    +0.000 A 
ATOM     23  C   UNL     1       0.860   8.688  20.862  0.00  0.00    +0.000 A 
ATOM     24  C   UNL     1       1.575   7.487  20.759  0.00  0.00    +0.000 A 
BRANCH  22  25
ATOM     25  C   UNL     1       0.291  10.989  19.975  0.00  0.00    +0.000 C 
ATOM     26  C   UNL     1       0.159  11.553  21.376  0.00  0.00    +0.000 C 
ATOM     27  N   UNL     1      -0.036  11.682  18.921  0.00  0.00    +0.000 NA
BRANCH  27  28
ATOM     28  O   UNL     1      -0.504  12.961  19.288  0.00  0.00    +0.000 OA
BRANCH  28  29
ATOM     29  C   UNL     1       0.247  13.964  18.597  0.00  0.00    +0.000 C 
BRANCH  29  30
ATOM     30  C   UNL     1       1.147  14.726  19.578  0.00  0.00    +0.000 C 
BRANCH  30  31
ATOM     31  N   UNL     1       2.514  14.173  19.692  0.00  0.00    +0.000 NA
ATOM     32  C   UNL     1       3.443  15.188  20.227  0.00  0.00    +0.000 C 
ATOM     33  C   UNL     1       3.895  15.967  19.007  0.00  0.00    +0.000 C 
ATOM     34  C   UNL     1       4.071  14.874  17.974  0.00  0.00    +0.000 C 
ATOM     35  C   UNL     1       3.072  13.797  18.379  0.00  0.00    +0.000 C 
ENDBRANCH  30  31
ENDBRANCH  29  30
ENDBRANCH  28  29
ENDBRANCH  27  28
ENDBRANCH  22  25
ENDBRANCH   1  19
TORSDOF 8
ENDMDL
MODEL 9
REMARK VINA RESULT:      -8.8      2.719      3.891
REMARK  Name = 
REMARK  10 active torsions:
REMARK  status: ('A' for Active; 'I' for Inactive)
REMARK    1  A    between atoms: C_1  and  O_2
REMARK    2  A    between atoms: O_2  and  C_3
REMARK    3  A    between atoms: C_7  and  N_8
REMARK    4  A    between atoms: N_8  and  C_9
REMARK    5  A    between atoms: C_12  and  C_13
REMARK    6  A    between atoms: C_13  and  C_14
REMARK    7  A    between atoms: N_15  and  O_16
REMARK    8  A    between atoms: O_16  and  C_17
REMARK    9  A    between atoms: C_17  and  C_18
REMARK   10  A    between atoms: C_18  and  N_19
REMARK                            x       y       z     vdW  Elec       q    Type
REMARK                         _______ _______ _______ _____ _____    ______ ____
ROOT
ATOM      1  N   UNL     1       3.213   6.307  19.509  0.00  0.00    +0.000 N 
ATOM      2  H   UNL     1       3.517   6.252  20.478  0.00  0.00    +0.000 HD
ENDROOT
BRANCH   1   7
ATOM      3  C   UNL     1       6.786   5.379  15.930  0.00  0.00    +0.000 A 
ATOM      4  C   UNL     1       6.590   6.390  16.842  0.00  0.00    +0.000 A 
ATOM      5  C   UNL     1       5.612   6.256  17.805  0.00  0.00    +0.000 A 
ATOM      6  C   UNL     1       4.680   5.205  17.805  0.00  0.00    +0.000 A 
ATOM      7  C   UNL     1       3.561   5.193  18.700  0.00  0.00    +0.000 A 
ATOM      8  C   UNL     1       2.816   4.000  18.723  0.00  0.00    +0.000 A 
ATOM      9  C   UNL     1       1.688   3.495  19.430  0.00  0.00    +0.000 A 
ATOM     10 CL   UNL     1       0.811   4.303  20.639  0.00  0.00    +0.000 Cl
ATOM     11  C   UNL     1       1.449   2.229  18.950  0.00  0.00    +0.000 A 
ATOM     12  O   UNL     1       2.342   1.920  17.975  0.00  0.00    +0.000 OA
ATOM     13  C   UNL     1       3.171   2.993  17.825  0.00  0.00    +0.000 A 
ATOM     14  N   UNL     1       4.156   3.021  16.913  0.00  0.00    +0.000 NA
ATOM     15  C   UNL     1       4.902   4.132  16.913  0.00  0.00    +0.000 A 
ATOM     16  C   UNL     1       5.961   4.243  15.996  0.00  0.00    +0.000 A 
BRANCH   3  18
ATOM     17  C   UNL     1       7.370   4.910  13.687  0.00  0.00    +0.000 C 
ATOM     18  O   UNL     1       7.768   5.406  14.972  0.00  0.00    +0.000 OA
ENDBRANCH   3  18
ENDBRANCH   1   7
BRANCH   1  19
ATOM     19  C   UNL     1       2.309   7.366  19.243  0.00  0.00    +0.000 A 
ATOM     20  C   UNL     1       2.257   7.993  17.987  0.00  0.00    +0.000 A 
ATOM     21  C   UNL     1       1.732   9.294  17.850  0.00  0.00    +0.000 A 
ATOM     22  C   UNL     1       1.170   9.940  18.948  0.00  0.00    +0.000 A 
ATOM     23  C   UNL     1       1.083   9.253  20.169  0.00  0.00    +0.000 A 
ATOM     24  C   UNL     1       1.653   7.980  20.314  0.00  0.00    +0.000 A 
BRANCH  22  25
ATOM     25  C   UNL     1       0.771  11.381  18.836  0.00  0.00    +0.000 C 
ATOM     26  C   UNL     1       1.841  12.412  18.536  0.00  0.00    +0.000 C 
ATOM     27  N   UNL     1      -0.484  11.709  18.961  0.00  0.00    +0.000 NA
BRANCH  27  28
ATOM     28  O   UNL     1      -0.659  13.097  18.781  0.00  0.00    +0.000 OA
BRANCH  28  29
ATOM     29  C   UNL     1      -1.271  13.660  19.946  0.00  0.00    +0.000 C 
BRANCH  29  30
ATOM     30  C   UNL     1      -0.906  15.144  20.074  0.00  0.00    +0.000 C 
BRANCH  30  31
ATOM     31  N   UNL     1       0.015  15.629  19.024  0.00  0.00    +0.000 NA
ATOM     32  C   UNL     1       1.291  16.077  19.616  0.00  0.00    +0.000 C 
ATOM     33  C   UNL     1       1.039  17.518  20.013  0.00  0.00    +0.000 C 
ATOM     34  C   UNL     1       0.225  18.035  18.847  0.00  0.00    +0.000 C 
ATOM     35  C   UNL     1      -0.517  16.812  18.321  0.00  0.00    +0.000 C 
ENDBRANCH  30  31
ENDBRANCH  29  30
ENDBRANCH  28  29
ENDBRANCH  27  28
ENDBRANCH  22  25
ENDBRANCH   1  19
TORSDOF 8
ENDMDL
