MODEL 1
REMARK VINA RESULT:      -8.3      0.000      0.000
REMARK  Name = 
REMARK  7 active torsions:
REMARK  status: ('A' for Active; 'I' for Inactive)
REMARK    1  A    between atoms: C_1  and  C_2
REMARK    2  A    between atoms: N_4  and  C_5
REMARK    3  A    between atoms: C_9  and  N_10
REMARK    4  A    between atoms: C_19  and  O_20
REMARK    5  A    between atoms: O_20  and  C_21
REMARK    6  A    between atoms: C_21  and  C_22
REMARK    7  A    between atoms: C_32  and  C_33
REMARK                            x       y       z     vdW  Elec       q    Type
REMARK                         _______ _______ _______ _____ _____    ______ ____
ROOT
ATOM      1  N   UNL     1       1.770   7.711  20.971  0.00  0.00    +0.000 N 
ATOM      2  C   UNL     1       1.019   8.899  21.000  0.00  0.00    +0.000 A 
ATOM      3  N   UNL     1       1.287   9.731  22.002  0.00  0.00    +0.000 NA
ATOM      4  C   UNL     1       0.554  10.836  21.996  0.00  0.00    +0.000 A 
ATOM      5  N   UNL     1      -0.388  11.149  21.116  0.00  0.00    +0.000 NA
ATOM      6  C   UNL     1      -0.586  10.265  20.142  0.00  0.00    +0.000 A 
ATOM      7  N   UNL     1      -1.475  10.593  19.135  0.00  0.00    +0.000 N 
ATOM      8  C   UNL     1      -1.743   9.632  18.070  0.00  0.00    +0.000 C 
ATOM      9  C   UNL     1      -2.127  10.405  16.801  0.00  0.00    +0.000 C 
ATOM     10  C   UNL     1      -3.241  11.435  17.041  0.00  0.00    +0.000 C 
ATOM     11  C   UNL     1      -2.905  12.315  18.252  0.00  0.00    +0.000 C 
ATOM     12  C   UNL     1      -2.597  11.460  19.475  0.00  0.00    +0.000 C 
ATOM     13  N   UNL     1       0.101   9.132  20.064  0.00  0.00    +0.000 NA
ATOM     14  H   UNL     1       2.523   7.845  21.639  0.00  0.00    +0.000 HD
ENDROOT
BRANCH   1  19
ATOM     15  C   UNL     1       2.838   4.982  18.621  0.00  0.00    +0.000 A 
ATOM     16  C   UNL     1       3.332   5.766  17.570  0.00  0.00    +0.000 A 
ATOM     17  C   UNL     1       3.315   7.153  17.636  0.00  0.00    +0.000 A 
ATOM     18  C   UNL     1       2.788   7.786  18.751  0.00  0.00    +0.000 A 
ATOM     19  C   UNL     1       2.228   7.046  19.804  0.00  0.00    +0.000 A 
ATOM     20  C   UNL     1       2.258   5.624  19.746  0.00  0.00    +0.000 A 
ATOM     21  C   UNL     1       1.711   4.823  20.905  0.00  0.00    +0.000 C 
BRANCH  15  25
ATOM     22  C   UNL     1       3.752   1.310  18.586  0.00  0.00    +0.000 C 
ATOM     23  C   UNL     1       3.951   2.759  18.943  0.00  0.00    +0.000 C 
ATOM     24  O   UNL     1       4.954   3.110  19.556  0.00  0.00    +0.000 OA
ATOM     25  N   UNL     1       2.892   3.564  18.547  0.00  0.00    +0.000 N 
ATOM     26  H   UNL     1       2.051   3.086  18.258  0.00  0.00    +0.000 HD
ENDBRANCH  15  25
ENDBRANCH   1  19
BRANCH  10  27
ATOM     27  O   UNL     1      -4.484  10.734  17.209  0.00  0.00    +0.000 OA
BRANCH  27  28
ATOM     28  C   UNL     1      -5.615  11.611  17.298  0.00  0.00    +0.000 C 
BRANCH  28  29
ATOM     29  C   UNL     1      -6.417  11.377  18.549  0.00  0.00    +0.000 A 
ATOM     30  C   UNL     1      -6.765  10.095  18.990  0.00  0.00    +0.000 A 
ATOM     31  C   UNL     1      -7.395   9.918  20.224  0.00  0.00    +0.000 A 
ATOM     32  C   UNL     1      -7.678  11.019  21.034  0.00  0.00    +0.000 A 
ATOM     33  C   UNL     1      -7.345  12.300  20.602  0.00  0.00    +0.000 A 
ATOM     34  C   UNL     1      -6.719  12.468  19.372  0.00  0.00    +0.000 A 
ATOM     35  F   UNL     1      -6.377  13.707  18.986  0.00  0.00    +0.000 F 
ENDBRANCH  28  29
ENDBRANCH  27  28
ENDBRANCH  10  27
TORSDOF 5
ENDMDL
MODEL 2
REMARK VINA RESULT:      -7.5      6.566     10.589
REMARK  Name = 
REMARK  7 active torsions:
REMARK  status: ('A' for Active; 'I' for Inactive)
REMARK    1  A    between atoms: C_1  and  C_2
REMARK    2  A    between atoms: N_4  and  C_5
REMARK    3  A    between atoms: C_9  and  N_10
REMARK    4  A    between atoms: C_19  and  O_20
REMARK    5  A    between atoms: O_20  and  C_21
REMARK    6  A    between atoms: C_21  and  C_22
REMARK    7  A    between atoms: C_32  and  C_33
REMARK                            x       y       z     vdW  Elec       q    Type
REMARK                         _______ _______ _______ _____ _____    ______ ____
ROOT
ATOM      1  N   UNL     1      -1.094  14.370  19.422  0.00  0.00    +0.000 N 
ATOM      2  C   UNL     1      -0.123  15.329  19.082  0.00  0.00    +0.000 A 
ATOM      3  N   UNL     1      -0.586  16.473  18.589  0.00  0.00    +0.000 NA
ATOM      4  C   UNL     1       0.360  17.348  18.277  0.00  0.00    +0.000 A 
ATOM      5  N   UNL     1       1.669  17.168  18.402  0.00  0.00    +0.000 NA
ATOM      6  C   UNL     1       2.045  15.998  18.912  0.00  0.00    +0.000 A 
ATOM      7  N   UNL     1       3.389  15.802  19.170  0.00  0.00    +0.000 N 
ATOM      8  C   UNL     1       3.841  14.518  19.695  0.00  0.00    +0.000 C 
ATOM      9  C   UNL     1       5.108  14.750  20.529  0.00  0.00    +0.000 C 
ATOM     10  C   UNL     1       6.178  15.557  19.779  0.00  0.00    +0.000 C 
ATOM     11  C   UNL     1       5.565  16.827  19.173  0.00  0.00    +0.000 C 
ATOM     12  C   UNL     1       4.352  16.489  18.317  0.00  0.00    +0.000 C 
ATOM     13  N   UNL     1       1.169  15.061  19.256  0.00  0.00    +0.000 NA
ATOM     14  H   UNL     1      -1.984  14.859  19.398  0.00  0.00    +0.000 HD
ENDROOT
BRANCH   1  19
ATOM     15  C   UNL     1      -0.688  11.210  21.412  0.00  0.00    +0.000 A 
ATOM     16  C   UNL     1      -1.106  11.673  22.665  0.00  0.00    +0.000 A 
ATOM     17  C   UNL     1      -1.512  12.990  22.849  0.00  0.00    +0.000 A 
ATOM     18  C   UNL     1      -1.492  13.874  21.781  0.00  0.00    +0.000 A 
ATOM     19  C   UNL     1      -1.027  13.472  20.519  0.00  0.00    +0.000 A 
ATOM     20  C   UNL     1      -0.625  12.121  20.325  0.00  0.00    +0.000 A 
ATOM     21  C   UNL     1      -0.181  11.669  18.953  0.00  0.00    +0.000 C 
BRANCH  15  25
ATOM     22  C   UNL     1       1.029   7.842  21.229  0.00  0.00    +0.000 C 
ATOM     23  C   UNL     1       0.849   9.254  21.721  0.00  0.00    +0.000 C 
ATOM     24  O   UNL     1       1.664   9.743  22.497  0.00  0.00    +0.000 OA
ATOM     25  N   UNL     1      -0.306   9.852  21.239  0.00  0.00    +0.000 N 
ATOM     26  H   UNL     1      -0.975   9.239  20.796  0.00  0.00    +0.000 HD
ENDBRANCH  15  25
ENDBRANCH   1  19
BRANCH  10  27
ATOM     27  O   UNL     1       6.773  14.714  18.779  0.00  0.00    +0.000 OA
BRANCH  27  28
ATOM     28  C   UNL     1       8.205  14.773  18.775  0.00  0.00    +0.000 C 
BRANCH  28  29
ATOM     29  C   UNL     1       8.829  13.425  19.009  0.00  0.00    +0.000 A 
ATOM     30  C   UNL     1       9.429  13.076  20.226  0.00  0.00    +0.000 A 
ATOM     31  C   UNL     1       9.876  11.771  20.445  0.00  0.00    +0.000 A 
ATOM     32  C   UNL     1       9.724  10.799  19.454  0.00  0.00    +0.000 A 
ATOM     33  C   UNL     1       9.139  11.136  18.237  0.00  0.00    +0.000 A 
ATOM     34  C   UNL     1       8.697  12.438  18.026  0.00  0.00    +0.000 A 
ATOM     35  F   UNL     1       8.105  12.737  16.859  0.00  0.00    +0.000 F 
ENDBRANCH  28  29
ENDBRANCH  27  28
ENDBRANCH  10  27
TORSDOF 5
ENDMDL
MODEL 3
REMARK VINA RESULT:      -7.5      2.948      5.653
REMARK  Name = 
REMARK  7 active torsions:
REMARK  status: ('A' for Active; 'I' for Inactive)
REMARK    1  A    between atoms: C_1  and  C_2
REMARK    2  A    between atoms: N_4  and  C_5
REMARK    3  A    between atoms: C_9  and  N_10
REMARK    4  A    between atoms: C_19  and  O_20
REMARK    5  A    between atoms: O_20  and  C_21
REMARK    6  A    between atoms: C_21  and  C_22
REMARK    7  A    between atoms: C_32  and  C_33
REMARK                            x       y       z     vdW  Elec       q    Type
REMARK                         _______ _______ _______ _____ _____    ______ ____
ROOT
ATOM      1  N   UNL     1       4.434   3.139  18.081  0.00  0.00    +0.000 N 
ATOM      2  C   UNL     1       3.676   3.667  19.142  0.00  0.00    +0.000 A 
ATOM      3  N   UNL     1       3.546   2.882  20.208  0.00  0.00    +0.000 NA
ATOM      4  C   UNL     1       2.822   3.414  21.182  0.00  0.00    +0.000 A 
ATOM      5  N   UNL     1       2.236   4.604  21.167  0.00  0.00    +0.000 NA
ATOM      6  C   UNL     1       2.424   5.326  20.066  0.00  0.00    +0.000 A 
ATOM      7  N   UNL     1       1.931   6.618  20.042  0.00  0.00    +0.000 N 
ATOM      8  C   UNL     1       2.088   7.426  18.837  0.00  0.00    +0.000 C 
ATOM      9  C   UNL     1       2.145   8.905  19.245  0.00  0.00    +0.000 C 
ATOM     10  C   UNL     1       0.979   9.318  20.157  0.00  0.00    +0.000 C 
ATOM     11  C   UNL     1       0.838   8.334  21.325  0.00  0.00    +0.000 C 
ATOM     12  C   UNL     1       0.730   6.902  20.819  0.00  0.00    +0.000 C 
ATOM     13  N   UNL     1       3.136   4.879  19.038  0.00  0.00    +0.000 NA
ATOM     14  H   UNL     1       4.900   2.319  18.456  0.00  0.00    +0.000 HD
ENDROOT
BRANCH   1  19
ATOM     15  C   UNL     1       6.916   5.688  16.874  0.00  0.00    +0.000 A 
ATOM     16  C   UNL     1       6.827   5.458  15.495  0.00  0.00    +0.000 A 
ATOM     17  C   UNL     1       5.972   4.492  14.978  0.00  0.00    +0.000 A 
ATOM     18  C   UNL     1       5.198   3.724  15.835  0.00  0.00    +0.000 A 
ATOM     19  C   UNL     1       5.295   3.877  17.227  0.00  0.00    +0.000 A 
ATOM     20  C   UNL     1       6.158   4.876  17.759  0.00  0.00    +0.000 A 
ATOM     21  C   UNL     1       6.220   5.085  19.254  0.00  0.00    +0.000 C 
BRANCH  15  25
ATOM     22  C   UNL     1       8.619   8.877  17.993  0.00  0.00    +0.000 C 
ATOM     23  C   UNL     1       7.437   8.029  17.601  0.00  0.00    +0.000 C 
ATOM     24  O   UNL     1       6.317   8.526  17.542  0.00  0.00    +0.000 OA
ATOM     25  N   UNL     1       7.773   6.702  17.379  0.00  0.00    +0.000 N 
ATOM     26  H   UNL     1       8.691   6.416  17.688  0.00  0.00    +0.000 HD
ENDBRANCH  15  25
ENDBRANCH   1  19
BRANCH  10  27
ATOM     27  O   UNL     1      -0.217   9.394  19.365  0.00  0.00    +0.000 OA
BRANCH  27  28
ATOM     28  C   UNL     1      -0.666  10.739  19.155  0.00  0.00    +0.000 C 
BRANCH  28  29
ATOM     29  C   UNL     1      -1.805  10.811  18.175  0.00  0.00    +0.000 A 
ATOM     30  C   UNL     1      -1.857  10.015  17.024  0.00  0.00    +0.000 A 
ATOM     31  C   UNL     1      -2.995  10.018  16.213  0.00  0.00    +0.000 A 
ATOM     32  C   UNL     1      -4.094  10.811  16.546  0.00  0.00    +0.000 A 
ATOM     33  C   UNL     1      -4.051  11.613  17.683  0.00  0.00    +0.000 A 
ATOM     34  C   UNL     1      -2.914  11.605  18.484  0.00  0.00    +0.000 A 
ATOM     35  F   UNL     1      -2.902  12.361  19.594  0.00  0.00    +0.000 F 
ENDBRANCH  28  29
ENDBRANCH  27  28
ENDBRANCH  10  27
TORSDOF 5
ENDMDL
MODEL 4
REMARK VINA RESULT:      -7.4      3.662     10.352
REMARK  Name = 
REMARK  7 active torsions:
REMARK  status: ('A' for Active; 'I' for Inactive)
REMARK    1  A    between atoms: C_1  and  C_2
REMARK    2  A    between atoms: N_4  and  C_5
REMARK    3  A    between atoms: C_9  and  N_10
REMARK    4  A    between atoms: C_19  and  O_20
REMARK    5  A    between atoms: O_20  and  C_21
REMARK    6  A    between atoms: C_21  and  C_22
REMARK    7  A    between atoms: C_32  and  C_33
REMARK                            x       y       z     vdW  Elec       q    Type
REMARK                         _______ _______ _______ _____ _____    ______ ____
ROOT
ATOM      1  N   UNL     1      -0.437  11.199  19.950  0.00  0.00    +0.000 N 
ATOM      2  C   UNL     1       0.311  10.169  20.547  0.00  0.00    +0.000 A 
ATOM      3  N   UNL     1       0.473  10.258  21.864  0.00  0.00    +0.000 NA
ATOM      4  C   UNL     1       1.188   9.271  22.387  0.00  0.00    +0.000 A 
ATOM      5  N   UNL     1       1.736   8.261  21.724  0.00  0.00    +0.000 NA
ATOM      6  C   UNL     1       1.518   8.245  20.411  0.00  0.00    +0.000 A 
ATOM      7  N   UNL     1       1.971   7.156  19.689  0.00  0.00    +0.000 N 
ATOM      8  C   UNL     1       1.781   7.123  18.243  0.00  0.00    +0.000 C 
ATOM      9  C   UNL     1       1.682   5.657  17.797  0.00  0.00    +0.000 C 
ATOM     10  C   UNL     1       2.840   4.794  18.320  0.00  0.00    +0.000 C 
ATOM     11  C   UNL     1       3.020   4.996  19.830  0.00  0.00    +0.000 C 
ATOM     12  C   UNL     1       3.168   6.474  20.166  0.00  0.00    +0.000 C 
ATOM     13  N   UNL     1       0.813   9.189  19.799  0.00  0.00    +0.000 NA
ATOM     14  H   UNL     1      -0.874  11.701  20.716  0.00  0.00    +0.000 HD
ENDROOT
BRANCH   1  19
ATOM     15  C   UNL     1      -3.505  11.464  17.799  0.00  0.00    +0.000 A 
ATOM     16  C   UNL     1      -3.145  10.577  16.777  0.00  0.00    +0.000 A 
ATOM     17  C   UNL     1      -1.926   9.910  16.797  0.00  0.00    +0.000 A 
ATOM     18  C   UNL     1      -1.035  10.130  17.837  0.00  0.00    +0.000 A 
ATOM     19  C   UNL     1      -1.326  11.052  18.854  0.00  0.00    +0.000 A 
ATOM     20  C   UNL     1      -2.580  11.726  18.844  0.00  0.00    +0.000 A 
ATOM     21  C   UNL     1      -2.922  12.674  19.969  0.00  0.00    +0.000 C 
BRANCH  15  25
ATOM     22  C   UNL     1      -7.157  12.458  17.828  0.00  0.00    +0.000 C 
ATOM     23  C   UNL     1      -5.991  11.548  18.112  0.00  0.00    +0.000 C 
ATOM     24  O   UNL     1      -6.179  10.449  18.624  0.00  0.00    +0.000 OA
ATOM     25  N   UNL     1      -4.770  12.113  17.775  0.00  0.00    +0.000 N 
ATOM     26  H   UNL     1      -4.775  13.103  17.577  0.00  0.00    +0.000 HD
ENDBRANCH  15  25
ENDBRANCH   1  19
BRANCH  10  27
ATOM     27  O   UNL     1       4.028   5.126  17.584  0.00  0.00    +0.000 OA
BRANCH  27  28
ATOM     28  C   UNL     1       4.867   3.992  17.331  0.00  0.00    +0.000 C 
BRANCH  28  29
ATOM     29  C   UNL     1       5.666   4.149  16.067  0.00  0.00    +0.000 A 
ATOM     30  C   UNL     1       5.195   3.716  14.821  0.00  0.00    +0.000 A 
ATOM     31  C   UNL     1       5.912   4.001  13.656  0.00  0.00    +0.000 A 
ATOM     32  C   UNL     1       7.102   4.727  13.722  0.00  0.00    +0.000 A 
ATOM     33  C   UNL     1       7.586   5.154  14.956  0.00  0.00    +0.000 A 
ATOM     34  C   UNL     1       6.867   4.865  16.111  0.00  0.00    +0.000 A 
ATOM     35  F   UNL     1       7.332   5.313  17.288  0.00  0.00    +0.000 F 
ENDBRANCH  28  29
ENDBRANCH  27  28
ENDBRANCH  10  27
TORSDOF 5
ENDMDL
MODEL 5
REMARK VINA RESULT:      -7.3      7.117     11.163
REMARK  Name = 
REMARK  7 active torsions:
REMARK  status: ('A' for Active; 'I' for Inactive)
REMARK    1  A    between atoms: C_1  and  C_2
REMARK    2  A    between atoms: N_4  and  C_5
REMARK    3  A    between atoms: C_9  and  N_10
REMARK    4  A    between atoms: C_19  and  O_20
REMARK    5  A    between atoms: O_20  and  C_21
REMARK    6  A    between atoms: C_21  and  C_22
REMARK    7  A    between atoms: C_32  and  C_33
REMARK                            x       y       z     vdW  Elec       q    Type
REMARK                         _______ _______ _______ _____ _____    ______ ____
ROOT
ATOM      1  N   UNL     1      -0.799  14.639  19.260  0.00  0.00    +0.000 N 
ATOM      2  C   UNL     1       0.208  15.577  18.968  0.00  0.00    +0.000 A 
ATOM      3  N   UNL     1      -0.204  16.721  18.430  0.00  0.00    +0.000 NA
ATOM      4  C   UNL     1       0.774  17.575  18.166  0.00  0.00    +0.000 A 
ATOM      5  N   UNL     1       2.069  17.376  18.374  0.00  0.00    +0.000 NA
ATOM      6  C   UNL     1       2.393  16.208  18.923  0.00  0.00    +0.000 A 
ATOM      7  N   UNL     1       3.715  15.994  19.266  0.00  0.00    +0.000 N 
ATOM      8  C   UNL     1       4.112  14.711  19.836  0.00  0.00    +0.000 C 
ATOM      9  C   UNL     1       5.329  14.935  20.744  0.00  0.00    +0.000 C 
ATOM     10  C   UNL     1       6.457  15.714  20.050  0.00  0.00    +0.000 C 
ATOM     11  C   UNL     1       5.904  16.984  19.390  0.00  0.00    +0.000 C 
ATOM     12  C   UNL     1       4.741  16.653  18.465  0.00  0.00    +0.000 C 
ATOM     13  N   UNL     1       1.482  15.291  19.225  0.00  0.00    +0.000 NA
ATOM     14  H   UNL     1      -1.677  15.142  19.174  0.00  0.00    +0.000 HD
ENDROOT
BRANCH   1  19
ATOM     15  C   UNL     1      -0.634  11.493  21.306  0.00  0.00    +0.000 A 
ATOM     16  C   UNL     1      -1.059  12.001  22.541  0.00  0.00    +0.000 A 
ATOM     17  C   UNL     1      -1.391  13.342  22.693  0.00  0.00    +0.000 A 
ATOM     18  C   UNL     1      -1.290  14.206  21.613  0.00  0.00    +0.000 A 
ATOM     19  C   UNL     1      -0.815  13.757  20.372  0.00  0.00    +0.000 A 
ATOM     20  C   UNL     1      -0.488  12.381  20.208  0.00  0.00    +0.000 A 
ATOM     21  C   UNL     1      -0.034  11.882  18.857  0.00  0.00    +0.000 C 
BRANCH  15  25
ATOM     22  C   UNL     1       0.887   8.029  21.214  0.00  0.00    +0.000 C 
ATOM     23  C   UNL     1       0.781   9.458  21.678  0.00  0.00    +0.000 C 
ATOM     24  O   UNL     1       1.608   9.913  22.462  0.00  0.00    +0.000 OA
ATOM     25  N   UNL     1      -0.329  10.112  21.164  0.00  0.00    +0.000 N 
ATOM     26  H   UNL     1      -1.024   9.531  20.719  0.00  0.00    +0.000 HD
ENDBRANCH  15  25
ENDBRANCH   1  19
BRANCH  10  27
ATOM     27  O   UNL     1       7.097  14.846  19.101  0.00  0.00    +0.000 OA
BRANCH  27  28
ATOM     28  C   UNL     1       8.220  14.145  19.651  0.00  0.00    +0.000 C 
BRANCH  28  29
ATOM     29  C   UNL     1       9.277  13.868  18.618  0.00  0.00    +0.000 A 
ATOM     30  C   UNL     1      10.023  14.888  18.013  0.00  0.00    +0.000 A 
ATOM     31  C   UNL     1      11.084  14.577  17.159  0.00  0.00    +0.000 A 
ATOM     32  C   UNL     1      11.416  13.245  16.905  0.00  0.00    +0.000 A 
ATOM     33  C   UNL     1      10.676  12.222  17.493  0.00  0.00    +0.000 A 
ATOM     34  C   UNL     1       9.620  12.540  18.341  0.00  0.00    +0.000 A 
ATOM     35  F   UNL     1       8.939  11.542  18.923  0.00  0.00    +0.000 F 
ENDBRANCH  28  29
ENDBRANCH  27  28
ENDBRANCH  10  27
TORSDOF 5
ENDMDL
MODEL 6
REMARK VINA RESULT:      -7.2      3.068      5.629
REMARK  Name = 
REMARK  7 active torsions:
REMARK  status: ('A' for Active; 'I' for Inactive)
REMARK    1  A    between atoms: C_1  and  C_2
REMARK    2  A    between atoms: N_4  and  C_5
REMARK    3  A    between atoms: C_9  and  N_10
REMARK    4  A    between atoms: C_19  and  O_20
REMARK    5  A    between atoms: O_20  and  C_21
REMARK    6  A    between atoms: C_21  and  C_22
REMARK    7  A    between atoms: C_32  and  C_33
REMARK                            x       y       z     vdW  Elec       q    Type
REMARK                         _______ _______ _______ _____ _____    ______ ____
ROOT
ATOM      1  N   UNL     1       4.377   3.240  18.159  0.00  0.00    +0.000 N 
ATOM      2  C   UNL     1       3.615   3.779  19.211  0.00  0.00    +0.000 A 
ATOM      3  N   UNL     1       3.483   3.007  20.286  0.00  0.00    +0.000 NA
ATOM      4  C   UNL     1       2.754   3.548  21.252  0.00  0.00    +0.000 A 
ATOM      5  N   UNL     1       2.167   4.737  21.221  0.00  0.00    +0.000 NA
ATOM      6  C   UNL     1       2.357   5.447  20.112  0.00  0.00    +0.000 A 
ATOM      7  N   UNL     1       1.862   6.738  20.071  0.00  0.00    +0.000 N 
ATOM      8  C   UNL     1       2.022   7.532  18.858  0.00  0.00    +0.000 C 
ATOM      9  C   UNL     1       2.074   9.015  19.248  0.00  0.00    +0.000 C 
ATOM     10  C   UNL     1       0.905   9.437  20.151  0.00  0.00    +0.000 C 
ATOM     11  C   UNL     1       0.762   8.467  21.331  0.00  0.00    +0.000 C 
ATOM     12  C   UNL     1       0.658   7.029  20.840  0.00  0.00    +0.000 C 
ATOM     13  N   UNL     1       3.073   4.989  19.092  0.00  0.00    +0.000 NA
ATOM     14  H   UNL     1       4.842   2.425  18.546  0.00  0.00    +0.000 HD
ENDROOT
BRANCH   1  19
ATOM     15  C   UNL     1       6.893   5.749  16.940  0.00  0.00    +0.000 A 
ATOM     16  C   UNL     1       6.776   5.538  15.560  0.00  0.00    +0.000 A 
ATOM     17  C   UNL     1       5.893   4.596  15.047  0.00  0.00    +0.000 A 
ATOM     18  C   UNL     1       5.116   3.835  15.908  0.00  0.00    +0.000 A 
ATOM     19  C   UNL     1       5.240   3.970  17.300  0.00  0.00    +0.000 A 
ATOM     20  C   UNL     1       6.133   4.943  17.828  0.00  0.00    +0.000 A 
ATOM     21  C   UNL     1       6.223   5.133  19.324  0.00  0.00    +0.000 C 
BRANCH  15  25
ATOM     22  C   UNL     1       8.701   8.890  18.030  0.00  0.00    +0.000 C 
ATOM     23  C   UNL     1       7.494   8.082  17.630  0.00  0.00    +0.000 C 
ATOM     24  O   UNL     1       6.396   8.622  17.537  0.00  0.00    +0.000 OA
ATOM     25  N   UNL     1       7.781   6.738  17.443  0.00  0.00    +0.000 N 
ATOM     26  H   UNL     1       8.680   6.422  17.776  0.00  0.00    +0.000 HD
ENDBRANCH  15  25
ENDBRANCH   1  19
BRANCH  10  27
ATOM     27  O   UNL     1      -0.289   9.503  19.355  0.00  0.00    +0.000 OA
BRANCH  27  28
ATOM     28  C   UNL     1      -0.579  10.825  18.886  0.00  0.00    +0.000 C 
BRANCH  28  29
ATOM     29  C   UNL     1      -2.007  10.968  18.439  0.00  0.00    +0.000 A 
ATOM     30  C   UNL     1      -2.908  11.839  19.066  0.00  0.00    +0.000 A 
ATOM     31  C   UNL     1      -4.184  12.039  18.536  0.00  0.00    +0.000 A 
ATOM     32  C   UNL     1      -4.574  11.376  17.371  0.00  0.00    +0.000 A 
ATOM     33  C   UNL     1      -3.691  10.501  16.743  0.00  0.00    +0.000 A 
ATOM     34  C   UNL     1      -2.422  10.307  17.278  0.00  0.00    +0.000 A 
ATOM     35  F   UNL     1      -1.574   9.484  16.642  0.00  0.00    +0.000 F 
ENDBRANCH  28  29
ENDBRANCH  27  28
ENDBRANCH  10  27
TORSDOF 5
ENDMDL
MODEL 7
REMARK VINA RESULT:      -7.2      7.120     11.188
REMARK  Name = 
REMARK  7 active torsions:
REMARK  status: ('A' for Active; 'I' for Inactive)
REMARK    1  A    between atoms: C_1  and  C_2
REMARK    2  A    between atoms: N_4  and  C_5
REMARK    3  A    between atoms: C_9  and  N_10
REMARK    4  A    between atoms: C_19  and  O_20
REMARK    5  A    between atoms: O_20  and  C_21
REMARK    6  A    between atoms: C_21  and  C_22
REMARK    7  A    between atoms: C_32  and  C_33
REMARK                            x       y       z     vdW  Elec       q    Type
REMARK                         _______ _______ _______ _____ _____    ______ ____
ROOT
ATOM      1  N   UNL     1      -0.203  14.563  19.209  0.00  0.00    +0.000 N 
ATOM      2  C   UNL     1       0.809  15.520  19.015  0.00  0.00    +0.000 A 
ATOM      3  N   UNL     1       0.431  16.654  18.432  0.00  0.00    +0.000 NA
ATOM      4  C   UNL     1       1.415  17.527  18.263  0.00  0.00    +0.000 A 
ATOM      5  N   UNL     1       2.685  17.354  18.603  0.00  0.00    +0.000 NA
ATOM      6  C   UNL     1       2.975  16.195  19.187  0.00  0.00    +0.000 A 
ATOM      7  N   UNL     1       4.260  16.008  19.663  0.00  0.00    +0.000 N 
ATOM      8  C   UNL     1       4.622  14.735  20.277  0.00  0.00    +0.000 C 
ATOM      9  C   UNL     1       5.736  14.987  21.302  0.00  0.00    +0.000 C 
ATOM     10  C   UNL     1       6.913  15.786  20.722  0.00  0.00    +0.000 C 
ATOM     11  C   UNL     1       6.405  17.042  20.003  0.00  0.00    +0.000 C 
ATOM     12  C   UNL     1       5.348  16.684  18.967  0.00  0.00    +0.000 C 
ATOM     13  N   UNL     1       2.057  15.260  19.401  0.00  0.00    +0.000 NA
ATOM     14  H   UNL     1      -1.077  15.047  19.032  0.00  0.00    +0.000 HD
ENDROOT
BRANCH   1  19
ATOM     15  C   UNL     1      -0.287  11.416  21.258  0.00  0.00    +0.000 A 
ATOM     16  C   UNL     1      -0.744  11.945  22.471  0.00  0.00    +0.000 A 
ATOM     17  C   UNL     1      -1.018  13.301  22.609  0.00  0.00    +0.000 A 
ATOM     18  C   UNL     1      -0.825  14.157  21.536  0.00  0.00    +0.000 A 
ATOM     19  C   UNL     1      -0.314  13.684  20.318  0.00  0.00    +0.000 A 
ATOM     20  C   UNL     1      -0.047  12.294  20.169  0.00  0.00    +0.000 A 
ATOM     21  C   UNL     1       0.446  11.771  18.839  0.00  0.00    +0.000 C 
BRANCH  15  25
ATOM     22  C   UNL     1       1.047   7.874  21.281  0.00  0.00    +0.000 C 
ATOM     23  C   UNL     1       0.967   9.302  21.752  0.00  0.00    +0.000 C 
ATOM     24  O   UNL     1       1.726   9.704  22.629  0.00  0.00    +0.000 OA
ATOM     25  N   UNL     1      -0.043  10.022  21.129  0.00  0.00    +0.000 N 
ATOM     26  H   UNL     1      -0.714   9.484  20.601  0.00  0.00    +0.000 HD
ENDBRANCH  15  25
ENDBRANCH   1  19
BRANCH  10  27
ATOM     27  O   UNL     1       7.663  14.928  19.847  0.00  0.00    +0.000 OA
BRANCH  27  28
ATOM     28  C   UNL     1       8.284  13.833  20.533  0.00  0.00    +0.000 C 
BRANCH  28  29
ATOM     29  C   UNL     1       9.253  13.089  19.655  0.00  0.00    +0.000 A 
ATOM     30  C   UNL     1       9.271  13.238  18.262  0.00  0.00    +0.000 A 
ATOM     31  C   UNL     1      10.273  12.632  17.500  0.00  0.00    +0.000 A 
ATOM     32  C   UNL     1      11.269  11.876  18.120  0.00  0.00    +0.000 A 
ATOM     33  C   UNL     1      11.256  11.713  19.503  0.00  0.00    +0.000 A 
ATOM     34  C   UNL     1      10.255  12.319  20.254  0.00  0.00    +0.000 A 
ATOM     35  F   UNL     1      10.277  12.178  21.589  0.00  0.00    +0.000 F 
ENDBRANCH  28  29
ENDBRANCH  27  28
ENDBRANCH  10  27
TORSDOF 5
ENDMDL
MODEL 8
REMARK VINA RESULT:      -7.2      3.925      9.729
REMARK  Name = 
REMARK  7 active torsions:
REMARK  status: ('A' for Active; 'I' for Inactive)
REMARK    1  A    between atoms: C_1  and  C_2
REMARK    2  A    between atoms: N_4  and  C_5
REMARK    3  A    between atoms: C_9  and  N_10
REMARK    4  A    between atoms: C_19  and  O_20
REMARK    5  A    between atoms: O_20  and  C_21
REMARK    6  A    between atoms: C_21  and  C_22
REMARK    7  A    between atoms: C_32  and  C_33
REMARK                            x       y       z     vdW  Elec       q    Type
REMARK                         _______ _______ _______ _____ _____    ______ ____
ROOT
ATOM      1  N   UNL     1      -0.803  13.520  19.689  0.00  0.00    +0.000 N 
ATOM      2  C   UNL     1       0.311  12.910  19.084  0.00  0.00    +0.000 A 
ATOM      3  N   UNL     1       1.152  13.728  18.458  0.00  0.00    +0.000 NA
ATOM      4  C   UNL     1       2.185  13.114  17.898  0.00  0.00    +0.000 A 
ATOM      5  N   UNL     1       2.420  11.808  17.904  0.00  0.00    +0.000 NA
ATOM      6  C   UNL     1       1.534  11.064  18.560  0.00  0.00    +0.000 A 
ATOM      7  N   UNL     1       1.791   9.712  18.694  0.00  0.00    +0.000 N 
ATOM      8  C   UNL     1       0.822   8.860  19.376  0.00  0.00    +0.000 C 
ATOM      9  C   UNL     1       1.571   7.680  20.011  0.00  0.00    +0.000 C 
ATOM     10  C   UNL     1       2.491   6.953  19.019  0.00  0.00    +0.000 C 
ATOM     11  C   UNL     1       3.384   7.958  18.280  0.00  0.00    +0.000 C 
ATOM     12  C   UNL     1       2.547   9.055  17.635  0.00  0.00    +0.000 C 
ATOM     13  N   UNL     1       0.469  11.590  19.154  0.00  0.00    +0.000 NA
ATOM     14  H   UNL     1      -0.608  14.516  19.682  0.00  0.00    +0.000 HD
ENDROOT
BRANCH   1  19
ATOM     15  C   UNL     1      -3.410  12.557  22.216  0.00  0.00    +0.000 A 
ATOM     16  C   UNL     1      -2.615  12.537  23.368  0.00  0.00    +0.000 A 
ATOM     17  C   UNL     1      -1.258  12.834  23.314  0.00  0.00    +0.000 A 
ATOM     18  C   UNL     1      -0.667  13.143  22.098  0.00  0.00    +0.000 A 
ATOM     19  C   UNL     1      -1.409  13.120  20.908  0.00  0.00    +0.000 A 
ATOM     20  C   UNL     1      -2.802  12.830  20.962  0.00  0.00    +0.000 A 
ATOM     21  C   UNL     1      -3.617  12.864  19.690  0.00  0.00    +0.000 C 
BRANCH  15  25
ATOM     22  C   UNL     1      -7.152  12.531  22.782  0.00  0.00    +0.000 C 
ATOM     23  C   UNL     1      -5.801  13.181  22.634  0.00  0.00    +0.000 C 
ATOM     24  O   UNL     1      -5.684  14.394  22.774  0.00  0.00    +0.000 OA
ATOM     25  N   UNL     1      -4.802  12.280  22.298  0.00  0.00    +0.000 N 
ATOM     26  H   UNL     1      -5.106  11.364  22.003  0.00  0.00    +0.000 HD
ENDBRANCH  15  25
ENDBRANCH   1  19
BRANCH  10  27
ATOM     27  O   UNL     1       1.678   6.185  18.117  0.00  0.00    +0.000 OA
BRANCH  27  28
ATOM     28  C   UNL     1       2.149   4.844  17.940  0.00  0.00    +0.000 C 
BRANCH  28  29
ATOM     29  C   UNL     1       2.212   4.088  19.238  0.00  0.00    +0.000 A 
ATOM     30  C   UNL     1       1.085   3.882  20.044  0.00  0.00    +0.000 A 
ATOM     31  C   UNL     1       1.163   3.062  21.172  0.00  0.00    +0.000 A 
ATOM     32  C   UNL     1       2.364   2.435  21.505  0.00  0.00    +0.000 A 
ATOM     33  C   UNL     1       3.495   2.640  20.718  0.00  0.00    +0.000 A 
ATOM     34  C   UNL     1       3.409   3.458  19.597  0.00  0.00    +0.000 A 
ATOM     35  F   UNL     1       4.500   3.619  18.832  0.00  0.00    +0.000 F 
ENDBRANCH  28  29
ENDBRANCH  27  28
ENDBRANCH  10  27
TORSDOF 5
ENDMDL
MODEL 9
REMARK VINA RESULT:      -7.2      5.337      9.178
REMARK  Name = 
REMARK  7 active torsions:
REMARK  status: ('A' for Active; 'I' for Inactive)
REMARK    1  A    between atoms: C_1  and  C_2
REMARK    2  A    between atoms: N_4  and  C_5
REMARK    3  A    between atoms: C_9  and  N_10
REMARK    4  A    between atoms: C_19  and  O_20
REMARK    5  A    between atoms: O_20  and  C_21
REMARK    6  A    between atoms: C_21  and  C_22
REMARK    7  A    between atoms: C_32  and  C_33
REMARK                            x       y       z     vdW  Elec       q    Type
REMARK                         _______ _______ _______ _____ _____    ______ ____
ROOT
ATOM      1  N   UNL     1       1.615  15.800  21.616  0.00  0.00    +0.000 N 
ATOM      2  C   UNL     1       0.834  14.693  21.996  0.00  0.00    +0.000 A 
ATOM      3  N   UNL     1      -0.124  14.938  22.885  0.00  0.00    +0.000 NA
ATOM      4  C   UNL     1      -0.833  13.869  23.220  0.00  0.00    +0.000 A 
ATOM      5  N   UNL     1      -0.657  12.635  22.767  0.00  0.00    +0.000 NA
ATOM      6  C   UNL     1       0.318  12.481  21.874  0.00  0.00    +0.000 A 
ATOM      7  N   UNL     1       0.471  11.239  21.285  0.00  0.00    +0.000 N 
ATOM      8  C   UNL     1       1.553  11.026  20.329  0.00  0.00    +0.000 C 
ATOM      9  C   UNL     1       1.122   9.933  19.341  0.00  0.00    +0.000 C 
ATOM     10  C   UNL     1       0.612   8.663  20.039  0.00  0.00    +0.000 C 
ATOM     11  C   UNL     1      -0.437   9.020  21.101  0.00  0.00    +0.000 C 
ATOM     12  C   UNL     1       0.104  10.065  22.067  0.00  0.00    +0.000 C 
ATOM     13  N   UNL     1       1.080  13.493  21.476  0.00  0.00    +0.000 NA
ATOM     14  H   UNL     1       1.128  16.616  21.972  0.00  0.00    +0.000 HD
ENDROOT
BRANCH   1  19
ATOM     15  C   UNL     1       4.059  16.412  18.830  0.00  0.00    +0.000 A 
ATOM     16  C   UNL     1       3.160  16.717  17.800  0.00  0.00    +0.000 A 
ATOM     17  C   UNL     1       1.788  16.722  18.019  0.00  0.00    +0.000 A 
ATOM     18  C   UNL     1       1.286  16.406  19.273  0.00  0.00    +0.000 A 
ATOM     19  C   UNL     1       2.144  16.038  20.321  0.00  0.00    +0.000 A 
ATOM     20  C   UNL     1       3.551  16.046  20.104  0.00  0.00    +0.000 A 
ATOM     21  C   UNL     1       4.479  15.709  21.247  0.00  0.00    +0.000 C 
BRANCH  15  25
ATOM     22  C   UNL     1       7.712  15.707  18.138  0.00  0.00    +0.000 C 
ATOM     23  C   UNL     1       6.239  15.393  18.130  0.00  0.00    +0.000 C 
ATOM     24  O   UNL     1       5.843  14.312  17.706  0.00  0.00    +0.000 OA
ATOM     25  N   UNL     1       5.460  16.443  18.593  0.00  0.00    +0.000 N 
ATOM     26  H   UNL     1       5.924  17.334  18.690  0.00  0.00    +0.000 HD
ENDBRANCH  15  25
ENDBRANCH   1  19
BRANCH  10  27
ATOM     27  O   UNL     1       1.735   7.966  20.600  0.00  0.00    +0.000 OA
BRANCH  27  28
ATOM     28  C   UNL     1       2.482   7.228  19.625  0.00  0.00    +0.000 C 
BRANCH  28  29
ATOM     29  C   UNL     1       2.104   5.773  19.602  0.00  0.00    +0.000 A 
ATOM     30  C   UNL     1       1.468   5.144  20.681  0.00  0.00    +0.000 A 
ATOM     31  C   UNL     1       1.016   3.828  20.566  0.00  0.00    +0.000 A 
ATOM     32  C   UNL     1       1.188   3.126  19.372  0.00  0.00    +0.000 A 
ATOM     33  C   UNL     1       1.827   3.737  18.295  0.00  0.00    +0.000 A 
ATOM     34  C   UNL     1       2.275   5.047  18.418  0.00  0.00    +0.000 A 
ATOM     35  F   UNL     1       2.860   5.630  17.360  0.00  0.00    +0.000 F 
ENDBRANCH  28  29
ENDBRANCH  27  28
ENDBRANCH  10  27
TORSDOF 5
ENDMDL
