MODEL 1
REMARK VINA RESULT:      -5.9      0.000      0.000
REMARK  Name = 
REMARK  3 active torsions:
REMARK  status: ('A' for Active; 'I' for Inactive)
REMARK    1  A    between atoms: C_1  and  O_2
REMARK    2  A    between atoms: O_2  and  C_3
REMARK    3  A    between atoms: C_7  and  N_8
REMARK                            x       y       z     vdW  Elec       q    Type
REMARK                         _______ _______ _______ _____ _____    ______ ____
ROOT
ATOM      1  C   UNL     1       3.510   3.139  18.620  0.00  0.00    +0.000 A 
ATOM      2  C   UNL     1       3.450   3.417  17.261  0.00  0.00    +0.000 A 
ATOM      3  C   UNL     1       4.416   4.238  16.681  0.00  0.00    +0.000 A 
ATOM      4  C   UNL     1       5.454   4.811  17.450  0.00  0.00    +0.000 A 
ATOM      5  C   UNL     1       6.463   5.648  16.911  0.00  0.00    +0.000 A 
ATOM      6  C   UNL     1       7.482   6.093  17.750  0.00  0.00    +0.000 A 
ATOM      7  C   UNL     1       7.417   5.789  19.095  0.00  0.00    +0.000 A 
ATOM      8  N   UNL     1       6.441   5.042  19.647  0.00  0.00    +0.000 NA
ATOM      9  C   UNL     1       5.489   4.546  18.841  0.00  0.00    +0.000 A 
ATOM     10  C   UNL     1       4.513   3.725  19.393  0.00  0.00    +0.000 A 
ENDROOT
BRANCH   5  11
ATOM     11  N   UNL     1       6.605   5.857  15.523  0.00  0.00    +0.000 N 
ATOM     12  H   UNL     1       6.620   6.832  15.248  0.00  0.00    +0.000 HD
ATOM     13  H   UNL     1       7.376   5.343  15.108  0.00  0.00    +0.000 HD
ENDBRANCH   5  11
BRANCH   1  15
ATOM     14  C   UNL     1       1.305   2.309  18.754  0.00  0.00    +0.000 C 
ATOM     15  O   UNL     1       2.625   2.342  19.292  0.00  0.00    +0.000 OA
ENDBRANCH   1  15
TORSDOF 2
ENDMDL
MODEL 2
REMARK VINA RESULT:      -5.8      1.430      2.591
REMARK  Name = 
REMARK  3 active torsions:
REMARK  status: ('A' for Active; 'I' for Inactive)
REMARK    1  A    between atoms: C_1  and  O_2
REMARK    2  A    between atoms: O_2  and  C_3
REMARK    3  A    between atoms: C_7  and  N_8
REMARK                            x       y       z     vdW  Elec       q    Type
REMARK                         _______ _______ _______ _____ _____    ______ ____
ROOT
ATOM      1  C   UNL     1       3.757   4.398  17.627  0.00  0.00    +0.000 A 
ATOM      2  C   UNL     1       4.390   3.753  18.681  0.00  0.00    +0.000 A 
ATOM      3  C   UNL     1       5.620   4.222  19.139  0.00  0.00    +0.000 A 
ATOM      4  C   UNL     1       6.251   5.338  18.545  0.00  0.00    +0.000 A 
ATOM      5  C   UNL     1       7.497   5.859  18.974  0.00  0.00    +0.000 A 
ATOM      6  C   UNL     1       7.987   7.012  18.363  0.00  0.00    +0.000 A 
ATOM      7  C   UNL     1       7.293   7.545  17.296  0.00  0.00    +0.000 A 
ATOM      8  N   UNL     1       6.134   7.040  16.829  0.00  0.00    +0.000 NA
ATOM      9  C   UNL     1       5.612   5.971  17.450  0.00  0.00    +0.000 A 
ATOM     10  C   UNL     1       4.387   5.481  17.013  0.00  0.00    +0.000 A 
ENDROOT
BRANCH   5  11
ATOM     11  N   UNL     1       8.144   5.397  20.140  0.00  0.00    +0.000 N 
ATOM     12  H   UNL     1       8.987   5.907  20.378  0.00  0.00    +0.000 HD
ATOM     13  H   UNL     1       7.528   5.305  20.941  0.00  0.00    +0.000 HD
ENDBRANCH   5  11
BRANCH   1  15
ATOM     14  C   UNL     1       1.544   3.703  18.058  0.00  0.00    +0.000 C 
ATOM     15  O   UNL     1       2.548   4.033  17.102  0.00  0.00    +0.000 OA
ENDBRANCH   1  15
TORSDOF 2
ENDMDL
MODEL 3
REMARK VINA RESULT:      -5.8      2.126      2.537
REMARK  Name = 
REMARK  3 active torsions:
REMARK  status: ('A' for Active; 'I' for Inactive)
REMARK    1  A    between atoms: C_1  and  O_2
REMARK    2  A    between atoms: O_2  and  C_3
REMARK    3  A    between atoms: C_7  and  N_8
REMARK                            x       y       z     vdW  Elec       q    Type
REMARK                         _______ _______ _______ _____ _____    ______ ____
ROOT
ATOM      1  C   UNL     1       1.949   3.082  19.250  0.00  0.00    +0.000 A 
ATOM      2  C   UNL     1       2.694   2.122  18.578  0.00  0.00    +0.000 A 
ATOM      3  C   UNL     1       3.689   2.520  17.686  0.00  0.00    +0.000 A 
ATOM      4  C   UNL     1       3.950   3.886  17.436  0.00  0.00    +0.000 A 
ATOM      5  C   UNL     1       4.951   4.345  16.544  0.00  0.00    +0.000 A 
ATOM      6  C   UNL     1       5.173   5.717  16.434  0.00  0.00    +0.000 A 
ATOM      7  C   UNL     1       4.342   6.581  17.119  0.00  0.00    +0.000 A 
ATOM      8  N   UNL     1       3.346   6.176  17.931  0.00  0.00    +0.000 NA
ATOM      9  C   UNL     1       3.165   4.857  18.103  0.00  0.00    +0.000 A 
ATOM     10  C   UNL     1       2.178   4.432  18.986  0.00  0.00    +0.000 A 
ENDROOT
BRANCH   5  11
ATOM     11  N   UNL     1       5.881   3.471  15.942  0.00  0.00    +0.000 N 
ATOM     12  H   UNL     1       5.885   2.535  16.330  0.00  0.00    +0.000 HD
ATOM     13  H   UNL     1       5.829   3.452  14.928  0.00  0.00    +0.000 HD
ENDBRANCH   5  11
BRANCH   1  15
ATOM     14  C   UNL     1       1.376   2.739  21.513  0.00  0.00    +0.000 C 
ATOM     15  O   UNL     1       0.958   2.808  20.152  0.00  0.00    +0.000 OA
ENDBRANCH   1  15
TORSDOF 2
ENDMDL
MODEL 4
REMARK VINA RESULT:      -5.8      1.278      2.470
REMARK  Name = 
REMARK  3 active torsions:
REMARK  status: ('A' for Active; 'I' for Inactive)
REMARK    1  A    between atoms: C_1  and  O_2
REMARK    2  A    between atoms: O_2  and  C_3
REMARK    3  A    between atoms: C_7  and  N_8
REMARK                            x       y       z     vdW  Elec       q    Type
REMARK                         _______ _______ _______ _____ _____    ______ ____
ROOT
ATOM      1  C   UNL     1       2.611   3.690  18.060  0.00  0.00    +0.000 A 
ATOM      2  C   UNL     1       3.094   4.100  19.295  0.00  0.00    +0.000 A 
ATOM      3  C   UNL     1       4.430   4.480  19.422  0.00  0.00    +0.000 A 
ATOM      4  C   UNL     1       5.314   4.445  18.319  0.00  0.00    +0.000 A 
ATOM      5  C   UNL     1       6.677   4.824  18.392  0.00  0.00    +0.000 A 
ATOM      6  C   UNL     1       7.435   4.822  17.222  0.00  0.00    +0.000 A 
ATOM      7  C   UNL     1       6.860   4.354  16.057  0.00  0.00    +0.000 A 
ATOM      8  N   UNL     1       5.583   3.934  15.969  0.00  0.00    +0.000 NA
ATOM      9  C   UNL     1       4.818   3.996  17.071  0.00  0.00    +0.000 A 
ATOM     10  C   UNL     1       3.483   3.621  16.973  0.00  0.00    +0.000 A 
ENDROOT
BRANCH   5  11
ATOM     11  N   UNL     1       7.233   5.420  19.544  0.00  0.00    +0.000 N 
ATOM     12  H   UNL     1       8.143   5.840  19.397  0.00  0.00    +0.000 HD
ATOM     13  H   UNL     1       6.602   6.056  20.020  0.00  0.00    +0.000 HD
ENDBRANCH   5  11
BRANCH   1  15
ATOM     14  C   UNL     1       0.729   2.487  18.824  0.00  0.00    +0.000 C 
ATOM     15  O   UNL     1       1.321   3.305  17.817  0.00  0.00    +0.000 OA
ENDBRANCH   1  15
TORSDOF 2
ENDMDL
MODEL 5
REMARK VINA RESULT:      -5.7      2.772      5.092
REMARK  Name = 
REMARK  3 active torsions:
REMARK  status: ('A' for Active; 'I' for Inactive)
REMARK    1  A    between atoms: C_1  and  O_2
REMARK    2  A    between atoms: O_2  and  C_3
REMARK    3  A    between atoms: C_7  and  N_8
REMARK                            x       y       z     vdW  Elec       q    Type
REMARK                         _______ _______ _______ _____ _____    ______ ____
ROOT
ATOM      1  C   UNL     1       6.867   6.861  17.462  0.00  0.00    +0.000 A 
ATOM      2  C   UNL     1       7.494   5.909  18.254  0.00  0.00    +0.000 A 
ATOM      3  C   UNL     1       6.754   4.848  18.774  0.00  0.00    +0.000 A 
ATOM      4  C   UNL     1       5.369   4.724  18.525  0.00  0.00    +0.000 A 
ATOM      5  C   UNL     1       4.572   3.664  19.024  0.00  0.00    +0.000 A 
ATOM      6  C   UNL     1       3.230   3.601  18.650  0.00  0.00    +0.000 A 
ATOM      7  C   UNL     1       2.703   4.628  17.892  0.00  0.00    +0.000 A 
ATOM      8  N   UNL     1       3.422   5.677  17.449  0.00  0.00    +0.000 NA
ATOM      9  C   UNL     1       4.732   5.717  17.741  0.00  0.00    +0.000 A 
ATOM     10  C   UNL     1       5.493   6.765  17.237  0.00  0.00    +0.000 A 
ENDROOT
BRANCH   5  11
ATOM     11  N   UNL     1       5.129   2.551  19.690  0.00  0.00    +0.000 N 
ATOM     12  H   UNL     1       6.142   2.536  19.700  0.00  0.00    +0.000 HD
ATOM     13  H   UNL     1       4.746   2.395  20.617  0.00  0.00    +0.000 HD
ENDBRANCH   5  11
BRANCH   1  15
ATOM     14  C   UNL     1       8.153   8.810  17.805  0.00  0.00    +0.000 C 
ATOM     15  O   UNL     1       7.492   7.936  16.893  0.00  0.00    +0.000 OA
ENDBRANCH   1  15
TORSDOF 2
ENDMDL
MODEL 6
REMARK VINA RESULT:      -5.7      2.691      4.865
REMARK  Name = 
REMARK  3 active torsions:
REMARK  status: ('A' for Active; 'I' for Inactive)
REMARK    1  A    between atoms: C_1  and  O_2
REMARK    2  A    between atoms: O_2  and  C_3
REMARK    3  A    between atoms: C_7  and  N_8
REMARK                            x       y       z     vdW  Elec       q    Type
REMARK                         _______ _______ _______ _____ _____    ______ ____
ROOT
ATOM      1  C   UNL     1       5.681   4.396  17.176  0.00  0.00    +0.000 A 
ATOM      2  C   UNL     1       5.781   5.210  18.296  0.00  0.00    +0.000 A 
ATOM      3  C   UNL     1       4.697   5.319  19.168  0.00  0.00    +0.000 A 
ATOM      4  C   UNL     1       3.488   4.629  18.929  0.00  0.00    +0.000 A 
ATOM      5  C   UNL     1       2.360   4.701  19.784  0.00  0.00    +0.000 A 
ATOM      6  C   UNL     1       1.246   3.915  19.491  0.00  0.00    +0.000 A 
ATOM      7  C   UNL     1       1.243   3.175  18.325  0.00  0.00    +0.000 A 
ATOM      8  N   UNL     1       2.279   3.130  17.464  0.00  0.00    +0.000 NA
ATOM      9  C   UNL     1       3.386   3.825  17.767  0.00  0.00    +0.000 A 
ATOM     10  C   UNL     1       4.480   3.735  16.915  0.00  0.00    +0.000 A 
ENDROOT
BRANCH   5  11
ATOM     11  N   UNL     1       2.403   5.352  21.035  0.00  0.00    +0.000 N 
ATOM     12  H   UNL     1       2.818   4.801  21.777  0.00  0.00    +0.000 HD
ATOM     13  H   UNL     1       2.802   6.285  20.998  0.00  0.00    +0.000 HD
ENDBRANCH   5  11
BRANCH   1  15
ATOM     14  C   UNL     1       6.249   4.091  14.906  0.00  0.00    +0.000 C 
ATOM     15  O   UNL     1       6.679   4.206  16.260  0.00  0.00    +0.000 OA
ENDBRANCH   1  15
TORSDOF 2
ENDMDL
MODEL 7
REMARK VINA RESULT:      -5.7      1.504      1.551
REMARK  Name = 
REMARK  3 active torsions:
REMARK  status: ('A' for Active; 'I' for Inactive)
REMARK    1  A    between atoms: C_1  and  O_2
REMARK    2  A    between atoms: O_2  and  C_3
REMARK    3  A    between atoms: C_7  and  N_8
REMARK                            x       y       z     vdW  Elec       q    Type
REMARK                         _______ _______ _______ _____ _____    ______ ____
ROOT
ATOM      1  C   UNL     1       2.786   4.267  19.133  0.00  0.00    +0.000 A 
ATOM      2  C   UNL     1       2.617   3.876  17.812  0.00  0.00    +0.000 A 
ATOM      3  C   UNL     1       3.711   3.875  16.948  0.00  0.00    +0.000 A 
ATOM      4  C   UNL     1       4.994   4.280  17.382  0.00  0.00    +0.000 A 
ATOM      5  C   UNL     1       6.138   4.294  16.547  0.00  0.00    +0.000 A 
ATOM      6  C   UNL     1       7.369   4.639  17.104  0.00  0.00    +0.000 A 
ATOM      7  C   UNL     1       7.411   5.052  18.420  0.00  0.00    +0.000 A 
ATOM      8  N   UNL     1       6.330   5.103  19.224  0.00  0.00    +0.000 NA
ATOM      9  C   UNL     1       5.149   4.707  18.723  0.00  0.00    +0.000 A 
ATOM     10  C   UNL     1       4.041   4.699  19.563  0.00  0.00    +0.000 A 
ENDROOT
BRANCH   5  11
ATOM     11  N   UNL     1       6.126   3.755  15.243  0.00  0.00    +0.000 N 
ATOM     12  H   UNL     1       6.568   2.846  15.164  0.00  0.00    +0.000 HD
ATOM     13  H   UNL     1       5.210   3.761  14.806  0.00  0.00    +0.000 HD
ENDBRANCH   5  11
BRANCH   1  15
ATOM     14  C   UNL     1       2.153   3.812  21.361  0.00  0.00    +0.000 C 
ATOM     15  O   UNL     1       1.790   4.298  20.071  0.00  0.00    +0.000 OA
ENDBRANCH   1  15
TORSDOF 2
ENDMDL
MODEL 8
REMARK VINA RESULT:      -5.7      3.103      4.866
REMARK  Name = 
REMARK  3 active torsions:
REMARK  status: ('A' for Active; 'I' for Inactive)
REMARK    1  A    between atoms: C_1  and  O_2
REMARK    2  A    between atoms: O_2  and  C_3
REMARK    3  A    between atoms: C_7  and  N_8
REMARK                            x       y       z     vdW  Elec       q    Type
REMARK                         _______ _______ _______ _____ _____    ______ ____
ROOT
ATOM      1  C   UNL     1       4.420   4.434  16.765  0.00  0.00    +0.000 A 
ATOM      2  C   UNL     1       4.357   5.726  17.269  0.00  0.00    +0.000 A 
ATOM      3  C   UNL     1       3.540   6.001  18.365  0.00  0.00    +0.000 A 
ATOM      4  C   UNL     1       2.759   4.992  18.972  0.00  0.00    +0.000 A 
ATOM      5  C   UNL     1       1.917   5.216  20.090  0.00  0.00    +0.000 A 
ATOM      6  C   UNL     1       1.251   4.129  20.655  0.00  0.00    +0.000 A 
ATOM      7  C   UNL     1       1.355   2.895  20.044  0.00  0.00    +0.000 A 
ATOM      8  N   UNL     1       2.104   2.663  18.948  0.00  0.00    +0.000 NA
ATOM      9  C   UNL     1       2.807   3.684  18.433  0.00  0.00    +0.000 A 
ATOM     10  C   UNL     1       3.628   3.438  17.338  0.00  0.00    +0.000 A 
ENDROOT
BRANCH   5  11
ATOM     11  N   UNL     1       1.906   6.440  20.792  0.00  0.00    +0.000 N 
ATOM     12  H   UNL     1       2.819   6.863  20.907  0.00  0.00    +0.000 HD
ATOM     13  H   UNL     1       1.229   7.109  20.437  0.00  0.00    +0.000 HD
ENDBRANCH   5  11
BRANCH   1  15
ATOM     14  C   UNL     1       6.582   4.338  15.823  0.00  0.00    +0.000 C 
ATOM     15  O   UNL     1       5.191   4.048  15.704  0.00  0.00    +0.000 OA
ENDBRANCH   1  15
TORSDOF 2
ENDMDL
MODEL 9
REMARK VINA RESULT:      -5.7      2.919      4.865
REMARK  Name = 
REMARK  3 active torsions:
REMARK  status: ('A' for Active; 'I' for Inactive)
REMARK    1  A    between atoms: C_1  and  O_2
REMARK    2  A    between atoms: O_2  and  C_3
REMARK    3  A    between atoms: C_7  and  N_8
REMARK                            x       y       z     vdW  Elec       q    Type
REMARK                         _______ _______ _______ _____ _____    ______ ____
ROOT
ATOM      1  C   UNL     1       4.764   5.436  17.133  0.00  0.00    +0.000 A 
ATOM      2  C   UNL     1       4.520   4.148  16.676  0.00  0.00    +0.000 A 
ATOM      3  C   UNL     1       3.563   3.359  17.314  0.00  0.00    +0.000 A 
ATOM      4  C   UNL     1       2.841   3.836  18.430  0.00  0.00    +0.000 A 
ATOM      5  C   UNL     1       1.856   3.079  19.112  0.00  0.00    +0.000 A 
ATOM      6  C   UNL     1       1.151   3.680  20.153  0.00  0.00    +0.000 A 
ATOM      7  C   UNL     1       1.508   4.954  20.550  0.00  0.00    +0.000 A 
ATOM      8  N   UNL     1       2.478   5.678  19.957  0.00  0.00    +0.000 NA
ATOM      9  C   UNL     1       3.119   5.140  18.908  0.00  0.00    +0.000 A 
ATOM     10  C   UNL     1       4.079   5.904  18.254  0.00  0.00    +0.000 A 
ENDROOT
BRANCH   5  11
ATOM     11  N   UNL     1       1.401   1.831  18.634  0.00  0.00    +0.000 N 
ATOM     12  H   UNL     1       2.092   1.309  18.109  0.00  0.00    +0.000 HD
ATOM     13  H   UNL     1       0.963   1.255  19.346  0.00  0.00    +0.000 HD
ENDBRANCH   5  11
BRANCH   1  15
ATOM     14  C   UNL     1       7.023   6.102  16.983  0.00  0.00    +0.000 C 
ATOM     15  O   UNL     1       5.670   6.300  16.581  0.00  0.00    +0.000 OA
ENDBRANCH   1  15
TORSDOF 2
ENDMDL
