MODEL 1
REMARK VINA RESULT:      -7.2      0.000      0.000
REMARK  Name = 
REMARK  6 active torsions:
REMARK  status: ('A' for Active; 'I' for Inactive)
REMARK    1  A    between atoms: C_1  and  C_2
REMARK    2  A    between atoms: C_5  and  C_7
REMARK    3  A    between atoms: C_7  and  N_8
REMARK    4  A    between atoms: C_10  and  C_11
REMARK    5  A    between atoms: C_14  and  O_15
REMARK    6  A    between atoms: C_14  and  C_16
REMARK                            x       y       z     vdW  Elec       q    Type
REMARK                         _______ _______ _______ _____ _____    ______ ____
ROOT
ATOM      1  C   UNL     1       4.438   1.887  20.537  0.00  0.00    +0.000 C 
ATOM      2  C   UNL     1       4.287   3.174  19.795  0.00  0.00    +0.000 C 
ATOM      3  N   UNL     1       5.135   3.579  18.914  0.00  0.00    +0.000 NA
ATOM      4  N   UNL     1       4.625   4.749  18.413  0.00  0.00    +0.000 N 
ATOM      5  C   UNL     1       5.233   5.418  17.366  0.00  0.00    +0.000 C 
ATOM      6  O   UNL     1       4.665   6.366  16.816  0.00  0.00    +0.000 OA
ATOM      7  C   UNL     1       3.257   5.018  18.879  0.00  0.00    +0.000 C 
ATOM      8  C   UNL     1       3.152   4.109  20.098  0.00  0.00    +0.000 C 
ENDROOT
BRANCH   7   9
ATOM      9  C   UNL     1       2.189   4.662  17.818  0.00  0.00    +0.000 C 
ATOM     10  F   UNL     1       2.643   3.685  16.991  0.00  0.00    +0.000 F 
ATOM     11  F   UNL     1       1.089   4.144  18.438  0.00  0.00    +0.000 F 
ENDBRANCH   7   9
BRANCH   7  12
ATOM     12  O   UNL     1       3.166   6.372  19.327  0.00  0.00    +0.000 OA
ATOM     13  H   UNL     1       2.304   6.470  19.770  0.00  0.00    +0.000 HD
ENDBRANCH   7  12
BRANCH   5  14
ATOM     14  C   UNL     1       6.603   4.916  16.959  0.00  0.00    +0.000 C 
BRANCH  14  15
ATOM     15  N   UNL     1       6.677   4.707  15.527  0.00  0.00    +0.000 N 
ATOM     16  C   UNL     1       5.959   3.807  14.784  0.00  0.00    +0.000 A 
ATOM     17  C   UNL     1       6.383   3.956  13.479  0.00  0.00    +0.000 A 
ATOM     18  C   UNL     1       5.915   3.243  12.270  0.00  0.00    +0.000 C 
ATOM     19  C   UNL     1       7.379   4.956  13.552  0.00  0.00    +0.000 A 
ATOM     20  N   UNL     1       7.571   5.400  14.795  0.00  0.00    +0.000 NA
ENDBRANCH  14  15
ENDBRANCH   5  14
TORSDOF 4
ENDMDL
MODEL 2
REMARK VINA RESULT:      -7.0      2.524      3.258
REMARK  Name = 
REMARK  6 active torsions:
REMARK  status: ('A' for Active; 'I' for Inactive)
REMARK    1  A    between atoms: C_1  and  C_2
REMARK    2  A    between atoms: C_5  and  C_7
REMARK    3  A    between atoms: C_7  and  N_8
REMARK    4  A    between atoms: C_10  and  C_11
REMARK    5  A    between atoms: C_14  and  O_15
REMARK    6  A    between atoms: C_14  and  C_16
REMARK                            x       y       z     vdW  Elec       q    Type
REMARK                         _______ _______ _______ _____ _____    ______ ____
ROOT
ATOM      1  C   UNL     1       1.848   7.347  20.312  0.00  0.00    +0.000 C 
ATOM      2  C   UNL     1       2.290   5.953  20.003  0.00  0.00    +0.000 C 
ATOM      3  N   UNL     1       3.505   5.655  19.697  0.00  0.00    +0.000 NA
ATOM      4  N   UNL     1       3.530   4.291  19.553  0.00  0.00    +0.000 N 
ATOM      5  C   UNL     1       4.709   3.607  19.317  0.00  0.00    +0.000 C 
ATOM      6  O   UNL     1       4.738   2.375  19.368  0.00  0.00    +0.000 OA
ATOM      7  C   UNL     1       2.277   3.651  19.978  0.00  0.00    +0.000 C 
ATOM      8  C   UNL     1       1.303   4.823  19.966  0.00  0.00    +0.000 C 
ENDROOT
BRANCH   7   9
ATOM      9  C   UNL     1       2.381   3.020  21.386  0.00  0.00    +0.000 C 
ATOM     10  F   UNL     1       2.552   3.982  22.330  0.00  0.00    +0.000 F 
ATOM     11  F   UNL     1       1.206   2.401  21.694  0.00  0.00    +0.000 F 
ENDBRANCH   7   9
BRANCH   7  12
ATOM     12  O   UNL     1       1.860   2.718  18.979  0.00  0.00    +0.000 OA
ATOM     13  H   UNL     1       1.249   3.189  18.384  0.00  0.00    +0.000 HD
ENDBRANCH   7  12
BRANCH   5  14
ATOM     14  C   UNL     1       5.923   4.458  19.003  0.00  0.00    +0.000 C 
BRANCH  14  15
ATOM     15  N   UNL     1       6.199   4.465  17.581  0.00  0.00    +0.000 N 
ATOM     16  C   UNL     1       5.312   4.230  16.564  0.00  0.00    +0.000 A 
ATOM     17  C   UNL     1       6.033   4.322  15.390  0.00  0.00    +0.000 A 
ATOM     18  C   UNL     1       5.552   4.176  13.999  0.00  0.00    +0.000 C 
ATOM     19  C   UNL     1       7.353   4.590  15.817  0.00  0.00    +0.000 A 
ATOM     20  N   UNL     1       7.460   4.660  17.145  0.00  0.00    +0.000 NA
ENDBRANCH  14  15
ENDBRANCH   5  14
TORSDOF 4
ENDMDL
MODEL 3
REMARK VINA RESULT:      -7.0      1.285      1.340
REMARK  Name = 
REMARK  6 active torsions:
REMARK  status: ('A' for Active; 'I' for Inactive)
REMARK    1  A    between atoms: C_1  and  C_2
REMARK    2  A    between atoms: C_5  and  C_7
REMARK    3  A    between atoms: C_7  and  N_8
REMARK    4  A    between atoms: C_10  and  C_11
REMARK    5  A    between atoms: C_14  and  O_15
REMARK    6  A    between atoms: C_14  and  C_16
REMARK                            x       y       z     vdW  Elec       q    Type
REMARK                         _______ _______ _______ _____ _____    ______ ____
ROOT
ATOM      1  C   UNL     1       2.573   1.669  18.759  0.00  0.00    +0.000 C 
ATOM      2  C   UNL     1       3.154   3.045  18.807  0.00  0.00    +0.000 C 
ATOM      3  N   UNL     1       4.311   3.334  18.323  0.00  0.00    +0.000 NA
ATOM      4  N   UNL     1       4.461   4.686  18.494  0.00  0.00    +0.000 N 
ATOM      5  C   UNL     1       5.559   5.365  17.997  0.00  0.00    +0.000 C 
ATOM      6  O   UNL     1       5.588   6.598  18.004  0.00  0.00    +0.000 OA
ATOM      7  C   UNL     1       3.228   5.341  18.956  0.00  0.00    +0.000 C 
ATOM      8  C   UNL     1       2.428   4.163  19.499  0.00  0.00    +0.000 C 
ENDROOT
BRANCH   7   9
ATOM      9  C   UNL     1       2.472   6.057  17.813  0.00  0.00    +0.000 C 
ATOM     10  F   UNL     1       1.342   5.376  17.487  0.00  0.00    +0.000 F 
ATOM     11  F   UNL     1       2.057   7.283  18.242  0.00  0.00    +0.000 F 
ENDBRANCH   7   9
BRANCH   7  12
ATOM     12  O   UNL     1       3.535   6.209  20.050  0.00  0.00    +0.000 OA
ATOM     13  H   UNL     1       3.468   5.678  20.864  0.00  0.00    +0.000 HD
ENDBRANCH   7  12
BRANCH   5  14
ATOM     14  C   UNL     1       6.687   4.507  17.459  0.00  0.00    +0.000 C 
BRANCH  14  15
ATOM     15  N   UNL     1       6.681   4.488  16.011  0.00  0.00    +0.000 N 
ATOM     16  C   UNL     1       5.926   3.685  15.196  0.00  0.00    +0.000 A 
ATOM     17  C   UNL     1       6.277   4.008  13.901  0.00  0.00    +0.000 A 
ATOM     18  C   UNL     1       5.744   3.454  12.636  0.00  0.00    +0.000 C 
ATOM     19  C   UNL     1       7.272   5.000  14.050  0.00  0.00    +0.000 A 
ATOM     20  N   UNL     1       7.531   5.280  15.328  0.00  0.00    +0.000 NA
ENDBRANCH  14  15
ENDBRANCH   5  14
TORSDOF 4
ENDMDL
MODEL 4
REMARK VINA RESULT:      -6.8      1.948      2.810
REMARK  Name = 
REMARK  6 active torsions:
REMARK  status: ('A' for Active; 'I' for Inactive)
REMARK    1  A    between atoms: C_1  and  C_2
REMARK    2  A    between atoms: C_5  and  C_7
REMARK    3  A    between atoms: C_7  and  N_8
REMARK    4  A    between atoms: C_10  and  C_11
REMARK    5  A    between atoms: C_14  and  O_15
REMARK    6  A    between atoms: C_14  and  C_16
REMARK                            x       y       z     vdW  Elec       q    Type
REMARK                         _______ _______ _______ _____ _____    ______ ____
ROOT
ATOM      1  C   UNL     1       2.654   8.270  17.983  0.00  0.00    +0.000 C 
ATOM      2  C   UNL     1       2.809   6.785  17.954  0.00  0.00    +0.000 C 
ATOM      3  N   UNL     1       3.951   6.200  17.841  0.00  0.00    +0.000 NA
ATOM      4  N   UNL     1       3.693   4.856  17.921  0.00  0.00    +0.000 N 
ATOM      5  C   UNL     1       4.711   3.920  17.935  0.00  0.00    +0.000 C 
ATOM      6  O   UNL     1       4.469   2.737  18.186  0.00  0.00    +0.000 OA
ATOM      7  C   UNL     1       2.302   4.565  18.297  0.00  0.00    +0.000 C 
ATOM      8  C   UNL     1       1.607   5.885  17.986  0.00  0.00    +0.000 C 
ENDROOT
BRANCH   7   9
ATOM      9  C   UNL     1       2.157   4.191  19.791  0.00  0.00    +0.000 C 
ATOM     10  F   UNL     1       1.106   4.847  20.349  0.00  0.00    +0.000 F 
ATOM     11  F   UNL     1       1.867   2.863  19.899  0.00  0.00    +0.000 F 
ENDBRANCH   7   9
BRANCH   7  12
ATOM     12  O   UNL     1       1.773   3.568  17.420  0.00  0.00    +0.000 OA
ATOM     13  H   UNL     1       1.808   2.720  17.898  0.00  0.00    +0.000 HD
ENDBRANCH   7  12
BRANCH   5  14
ATOM     14  C   UNL     1       6.101   4.441  17.629  0.00  0.00    +0.000 C 
BRANCH  14  15
ATOM     15  N   UNL     1       6.340   4.478  16.201  0.00  0.00    +0.000 N 
ATOM     16  C   UNL     1       5.809   3.647  15.251  0.00  0.00    +0.000 A 
ATOM     17  C   UNL     1       6.341   4.050  14.042  0.00  0.00    +0.000 A 
ATOM     18  C   UNL     1       6.080   3.503  12.692  0.00  0.00    +0.000 C 
ATOM     19  C   UNL     1       7.203   5.116  14.383  0.00  0.00    +0.000 A 
ATOM     20  N   UNL     1       7.218   5.366  15.693  0.00  0.00    +0.000 NA
ENDBRANCH  14  15
ENDBRANCH   5  14
TORSDOF 4
ENDMDL
MODEL 5
REMARK VINA RESULT:      -6.8      2.680      5.858
REMARK  Name = 
REMARK  6 active torsions:
REMARK  status: ('A' for Active; 'I' for Inactive)
REMARK    1  A    between atoms: C_1  and  C_2
REMARK    2  A    between atoms: C_5  and  C_7
REMARK    3  A    between atoms: C_7  and  N_8
REMARK    4  A    between atoms: C_10  and  C_11
REMARK    5  A    between atoms: C_14  and  O_15
REMARK    6  A    between atoms: C_14  and  C_16
REMARK                            x       y       z     vdW  Elec       q    Type
REMARK                         _______ _______ _______ _____ _____    ______ ____
ROOT
ATOM      1  C   UNL     1       6.070   3.791  13.902  0.00  0.00    +0.000 C 
ATOM      2  C   UNL     1       5.936   4.593  15.155  0.00  0.00    +0.000 C 
ATOM      3  N   UNL     1       4.850   4.639  15.846  0.00  0.00    +0.000 NA
ATOM      4  N   UNL     1       5.135   5.411  16.943  0.00  0.00    +0.000 N 
ATOM      5  C   UNL     1       4.218   5.596  17.961  0.00  0.00    +0.000 C 
ATOM      6  O   UNL     1       4.554   6.143  19.014  0.00  0.00    +0.000 OA
ATOM      7  C   UNL     1       6.566   5.733  17.054  0.00  0.00    +0.000 C 
ATOM      8  C   UNL     1       7.064   5.457  15.640  0.00  0.00    +0.000 C 
ENDROOT
BRANCH   7   9
ATOM      9  C   UNL     1       7.294   4.847  18.091  0.00  0.00    +0.000 C 
ATOM     10  F   UNL     1       8.277   4.122  17.495  0.00  0.00    +0.000 F 
ATOM     11  F   UNL     1       7.920   5.640  19.006  0.00  0.00    +0.000 F 
ENDBRANCH   7   9
BRANCH   7  12
ATOM     12  O   UNL     1       6.717   7.131  17.313  0.00  0.00    +0.000 OA
ATOM     13  H   UNL     1       7.654   7.280  17.535  0.00  0.00    +0.000 HD
ENDBRANCH   7  12
BRANCH   5  14
ATOM     14  C   UNL     1       2.814   5.092  17.694  0.00  0.00    +0.000 C 
BRANCH  14  15
ATOM     15  N   UNL     1       2.451   4.044  18.626  0.00  0.00    +0.000 N 
ATOM     16  C   UNL     1       2.065   4.194  19.932  0.00  0.00    +0.000 A 
ATOM     17  C   UNL     1       1.845   2.922  20.420  0.00  0.00    +0.000 A 
ATOM     18  C   UNL     1       1.391   2.518  21.769  0.00  0.00    +0.000 C 
ATOM     19  C   UNL     1       2.153   2.076  19.331  0.00  0.00    +0.000 A 
ATOM     20  N   UNL     1       2.538   2.753  18.248  0.00  0.00    +0.000 NA
ENDBRANCH  14  15
ENDBRANCH   5  14
TORSDOF 4
ENDMDL
MODEL 6
REMARK VINA RESULT:      -6.7      2.813      5.538
REMARK  Name = 
REMARK  6 active torsions:
REMARK  status: ('A' for Active; 'I' for Inactive)
REMARK    1  A    between atoms: C_1  and  C_2
REMARK    2  A    between atoms: C_5  and  C_7
REMARK    3  A    between atoms: C_7  and  N_8
REMARK    4  A    between atoms: C_10  and  C_11
REMARK    5  A    between atoms: C_14  and  O_15
REMARK    6  A    between atoms: C_14  and  C_16
REMARK                            x       y       z     vdW  Elec       q    Type
REMARK                         _______ _______ _______ _____ _____    ______ ____
ROOT
ATOM      1  C   UNL     1       8.018   6.195  18.967  0.00  0.00    +0.000 C 
ATOM      2  C   UNL     1       6.949   5.413  18.275  0.00  0.00    +0.000 C 
ATOM      3  N   UNL     1       5.751   5.303  18.735  0.00  0.00    +0.000 NA
ATOM      4  N   UNL     1       5.057   4.579  17.801  0.00  0.00    +0.000 N 
ATOM      5  C   UNL     1       3.698   4.349  17.922  0.00  0.00    +0.000 C 
ATOM      6  O   UNL     1       3.062   3.853  16.989  0.00  0.00    +0.000 OA
ATOM      7  C   UNL     1       5.821   4.366  16.563  0.00  0.00    +0.000 C 
ATOM      8  C   UNL     1       7.248   4.646  17.019  0.00  0.00    +0.000 C 
ENDROOT
BRANCH   7   9
ATOM      9  C   UNL     1       5.393   5.327  15.429  0.00  0.00    +0.000 C 
ATOM     10  F   UNL     1       5.241   6.591  15.905  0.00  0.00    +0.000 F 
ATOM     11  F   UNL     1       6.386   5.398  14.497  0.00  0.00    +0.000 F 
ENDBRANCH   7   9
BRANCH   7  12
ATOM     12  O   UNL     1       5.738   2.990  16.186  0.00  0.00    +0.000 OA
ATOM     13  H   UNL     1       5.891   2.947  15.224  0.00  0.00    +0.000 HD
ENDBRANCH   7  12
BRANCH   5  14
ATOM     14  C   UNL     1       3.070   4.742  19.244  0.00  0.00    +0.000 C 
BRANCH  14  15
ATOM     15  N   UNL     1       2.599   6.111  19.210  0.00  0.00    +0.000 N 
ATOM     16  C   UNL     1       2.655   6.980  18.153  0.00  0.00    +0.000 A 
ATOM     17  C   UNL     1       2.111   8.169  18.598  0.00  0.00    +0.000 A 
ATOM     18  C   UNL     1       1.910   9.428  17.848  0.00  0.00    +0.000 C 
ATOM     19  C   UNL     1       1.783   7.913  19.948  0.00  0.00    +0.000 A 
ATOM     20  N   UNL     1       2.094   6.673  20.327  0.00  0.00    +0.000 NA
ENDBRANCH  14  15
ENDBRANCH   5  14
TORSDOF 4
ENDMDL
MODEL 7
REMARK VINA RESULT:      -6.7      2.654      3.439
REMARK  Name = 
REMARK  6 active torsions:
REMARK  status: ('A' for Active; 'I' for Inactive)
REMARK    1  A    between atoms: C_1  and  C_2
REMARK    2  A    between atoms: C_5  and  C_7
REMARK    3  A    between atoms: C_7  and  N_8
REMARK    4  A    between atoms: C_10  and  C_11
REMARK    5  A    between atoms: C_14  and  O_15
REMARK    6  A    between atoms: C_14  and  C_16
REMARK                            x       y       z     vdW  Elec       q    Type
REMARK                         _______ _______ _______ _____ _____    ______ ____
ROOT
ATOM      1  C   UNL     1       1.461   6.896  21.056  0.00  0.00    +0.000 C 
ATOM      2  C   UNL     1       1.852   5.600  20.424  0.00  0.00    +0.000 C 
ATOM      3  N   UNL     1       3.040   5.363  19.987  0.00  0.00    +0.000 NA
ATOM      4  N   UNL     1       3.025   4.064  19.548  0.00  0.00    +0.000 N 
ATOM      5  C   UNL     1       4.172   3.435  19.098  0.00  0.00    +0.000 C 
ATOM      6  O   UNL     1       4.174   2.222  18.877  0.00  0.00    +0.000 OA
ATOM      7  C   UNL     1       1.783   3.360  19.899  0.00  0.00    +0.000 C 
ATOM      8  C   UNL     1       0.837   4.516  20.202  0.00  0.00    +0.000 C 
ENDROOT
BRANCH   7   9
ATOM      9  C   UNL     1       1.952   2.434  21.127  0.00  0.00    +0.000 C 
ATOM     10  F   UNL     1       3.015   2.825  21.878  0.00  0.00    +0.000 F 
ATOM     11  F   UNL     1       0.861   2.551  21.937  0.00  0.00    +0.000 F 
ENDBRANCH   7   9
BRANCH   7  12
ATOM     12  O   UNL     1       1.287   2.672  18.748  0.00  0.00    +0.000 OA
ATOM     13  H   UNL     1       0.323   2.813  18.723  0.00  0.00    +0.000 HD
ENDBRANCH   7  12
BRANCH   5  14
ATOM     14  C   UNL     1       5.386   4.321  18.903  0.00  0.00    +0.000 C 
BRANCH  14  15
ATOM     15  N   UNL     1       5.561   4.664  17.507  0.00  0.00    +0.000 N 
ATOM     16  C   UNL     1       6.626   4.350  16.704  0.00  0.00    +0.000 A 
ATOM     17  C   UNL     1       6.358   4.906  15.469  0.00  0.00    +0.000 A 
ATOM     18  C   UNL     1       7.171   4.845  14.235  0.00  0.00    +0.000 C 
ATOM     19  C   UNL     1       5.116   5.556  15.646  0.00  0.00    +0.000 A 
ATOM     20  N   UNL     1       4.639   5.426  16.885  0.00  0.00    +0.000 NA
ENDBRANCH  14  15
ENDBRANCH   5  14
TORSDOF 4
ENDMDL
MODEL 8
REMARK VINA RESULT:      -6.5      2.928      3.961
REMARK  Name = 
REMARK  6 active torsions:
REMARK  status: ('A' for Active; 'I' for Inactive)
REMARK    1  A    between atoms: C_1  and  C_2
REMARK    2  A    between atoms: C_5  and  C_7
REMARK    3  A    between atoms: C_7  and  N_8
REMARK    4  A    between atoms: C_10  and  C_11
REMARK    5  A    between atoms: C_14  and  O_15
REMARK    6  A    between atoms: C_14  and  C_16
REMARK                            x       y       z     vdW  Elec       q    Type
REMARK                         _______ _______ _______ _____ _____    ______ ____
ROOT
ATOM      1  C   UNL     1       1.607   6.831  20.719  0.00  0.00    +0.000 C 
ATOM      2  C   UNL     1       1.793   5.513  20.039  0.00  0.00    +0.000 C 
ATOM      3  N   UNL     1       2.555   5.355  19.013  0.00  0.00    +0.000 NA
ATOM      4  N   UNL     1       2.519   4.016  18.722  0.00  0.00    +0.000 N 
ATOM      5  C   UNL     1       3.307   3.466  17.727  0.00  0.00    +0.000 C 
ATOM      6  O   UNL     1       3.391   2.242  17.602  0.00  0.00    +0.000 OA
ATOM      7  C   UNL     1       1.825   3.229  19.752  0.00  0.00    +0.000 C 
ATOM      8  C   UNL     1       1.029   4.301  20.487  0.00  0.00    +0.000 C 
ENDROOT
BRANCH   7   9
ATOM      9  C   UNL     1       2.804   2.504  20.704  0.00  0.00    +0.000 C 
ATOM     10  F   UNL     1       4.058   3.013  20.580  0.00  0.00    +0.000 F 
ATOM     11  F   UNL     1       2.435   2.734  21.997  0.00  0.00    +0.000 F 
ENDBRANCH   7   9
BRANCH   7  12
ATOM     12  O   UNL     1       0.898   2.341  19.125  0.00  0.00    +0.000 OA
ATOM     13  H   UNL     1       0.753   2.671  18.219  0.00  0.00    +0.000 HD
ENDBRANCH   7  12
BRANCH   5  14
ATOM     14  C   UNL     1       4.034   4.449  16.832  0.00  0.00    +0.000 C 
BRANCH  14  15
ATOM     15  N   UNL     1       5.398   4.647  17.277  0.00  0.00    +0.000 N 
ATOM     16  C   UNL     1       5.813   5.272  18.423  0.00  0.00    +0.000 A 
ATOM     17  C   UNL     1       7.194   5.238  18.405  0.00  0.00    +0.000 A 
ATOM     18  C   UNL     1       8.141   5.754  19.418  0.00  0.00    +0.000 C 
ATOM     19  C   UNL     1       7.507   4.591  17.189  0.00  0.00    +0.000 A 
ATOM     20  N   UNL     1       6.421   4.247  16.495  0.00  0.00    +0.000 NA
ENDBRANCH  14  15
ENDBRANCH   5  14
TORSDOF 4
ENDMDL
MODEL 9
REMARK VINA RESULT:      -6.5      2.679      6.056
REMARK  Name = 
REMARK  6 active torsions:
REMARK  status: ('A' for Active; 'I' for Inactive)
REMARK    1  A    between atoms: C_1  and  C_2
REMARK    2  A    between atoms: C_5  and  C_7
REMARK    3  A    between atoms: C_7  and  N_8
REMARK    4  A    between atoms: C_10  and  C_11
REMARK    5  A    between atoms: C_14  and  O_15
REMARK    6  A    between atoms: C_14  and  C_16
REMARK                            x       y       z     vdW  Elec       q    Type
REMARK                         _______ _______ _______ _____ _____    ______ ____
ROOT
ATOM      1  C   UNL     1       7.402   8.180  17.638  0.00  0.00    +0.000 C 
ATOM      2  C   UNL     1       6.712   6.891  17.333  0.00  0.00    +0.000 C 
ATOM      3  N   UNL     1       5.514   6.626  17.725  0.00  0.00    +0.000 NA
ATOM      4  N   UNL     1       5.211   5.396  17.199  0.00  0.00    +0.000 N 
ATOM      5  C   UNL     1       3.954   4.836  17.339  0.00  0.00    +0.000 C 
ATOM      6  O   UNL     1       3.651   3.818  16.712  0.00  0.00    +0.000 OA
ATOM      7  C   UNL     1       6.225   4.920  16.247  0.00  0.00    +0.000 C 
ATOM      8  C   UNL     1       7.424   5.792  16.597  0.00  0.00    +0.000 C 
ENDROOT
BRANCH   7   9
ATOM      9  C   UNL     1       5.795   5.118  14.775  0.00  0.00    +0.000 C 
ATOM     10  F   UNL     1       5.086   6.268  14.634  0.00  0.00    +0.000 F 
ATOM     11  F   UNL     1       6.904   5.267  13.995  0.00  0.00    +0.000 F 
ENDBRANCH   7   9
BRANCH   7  12
ATOM     12  O   UNL     1       6.559   3.564  16.551  0.00  0.00    +0.000 OA
ATOM     13  H   UNL     1       5.852   3.216  17.125  0.00  0.00    +0.000 HD
ENDBRANCH   7  12
BRANCH   5  14
ATOM     14  C   UNL     1       3.010   5.543  18.289  0.00  0.00    +0.000 C 
BRANCH  14  15
ATOM     15  N   UNL     1       2.286   4.592  19.108  0.00  0.00    +0.000 N 
ATOM     16  C   UNL     1       2.619   4.160  20.365  0.00  0.00    +0.000 A 
ATOM     17  C   UNL     1       1.651   3.246  20.729  0.00  0.00    +0.000 A 
ATOM     18  C   UNL     1       1.523   2.496  21.999  0.00  0.00    +0.000 C 
ATOM     19  C   UNL     1       0.797   3.182  19.606  0.00  0.00    +0.000 A 
ATOM     20  N   UNL     1       1.189   3.983  18.615  0.00  0.00    +0.000 NA
ENDBRANCH  14  15
ENDBRANCH   5  14
TORSDOF 4
ENDMDL
