MODEL 1
REMARK VINA RESULT:      -7.0      0.000      0.000
REMARK  Name = 
REMARK  4 active torsions:
REMARK  status: ('A' for Active; 'I' for Inactive)
REMARK    1  A    between atoms: C_1  and  O_2
REMARK    2  A    between atoms: O_2  and  C_3
REMARK    3  A    between atoms: C_8  and  N_9
REMARK    4  A    between atoms: C_17  and  C_18
REMARK                            x       y       z     vdW  Elec       q    Type
REMARK                         _______ _______ _______ _____ _____    ______ ____
ROOT
ATOM      1  N   UNL     1       5.269   4.727  18.061  0.00  0.00    +0.000 N 
ATOM      2  C   UNL     1       5.150   3.710  17.146  0.00  0.00    +0.000 C 
ATOM      3  O   UNL     1       5.931   3.480  16.224  0.00  0.00    +0.000 OA
ATOM      4  N   UNL     1       4.067   2.884  17.266  0.00  0.00    +0.000 N 
ATOM      5  C   UNL     1       3.007   2.983  18.163  0.00  0.00    +0.000 A 
ATOM      6  C   UNL     1       1.928   2.120  18.035  0.00  0.00    +0.000 A 
ATOM      7  C   UNL     1       0.855   2.271  18.910  0.00  0.00    +0.000 A 
ATOM      8  C   UNL     1       0.892   3.272  19.879  0.00  0.00    +0.000 A 
ATOM      9  C   UNL     1       2.014   4.082  19.952  0.00  0.00    +0.000 A 
ATOM     10  C   UNL     1       2.137   5.205  20.925  0.00  0.00    +0.000 C 
ATOM     11  N   UNL     1       3.058   3.934  19.114  0.00  0.00    +0.000 NA
ATOM     12  H   UNL     1       4.652   4.658  18.871  0.00  0.00    +0.000 HD
ATOM     13  H   UNL     1       4.032   2.176  16.549  0.00  0.00    +0.000 HD
ENDROOT
BRANCH   1  19
ATOM     14  C   UNL     1       5.833   6.990  17.335  0.00  0.00    +0.000 A 
ATOM     15  C   UNL     1       6.743   8.058  17.309  0.00  0.00    +0.000 A 
ATOM     16  C   UNL     1       7.958   7.975  17.987  0.00  0.00    +0.000 A 
ATOM     17  C   UNL     1       8.287   6.819  18.681  0.00  0.00    +0.000 A 
ATOM     18  C   UNL     1       7.398   5.746  18.706  0.00  0.00    +0.000 A 
ATOM     19  C   UNL     1       6.166   5.817  18.049  0.00  0.00    +0.000 A 
BRANCH  14  21
ATOM     20  C   UNL     1       3.521   7.523  17.435  0.00  0.00    +0.000 C 
ATOM     21  O   UNL     1       4.623   7.020  16.678  0.00  0.00    +0.000 OA
ENDBRANCH  14  21
ENDBRANCH   1  19
TORSDOF 2
ENDMDL
MODEL 2
REMARK VINA RESULT:      -6.7      2.031      3.478
REMARK  Name = 
REMARK  4 active torsions:
REMARK  status: ('A' for Active; 'I' for Inactive)
REMARK    1  A    between atoms: C_1  and  O_2
REMARK    2  A    between atoms: O_2  and  C_3
REMARK    3  A    between atoms: C_8  and  N_9
REMARK    4  A    between atoms: C_17  and  C_18
REMARK                            x       y       z     vdW  Elec       q    Type
REMARK                         _______ _______ _______ _____ _____    ______ ____
ROOT
ATOM      1  N   UNL     1       4.248   5.033  17.090  0.00  0.00    +0.000 N 
ATOM      2  C   UNL     1       3.762   6.181  17.666  0.00  0.00    +0.000 C 
ATOM      3  O   UNL     1       3.995   7.327  17.287  0.00  0.00    +0.000 OA
ATOM      4  N   UNL     1       2.953   6.038  18.758  0.00  0.00    +0.000 N 
ATOM      5  C   UNL     1       2.609   4.865  19.426  0.00  0.00    +0.000 A 
ATOM      6  C   UNL     1       1.881   4.944  20.604  0.00  0.00    +0.000 A 
ATOM      7  C   UNL     1       1.594   3.762  21.282  0.00  0.00    +0.000 A 
ATOM      8  C   UNL     1       2.039   2.546  20.767  0.00  0.00    +0.000 A 
ATOM      9  C   UNL     1       2.747   2.551  19.575  0.00  0.00    +0.000 A 
ATOM     10  C   UNL     1       3.301   1.311  18.960  0.00  0.00    +0.000 C 
ATOM     11  N   UNL     1       3.019   3.691  18.911  0.00  0.00    +0.000 NA
ATOM     12  H   UNL     1       3.805   4.168  17.401  0.00  0.00    +0.000 HD
ATOM     13  H   UNL     1       2.651   6.921  19.142  0.00  0.00    +0.000 HD
ENDROOT
BRANCH   1  19
ATOM     14  C   UNL     1       6.582   5.227  16.394  0.00  0.00    +0.000 A 
ATOM     15  C   UNL     1       7.555   5.119  15.388  0.00  0.00    +0.000 A 
ATOM     16  C   UNL     1       7.211   4.687  14.108  0.00  0.00    +0.000 A 
ATOM     17  C   UNL     1       5.890   4.377  13.813  0.00  0.00    +0.000 A 
ATOM     18  C   UNL     1       4.912   4.491  14.799  0.00  0.00    +0.000 A 
ATOM     19  C   UNL     1       5.239   4.903  16.094  0.00  0.00    +0.000 A 
BRANCH  14  21
ATOM     20  C   UNL     1       7.492   6.937  17.768  0.00  0.00    +0.000 C 
ATOM     21  O   UNL     1       6.869   5.655  17.671  0.00  0.00    +0.000 OA
ENDBRANCH  14  21
ENDBRANCH   1  19
TORSDOF 2
ENDMDL
MODEL 3
REMARK VINA RESULT:      -6.7      3.009      6.152
REMARK  Name = 
REMARK  4 active torsions:
REMARK  status: ('A' for Active; 'I' for Inactive)
REMARK    1  A    between atoms: C_1  and  O_2
REMARK    2  A    between atoms: O_2  and  C_3
REMARK    3  A    between atoms: C_8  and  N_9
REMARK    4  A    between atoms: C_17  and  C_18
REMARK                            x       y       z     vdW  Elec       q    Type
REMARK                         _______ _______ _______ _____ _____    ______ ____
ROOT
ATOM      1  N   UNL     1       5.123   3.711  16.712  0.00  0.00    +0.000 N 
ATOM      2  C   UNL     1       6.238   4.364  17.178  0.00  0.00    +0.000 C 
ATOM      3  O   UNL     1       6.470   4.638  18.354  0.00  0.00    +0.000 OA
ATOM      4  N   UNL     1       7.168   4.749  16.253  0.00  0.00    +0.000 N 
ATOM      5  C   UNL     1       7.102   4.633  14.867  0.00  0.00    +0.000 A 
ATOM      6  C   UNL     1       8.095   5.212  14.091  0.00  0.00    +0.000 A 
ATOM      7  C   UNL     1       7.981   5.129  12.704  0.00  0.00    +0.000 A 
ATOM      8  C   UNL     1       6.886   4.475  12.141  0.00  0.00    +0.000 A 
ATOM      9  C   UNL     1       5.946   3.909  12.987  0.00  0.00    +0.000 A 
ATOM     10  C   UNL     1       4.720   3.223  12.488  0.00  0.00    +0.000 C 
ATOM     11  N   UNL     1       6.057   3.979  14.328  0.00  0.00    +0.000 NA
ATOM     12  H   UNL     1       5.179   3.391  15.745  0.00  0.00    +0.000 HD
ATOM     13  H   UNL     1       7.948   5.243  16.662  0.00  0.00    +0.000 HD
ENDROOT
BRANCH   1  19
ATOM     14  C   UNL     1       3.031   4.405  17.764  0.00  0.00    +0.000 A 
ATOM     15  C   UNL     1       1.872   4.072  18.482  0.00  0.00    +0.000 A 
ATOM     16  C   UNL     1       1.610   2.750  18.838  0.00  0.00    +0.000 A 
ATOM     17  C   UNL     1       2.510   1.749  18.498  0.00  0.00    +0.000 A 
ATOM     18  C   UNL     1       3.671   2.068  17.795  0.00  0.00    +0.000 A 
ATOM     19  C   UNL     1       3.942   3.384  17.412  0.00  0.00    +0.000 A 
BRANCH  14  21
ATOM     20  C   UNL     1       3.047   6.702  18.366  0.00  0.00    +0.000 C 
ATOM     21  O   UNL     1       3.338   5.696  17.395  0.00  0.00    +0.000 OA
ENDBRANCH  14  21
ENDBRANCH   1  19
TORSDOF 2
ENDMDL
MODEL 4
REMARK VINA RESULT:      -6.5      3.316      5.438
REMARK  Name = 
REMARK  4 active torsions:
REMARK  status: ('A' for Active; 'I' for Inactive)
REMARK    1  A    between atoms: C_1  and  O_2
REMARK    2  A    between atoms: O_2  and  C_3
REMARK    3  A    between atoms: C_8  and  N_9
REMARK    4  A    between atoms: C_17  and  C_18
REMARK                            x       y       z     vdW  Elec       q    Type
REMARK                         _______ _______ _______ _____ _____    ______ ____
ROOT
ATOM      1  N   UNL     1       2.822   6.190  19.447  0.00  0.00    +0.000 N 
ATOM      2  C   UNL     1       2.261   5.814  20.643  0.00  0.00    +0.000 C 
ATOM      3  O   UNL     1       2.405   4.723  21.191  0.00  0.00    +0.000 OA
ATOM      4  N   UNL     1       1.470   6.731  21.277  0.00  0.00    +0.000 N 
ATOM      5  C   UNL     1       1.086   7.992  20.828  0.00  0.00    +0.000 A 
ATOM      6  C   UNL     1       0.161   8.720  21.562  0.00  0.00    +0.000 A 
ATOM      7  C   UNL     1      -0.248   9.956  21.067  0.00  0.00    +0.000 A 
ATOM      8  C   UNL     1       0.276  10.423  19.863  0.00  0.00    +0.000 A 
ATOM      9  C   UNL     1       1.209   9.642  19.199  0.00  0.00    +0.000 A 
ATOM     10  C   UNL     1       1.800  10.032  17.886  0.00  0.00    +0.000 C 
ATOM     11  N   UNL     1       1.614   8.451  19.678  0.00  0.00    +0.000 NA
ATOM     12  H   UNL     1       2.765   7.185  19.233  0.00  0.00    +0.000 HD
ATOM     13  H   UNL     1       1.074   6.380  22.136  0.00  0.00    +0.000 HD
ENDROOT
BRANCH   1  19
ATOM     14  C   UNL     1       2.809   4.379  17.807  0.00  0.00    +0.000 A 
ATOM     15  C   UNL     1       3.505   3.570  16.896  0.00  0.00    +0.000 A 
ATOM     16  C   UNL     1       4.868   3.760  16.672  0.00  0.00    +0.000 A 
ATOM     17  C   UNL     1       5.554   4.745  17.369  0.00  0.00    +0.000 A 
ATOM     18  C   UNL     1       4.877   5.548  18.285  0.00  0.00    +0.000 A 
ATOM     19  C   UNL     1       3.507   5.387  18.510  0.00  0.00    +0.000 A 
BRANCH  14  21
ATOM     20  C   UNL     1       1.065   2.932  18.518  0.00  0.00    +0.000 C 
ATOM     21  O   UNL     1       1.465   4.228  18.068  0.00  0.00    +0.000 OA
ENDBRANCH  14  21
ENDBRANCH   1  19
TORSDOF 2
ENDMDL
MODEL 5
REMARK VINA RESULT:      -6.5      1.067      2.123
REMARK  Name = 
REMARK  4 active torsions:
REMARK  status: ('A' for Active; 'I' for Inactive)
REMARK    1  A    between atoms: C_1  and  O_2
REMARK    2  A    between atoms: O_2  and  C_3
REMARK    3  A    between atoms: C_8  and  N_9
REMARK    4  A    between atoms: C_17  and  C_18
REMARK                            x       y       z     vdW  Elec       q    Type
REMARK                         _______ _______ _______ _____ _____    ______ ____
ROOT
ATOM      1  N   UNL     1       5.357   4.933  17.904  0.00  0.00    +0.000 N 
ATOM      2  C   UNL     1       5.282   3.880  17.027  0.00  0.00    +0.000 C 
ATOM      3  O   UNL     1       6.078   3.644  16.119  0.00  0.00    +0.000 OA
ATOM      4  N   UNL     1       4.228   3.021  17.170  0.00  0.00    +0.000 N 
ATOM      5  C   UNL     1       3.158   3.114  18.055  0.00  0.00    +0.000 A 
ATOM      6  C   UNL     1       2.111   2.209  17.952  0.00  0.00    +0.000 A 
ATOM      7  C   UNL     1       1.026   2.354  18.813  0.00  0.00    +0.000 A 
ATOM      8  C   UNL     1       1.019   3.391  19.744  0.00  0.00    +0.000 A 
ATOM      9  C   UNL     1       2.111   4.243  19.795  0.00  0.00    +0.000 A 
ATOM     10  C   UNL     1       2.186   5.405  20.726  0.00  0.00    +0.000 C 
ATOM     11  N   UNL     1       3.167   4.101  18.971  0.00  0.00    +0.000 NA
ATOM     12  H   UNL     1       4.736   4.873  18.711  0.00  0.00    +0.000 HD
ATOM     13  H   UNL     1       4.224   2.285  16.479  0.00  0.00    +0.000 HD
ENDROOT
BRANCH   1  19
ATOM     14  C   UNL     1       7.395   6.065  18.635  0.00  0.00    +0.000 A 
ATOM     15  C   UNL     1       8.227   7.195  18.600  0.00  0.00    +0.000 A 
ATOM     16  C   UNL     1       7.906   8.292  17.802  0.00  0.00    +0.000 A 
ATOM     17  C   UNL     1       6.742   8.282  17.045  0.00  0.00    +0.000 A 
ATOM     18  C   UNL     1       5.901   7.171  17.079  0.00  0.00    +0.000 A 
ATOM     19  C   UNL     1       6.214   6.053  17.858  0.00  0.00    +0.000 A 
BRANCH  14  21
ATOM     20  C   UNL     1       8.531   5.183  20.524  0.00  0.00    +0.000 C 
ATOM     21  O   UNL     1       7.664   4.960  19.411  0.00  0.00    +0.000 OA
ENDBRANCH  14  21
ENDBRANCH   1  19
TORSDOF 2
ENDMDL
MODEL 6
REMARK VINA RESULT:      -6.4      2.239      3.854
REMARK  Name = 
REMARK  4 active torsions:
REMARK  status: ('A' for Active; 'I' for Inactive)
REMARK    1  A    between atoms: C_1  and  O_2
REMARK    2  A    between atoms: O_2  and  C_3
REMARK    3  A    between atoms: C_8  and  N_9
REMARK    4  A    between atoms: C_17  and  C_18
REMARK                            x       y       z     vdW  Elec       q    Type
REMARK                         _______ _______ _______ _____ _____    ______ ____
ROOT
ATOM      1  N   UNL     1       4.765   5.185  17.909  0.00  0.00    +0.000 N 
ATOM      2  C   UNL     1       4.532   4.323  18.952  0.00  0.00    +0.000 C 
ATOM      3  O   UNL     1       5.051   3.218  19.100  0.00  0.00    +0.000 OA
ATOM      4  N   UNL     1       3.641   4.726  19.908  0.00  0.00    +0.000 N 
ATOM      5  C   UNL     1       2.865   5.882  19.927  0.00  0.00    +0.000 A 
ATOM      6  C   UNL     1       1.915   6.044  20.924  0.00  0.00    +0.000 A 
ATOM      7  C   UNL     1       1.114   7.183  20.893  0.00  0.00    +0.000 A 
ATOM      8  C   UNL     1       1.286   8.119  19.875  0.00  0.00    +0.000 A 
ATOM      9  C   UNL     1       2.270   7.891  18.926  0.00  0.00    +0.000 A 
ATOM     10  C   UNL     1       2.509   8.809  17.775  0.00  0.00    +0.000 C 
ATOM     11  N   UNL     1       3.052   6.796  18.957  0.00  0.00    +0.000 NA
ATOM     12  H   UNL     1       4.410   6.132  18.038  0.00  0.00    +0.000 HD
ATOM     13  H   UNL     1       3.501   4.036  20.631  0.00  0.00    +0.000 HD
ENDROOT
BRANCH   1  19
ATOM     14  C   UNL     1       6.826   5.342  16.606  0.00  0.00    +0.000 A 
ATOM     15  C   UNL     1       7.514   5.117  15.403  0.00  0.00    +0.000 A 
ATOM     16  C   UNL     1       6.882   4.498  14.326  0.00  0.00    +0.000 A 
ATOM     17  C   UNL     1       5.552   4.113  14.430  0.00  0.00    +0.000 A 
ATOM     18  C   UNL     1       4.854   4.340  15.615  0.00  0.00    +0.000 A 
ATOM     19  C   UNL     1       5.475   4.942  16.713  0.00  0.00    +0.000 A 
BRANCH  14  21
ATOM     20  C   UNL     1       7.582   7.368  17.586  0.00  0.00    +0.000 C 
ATOM     21  O   UNL     1       7.402   5.955  17.695  0.00  0.00    +0.000 OA
ENDBRANCH  14  21
ENDBRANCH   1  19
TORSDOF 2
ENDMDL
MODEL 7
REMARK VINA RESULT:      -6.4      3.210      5.571
REMARK  Name = 
REMARK  4 active torsions:
REMARK  status: ('A' for Active; 'I' for Inactive)
REMARK    1  A    between atoms: C_1  and  O_2
REMARK    2  A    between atoms: O_2  and  C_3
REMARK    3  A    between atoms: C_8  and  N_9
REMARK    4  A    between atoms: C_17  and  C_18
REMARK                            x       y       z     vdW  Elec       q    Type
REMARK                         _______ _______ _______ _____ _____    ______ ____
ROOT
ATOM      1  N   UNL     1       2.611   5.969  19.519  0.00  0.00    +0.000 N 
ATOM      2  C   UNL     1       2.105   5.713  20.769  0.00  0.00    +0.000 C 
ATOM      3  O   UNL     1       2.184   4.643  21.370  0.00  0.00    +0.000 OA
ATOM      4  N   UNL     1       1.449   6.734  21.398  0.00  0.00    +0.000 N 
ATOM      5  C   UNL     1       1.154   8.002  20.902  0.00  0.00    +0.000 A 
ATOM      6  C   UNL     1       0.356   8.854  21.650  0.00  0.00    +0.000 A 
ATOM      7  C   UNL     1       0.030  10.096  21.111  0.00  0.00    +0.000 A 
ATOM      8  C   UNL     1       0.508  10.446  19.849  0.00  0.00    +0.000 A 
ATOM      9  C   UNL     1       1.314   9.544  19.173  0.00  0.00    +0.000 A 
ATOM     10  C   UNL     1       1.844   9.805  17.804  0.00  0.00    +0.000 C 
ATOM     11  N   UNL     1       1.639   8.346  19.694  0.00  0.00    +0.000 NA
ATOM     12  H   UNL     1       2.633   6.953  19.250  0.00  0.00    +0.000 HD
ATOM     13  H   UNL     1       1.084   6.470  22.301  0.00  0.00    +0.000 HD
ENDROOT
BRANCH   1  19
ATOM     14  C   UNL     1       4.550   4.971  18.417  0.00  0.00    +0.000 A 
ATOM     15  C   UNL     1       5.074   4.077  17.470  0.00  0.00    +0.000 A 
ATOM     16  C   UNL     1       4.229   3.269  16.711  0.00  0.00    +0.000 A 
ATOM     17  C   UNL     1       2.853   3.358  16.874  0.00  0.00    +0.000 A 
ATOM     18  C   UNL     1       2.320   4.250  17.802  0.00  0.00    +0.000 A 
ATOM     19  C   UNL     1       3.150   5.055  18.587  0.00  0.00    +0.000 A 
BRANCH  14  21
ATOM     20  C   UNL     1       6.733   5.472  19.208  0.00  0.00    +0.000 C 
ATOM     21  O   UNL     1       5.341   5.795  19.186  0.00  0.00    +0.000 OA
ENDBRANCH  14  21
ENDBRANCH   1  19
TORSDOF 2
ENDMDL
MODEL 8
REMARK VINA RESULT:      -6.4      2.731      4.675
REMARK  Name = 
REMARK  4 active torsions:
REMARK  status: ('A' for Active; 'I' for Inactive)
REMARK    1  A    between atoms: C_1  and  O_2
REMARK    2  A    between atoms: O_2  and  C_3
REMARK    3  A    between atoms: C_8  and  N_9
REMARK    4  A    between atoms: C_17  and  C_18
REMARK                            x       y       z     vdW  Elec       q    Type
REMARK                         _______ _______ _______ _____ _____    ______ ____
ROOT
ATOM      1  N   UNL     1       3.718   5.742  18.981  0.00  0.00    +0.000 N 
ATOM      2  C   UNL     1       3.177   5.144  20.093  0.00  0.00    +0.000 C 
ATOM      3  O   UNL     1       3.447   4.017  20.504  0.00  0.00    +0.000 OA
ATOM      4  N   UNL     1       2.255   5.862  20.801  0.00  0.00    +0.000 N 
ATOM      5  C   UNL     1       1.723   7.113  20.500  0.00  0.00    +0.000 A 
ATOM      6  C   UNL     1       0.690   7.615  21.278  0.00  0.00    +0.000 A 
ATOM      7  C   UNL     1       0.137   8.845  20.926  0.00  0.00    +0.000 A 
ATOM      8  C   UNL     1       0.629   9.529  19.816  0.00  0.00    +0.000 A 
ATOM      9  C   UNL     1       1.674   8.966  19.101  0.00  0.00    +0.000 A 
ATOM     10  C   UNL     1       2.246   9.597  17.876  0.00  0.00    +0.000 C 
ATOM     11  N   UNL     1       2.218   7.783  19.443  0.00  0.00    +0.000 NA
ATOM     12  H   UNL     1       3.537   6.742  18.892  0.00  0.00    +0.000 HD
ATOM     13  H   UNL     1       1.884   5.355  21.591  0.00  0.00    +0.000 HD
ENDROOT
BRANCH   1  19
ATOM     14  C   UNL     1       5.925   5.075  18.175  0.00  0.00    +0.000 A 
ATOM     15  C   UNL     1       6.725   4.520  17.163  0.00  0.00    +0.000 A 
ATOM     16  C   UNL     1       6.153   4.048  15.982  0.00  0.00    +0.000 A 
ATOM     17  C   UNL     1       4.781   4.142  15.790  0.00  0.00    +0.000 A 
ATOM     18  C   UNL     1       3.978   4.702  16.782  0.00  0.00    +0.000 A 
ATOM     19  C   UNL     1       4.528   5.163  17.981  0.00  0.00    +0.000 A 
BRANCH  14  21
ATOM     20  C   UNL     1       7.833   5.885  19.334  0.00  0.00    +0.000 C 
ATOM     21  O   UNL     1       6.442   5.561  19.355  0.00  0.00    +0.000 OA
ENDBRANCH  14  21
ENDBRANCH   1  19
TORSDOF 2
ENDMDL
MODEL 9
REMARK VINA RESULT:      -6.4      2.487      4.271
REMARK  Name = 
REMARK  4 active torsions:
REMARK  status: ('A' for Active; 'I' for Inactive)
REMARK    1  A    between atoms: C_1  and  O_2
REMARK    2  A    between atoms: O_2  and  C_3
REMARK    3  A    between atoms: C_8  and  N_9
REMARK    4  A    between atoms: C_17  and  C_18
REMARK                            x       y       z     vdW  Elec       q    Type
REMARK                         _______ _______ _______ _____ _____    ______ ____
ROOT
ATOM      1  N   UNL     1       4.208   5.806  18.388  0.00  0.00    +0.000 N 
ATOM      2  C   UNL     1       3.856   5.090  19.506  0.00  0.00    +0.000 C 
ATOM      3  O   UNL     1       4.288   3.981  19.813  0.00  0.00    +0.000 OA
ATOM      4  N   UNL     1       2.939   5.658  20.347  0.00  0.00    +0.000 N 
ATOM      5  C   UNL     1       2.246   6.854  20.182  0.00  0.00    +0.000 A 
ATOM      6  C   UNL     1       1.251   7.191  21.088  0.00  0.00    +0.000 A 
ATOM      7  C   UNL     1       0.534   8.366  20.873  0.00  0.00    +0.000 A 
ATOM      8  C   UNL     1       0.830   9.161  19.768  0.00  0.00    +0.000 A 
ATOM      9  C   UNL     1       1.850   8.762  18.919  0.00  0.00    +0.000 A 
ATOM     10  C   UNL     1       2.218   9.520  17.688  0.00  0.00    +0.000 C 
ATOM     11  N   UNL     1       2.552   7.632  19.127  0.00  0.00    +0.000 NA
ATOM     12  H   UNL     1       3.912   6.782  18.384  0.00  0.00    +0.000 HD
ATOM     13  H   UNL     1       2.711   5.069  21.134  0.00  0.00    +0.000 HD
ENDROOT
BRANCH   1  19
ATOM     14  C   UNL     1       6.293   5.842  17.114  0.00  0.00    +0.000 A 
ATOM     15  C   UNL     1       7.030   5.431  15.993  0.00  0.00    +0.000 A 
ATOM     16  C   UNL     1       6.474   4.566  15.053  0.00  0.00    +0.000 A 
ATOM     17  C   UNL     1       5.169   4.117  15.210  0.00  0.00    +0.000 A 
ATOM     18  C   UNL     1       4.422   4.527  16.313  0.00  0.00    +0.000 A 
ATOM     19  C   UNL     1       4.968   5.378  17.277  0.00  0.00    +0.000 A 
BRANCH  14  21
ATOM     20  C   UNL     1       7.640   7.742  17.577  0.00  0.00    +0.000 C 
ATOM     21  O   UNL     1       6.795   6.700  18.067  0.00  0.00    +0.000 OA
ENDBRANCH  14  21
ENDBRANCH   1  19
TORSDOF 2
ENDMDL
