MODEL 1
REMARK VINA RESULT:      -8.5      0.000      0.000
REMARK  Name = 
REMARK  9 active torsions:
REMARK  status: ('A' for Active; 'I' for Inactive)
REMARK    1  A    between atoms: C_1  and  O_2
REMARK    2  A    between atoms: O_2  and  C_3
REMARK    3  A    between atoms: C_5  and  C_6
REMARK    4  A    between atoms: N_7  and  N_8
REMARK    5  A    between atoms: C_9  and  C_11
REMARK    6  A    between atoms: C_24  and  O_25
REMARK    7  A    between atoms: O_25  and  C_26
REMARK    8  A    between atoms: C_27  and  O_28
REMARK    9  A    between atoms: O_28  and  C_29
REMARK                            x       y       z     vdW  Elec       q    Type
REMARK                         _______ _______ _______ _____ _____    ______ ____
ROOT
ATOM      1  N   UNL     1       7.394   7.711  17.356  0.00  0.00    +0.000 N 
ATOM      2  C   UNL     1       7.291   6.484  17.993  0.00  0.00    +0.000 C 
ATOM      3  O   UNL     1       8.075   6.104  18.859  0.00  0.00    +0.000 OA
ATOM      4  H   UNL     1       6.751   7.963  16.611  0.00  0.00    +0.000 HD
ENDROOT
BRANCH   2   5
ATOM      5  C   UNL     1       6.140   5.601  17.637  0.00  0.00    +0.000 A 
ATOM      6  C   UNL     1       6.399   4.426  17.013  0.00  0.00    +0.000 A 
ATOM      7  N   UNL     1       5.475   3.456  16.689  0.00  0.00    +0.000 N 
ATOM      8  C   UNL     1       4.201   3.504  17.278  0.00  0.00    +0.000 A 
ATOM      9  C   UNL     1       3.395   2.358  17.317  0.00  0.00    +0.000 A 
ATOM     10  C   UNL     1       2.234   2.352  18.095  0.00  0.00    +0.000 A 
ATOM     11  C   UNL     1       1.865   3.500  18.797  0.00  0.00    +0.000 A 
ATOM     12 CL   UNL     1       0.504   3.446  19.847  0.00  0.00    +0.000 Cl
ATOM     13  C   UNL     1       2.617   4.677  18.699  0.00  0.00    +0.000 A 
ATOM     14  C   UNL     1       3.799   4.666  17.958  0.00  0.00    +0.000 A 
ATOM     15  C   UNL     1       4.701   5.861  17.901  0.00  0.00    +0.000 A 
ATOM     16  O   UNL     1       4.277   6.999  18.070  0.00  0.00    +0.000 OA
ATOM     17  H   UNL     1       5.486   3.155  15.714  0.00  0.00    +0.000 HD
ENDBRANCH   2   5
BRANCH   1  19
ATOM     18  C   UNL     1       8.142   9.703  18.222  0.00  0.00    +0.000 C 
ATOM     19  N   UNL     1       8.437   8.539  17.720  0.00  0.00    +0.000 NA
BRANCH  18  22
ATOM     20  C   UNL     1      11.062  12.172  18.108  0.00  0.00    +0.000 A 
ATOM     21  C   UNL     1      10.128  11.187  17.719  0.00  0.00    +0.000 A 
ATOM     22  C   UNL     1       9.197  10.683  18.630  0.00  0.00    +0.000 A 
ATOM     23  C   UNL     1       9.247  11.129  19.952  0.00  0.00    +0.000 A 
ATOM     24  C   UNL     1      10.200  12.083  20.373  0.00  0.00    +0.000 A 
ATOM     25  C   UNL     1      11.113  12.628  19.445  0.00  0.00    +0.000 A 
BRANCH  20  27
ATOM     26  C   UNL     1      11.545  13.715  16.375  0.00  0.00    +0.000 C 
ATOM     27  O   UNL     1      11.992  12.658  17.220  0.00  0.00    +0.000 OA
ENDBRANCH  20  27
BRANCH  24  28
ATOM     28  O   UNL     1      10.075  12.366  21.713  0.00  0.00    +0.000 OA
ATOM     29  C   UNL     1       9.059  13.259  22.155  0.00  0.00    +0.000 C 
ENDBRANCH  24  28
BRANCH  25  30
ATOM     30  O   UNL     1      12.027  13.528  19.932  0.00  0.00    +0.000 OA
ATOM     31  C   UNL     1      11.727  14.917  19.932  0.00  0.00    +0.000 C 
ENDBRANCH  25  30
ENDBRANCH  18  22
ENDBRANCH   1  19
TORSDOF 6
ENDMDL
MODEL 2
REMARK VINA RESULT:      -8.3      0.306      2.338
REMARK  Name = 
REMARK  9 active torsions:
REMARK  status: ('A' for Active; 'I' for Inactive)
REMARK    1  A    between atoms: C_1  and  O_2
REMARK    2  A    between atoms: O_2  and  C_3
REMARK    3  A    between atoms: C_5  and  C_6
REMARK    4  A    between atoms: N_7  and  N_8
REMARK    5  A    between atoms: C_9  and  C_11
REMARK    6  A    between atoms: C_24  and  O_25
REMARK    7  A    between atoms: O_25  and  C_26
REMARK    8  A    between atoms: C_27  and  O_28
REMARK    9  A    between atoms: O_28  and  C_29
REMARK                            x       y       z     vdW  Elec       q    Type
REMARK                         _______ _______ _______ _____ _____    ______ ____
ROOT
ATOM      1  N   UNL     1       7.424   7.867  17.013  0.00  0.00    +0.000 N 
ATOM      2  C   UNL     1       7.319   6.726  17.794  0.00  0.00    +0.000 C 
ATOM      3  O   UNL     1       8.046   6.497  18.757  0.00  0.00    +0.000 OA
ATOM      4  H   UNL     1       6.832   7.991  16.196  0.00  0.00    +0.000 HD
ENDROOT
BRANCH   2   5
ATOM      5  C   UNL     1       6.236   5.748  17.471  0.00  0.00    +0.000 A 
ATOM      6  C   UNL     1       6.589   4.535  16.982  0.00  0.00    +0.000 A 
ATOM      7  N   UNL     1       5.736   3.488  16.711  0.00  0.00    +0.000 N 
ATOM      8  C   UNL     1       4.429   3.521  17.227  0.00  0.00    +0.000 A 
ATOM      9  C   UNL     1       3.682   2.341  17.341  0.00  0.00    +0.000 A 
ATOM     10  C   UNL     1       2.481   2.346  18.055  0.00  0.00    +0.000 A 
ATOM     11  C   UNL     1       2.015   3.535  18.618  0.00  0.00    +0.000 A 
ATOM     12 CL   UNL     1       0.602   3.507  19.598  0.00  0.00    +0.000 Cl
ATOM     13  C   UNL     1       2.710   4.736  18.440  0.00  0.00    +0.000 A 
ATOM     14  C   UNL     1       3.932   4.719  17.765  0.00  0.00    +0.000 A 
ATOM     15  C   UNL     1       4.773   5.952  17.634  0.00  0.00    +0.000 A 
ATOM     16  O   UNL     1       4.284   7.075  17.666  0.00  0.00    +0.000 OA
ATOM     17  H   UNL     1       5.816   3.093  15.774  0.00  0.00    +0.000 HD
ENDBRANCH   2   5
BRANCH   1  19
ATOM     18  C   UNL     1       8.173   9.577  18.349  0.00  0.00    +0.000 C 
ATOM     19  N   UNL     1       8.400   8.785  17.343  0.00  0.00    +0.000 NA
BRANCH  18  22
ATOM     20  C   UNL     1      10.166  12.052  20.482  0.00  0.00    +0.000 A 
ATOM     21  C   UNL     1       9.177  11.129  20.078  0.00  0.00    +0.000 A 
ATOM     22  C   UNL     1       9.158  10.621  18.777  0.00  0.00    +0.000 A 
ATOM     23  C   UNL     1      10.102  11.091  17.864  0.00  0.00    +0.000 A 
ATOM     24  C   UNL     1      11.075  12.046  18.233  0.00  0.00    +0.000 A 
ATOM     25  C   UNL     1      11.126  12.528  19.559  0.00  0.00    +0.000 A 
BRANCH  20  27
ATOM     26  C   UNL     1       8.957  12.451  22.480  0.00  0.00    +0.000 C 
ATOM     27  O   UNL     1      10.178  12.568  21.756  0.00  0.00    +0.000 OA
ENDBRANCH  20  27
BRANCH  24  28
ATOM     28  O   UNL     1      11.891  12.374  17.176  0.00  0.00    +0.000 OA
ATOM     29  C   UNL     1      11.552  13.469  16.334  0.00  0.00    +0.000 C 
ENDBRANCH  24  28
BRANCH  25  30
ATOM     30  O   UNL     1      12.079  13.473  19.838  0.00  0.00    +0.000 OA
ATOM     31  C   UNL     1      11.756  14.855  19.760  0.00  0.00    +0.000 C 
ENDBRANCH  25  30
ENDBRANCH  18  22
ENDBRANCH   1  19
TORSDOF 6
ENDMDL
MODEL 3
REMARK VINA RESULT:      -7.8      6.797      9.937
REMARK  Name = 
REMARK  9 active torsions:
REMARK  status: ('A' for Active; 'I' for Inactive)
REMARK    1  A    between atoms: C_1  and  O_2
REMARK    2  A    between atoms: O_2  and  C_3
REMARK    3  A    between atoms: C_5  and  C_6
REMARK    4  A    between atoms: N_7  and  N_8
REMARK    5  A    between atoms: C_9  and  C_11
REMARK    6  A    between atoms: C_24  and  O_25
REMARK    7  A    between atoms: O_25  and  C_26
REMARK    8  A    between atoms: C_27  and  O_28
REMARK    9  A    between atoms: O_28  and  C_29
REMARK                            x       y       z     vdW  Elec       q    Type
REMARK                         _______ _______ _______ _____ _____    ______ ____
ROOT
ATOM      1  N   UNL     1       0.967   9.550  18.994  0.00  0.00    +0.000 N 
ATOM      2  C   UNL     1       1.008  10.935  18.923  0.00  0.00    +0.000 C 
ATOM      3  O   UNL     1       1.945  11.558  18.433  0.00  0.00    +0.000 OA
ATOM      4  H   UNL     1       0.192   9.078  19.452  0.00  0.00    +0.000 HD
ENDROOT
BRANCH   2   5
ATOM      5  C   UNL     1      -0.170  11.701  19.431  0.00  0.00    +0.000 A 
ATOM      6  C   UNL     1      -1.172  11.989  18.565  0.00  0.00    +0.000 A 
ATOM      7  N   UNL     1      -2.363  12.608  18.877  0.00  0.00    +0.000 N 
ATOM      8  C   UNL     1      -2.743  12.715  20.225  0.00  0.00    +0.000 A 
ATOM      9  C   UNL     1      -4.084  12.943  20.566  0.00  0.00    +0.000 A 
ATOM     10  C   UNL     1      -4.490  12.825  21.898  0.00  0.00    +0.000 A 
ATOM     11  C   UNL     1      -3.551  12.521  22.884  0.00  0.00    +0.000 A 
ATOM     12 CL   UNL     1      -4.079  12.257  24.499  0.00  0.00    +0.000 Cl
ATOM     13  C   UNL     1      -2.196  12.374  22.567  0.00  0.00    +0.000 A 
ATOM     14  C   UNL     1      -1.801  12.447  21.231  0.00  0.00    +0.000 A 
ATOM     15  C   UNL     1      -0.383  12.194  20.816  0.00  0.00    +0.000 A 
ATOM     16  O   UNL     1       0.556  12.377  21.582  0.00  0.00    +0.000 OA
ATOM     17  H   UNL     1      -2.596  13.417  18.300  0.00  0.00    +0.000 HD
ENDBRANCH   2   5
BRANCH   1  19
ATOM     18  C   UNL     1       1.941   7.552  18.418  0.00  0.00    +0.000 C 
ATOM     19  N   UNL     1       2.040   8.848  18.485  0.00  0.00    +0.000 NA
BRANCH  18  22
ATOM     20  C   UNL     1       5.317   6.415  17.020  0.00  0.00    +0.000 A 
ATOM     21  C   UNL     1       4.248   7.245  17.426  0.00  0.00    +0.000 A 
ATOM     22  C   UNL     1       3.056   6.696  17.901  0.00  0.00    +0.000 A 
ATOM     23  C   UNL     1       2.916   5.307  17.910  0.00  0.00    +0.000 A 
ATOM     24  C   UNL     1       3.955   4.458  17.469  0.00  0.00    +0.000 A 
ATOM     25  C   UNL     1       5.180   5.008  17.030  0.00  0.00    +0.000 A 
BRANCH  20  27
ATOM     26  C   UNL     1       7.477   7.256  17.512  0.00  0.00    +0.000 C 
ATOM     27  O   UNL     1       6.486   6.950  16.535  0.00  0.00    +0.000 OA
ENDBRANCH  20  27
BRANCH  24  28
ATOM     28  O   UNL     1       3.598   3.134  17.553  0.00  0.00    +0.000 OA
ATOM     29  C   UNL     1       3.802   2.422  18.768  0.00  0.00    +0.000 C 
ENDBRANCH  24  28
BRANCH  25  30
ATOM     30  O   UNL     1       6.132   4.125  16.591  0.00  0.00    +0.000 OA
ATOM     31  C   UNL     1       6.187   3.761  15.218  0.00  0.00    +0.000 C 
ENDBRANCH  25  30
ENDBRANCH  18  22
ENDBRANCH   1  19
TORSDOF 6
ENDMDL
MODEL 4
REMARK VINA RESULT:      -7.7      6.927     10.330
REMARK  Name = 
REMARK  9 active torsions:
REMARK  status: ('A' for Active; 'I' for Inactive)
REMARK    1  A    between atoms: C_1  and  O_2
REMARK    2  A    between atoms: O_2  and  C_3
REMARK    3  A    between atoms: C_5  and  C_6
REMARK    4  A    between atoms: N_7  and  N_8
REMARK    5  A    between atoms: C_9  and  C_11
REMARK    6  A    between atoms: C_24  and  O_25
REMARK    7  A    between atoms: O_25  and  C_26
REMARK    8  A    between atoms: C_27  and  O_28
REMARK    9  A    between atoms: O_28  and  C_29
REMARK                            x       y       z     vdW  Elec       q    Type
REMARK                         _______ _______ _______ _____ _____    ______ ____
ROOT
ATOM      1  N   UNL     1       1.048  10.150  18.786  0.00  0.00    +0.000 N 
ATOM      2  C   UNL     1      -0.258  10.253  18.334  0.00  0.00    +0.000 C 
ATOM      3  O   UNL     1      -0.713   9.568  17.422  0.00  0.00    +0.000 OA
ATOM      4  H   UNL     1       1.395  10.771  19.513  0.00  0.00    +0.000 HD
ENDROOT
BRANCH   2   5
ATOM      5  C   UNL     1      -1.169  11.214  19.025  0.00  0.00    +0.000 A 
ATOM      6  C   UNL     1      -2.230  11.703  18.338  0.00  0.00    +0.000 A 
ATOM      7  N   UNL     1      -3.214  12.527  18.840  0.00  0.00    +0.000 N 
ATOM      8  C   UNL     1      -3.336  12.674  20.232  0.00  0.00    +0.000 A 
ATOM      9  C   UNL     1      -4.534  13.140  20.792  0.00  0.00    +0.000 A 
ATOM     10  C   UNL     1      -4.726  13.072  22.174  0.00  0.00    +0.000 A 
ATOM     11  C   UNL     1      -3.709  12.575  22.991  0.00  0.00    +0.000 A 
ATOM     12 CL   UNL     1      -4.000  12.379  24.675  0.00  0.00    +0.000 Cl
ATOM     13  C   UNL     1      -2.479  12.185  22.451  0.00  0.00    +0.000 A 
ATOM     14  C   UNL     1      -2.306  12.212  21.067  0.00  0.00    +0.000 A 
ATOM     15  C   UNL     1      -1.051  11.708  20.422  0.00  0.00    +0.000 A 
ATOM     16  O   UNL     1       0.021  11.695  21.016  0.00  0.00    +0.000 OA
ATOM     17  H   UNL     1      -3.384  13.377  18.303  0.00  0.00    +0.000 HD
ENDBRANCH   2   5
BRANCH   1  19
ATOM     18  C   UNL     1       1.993   8.058  18.721  0.00  0.00    +0.000 C 
ATOM     19  N   UNL     1       1.872   9.230  18.170  0.00  0.00    +0.000 NA
BRANCH  18  22
ATOM     20  C   UNL     1       3.300   4.682  17.480  0.00  0.00    +0.000 A 
ATOM     21  C   UNL     1       2.486   5.655  18.102  0.00  0.00    +0.000 A 
ATOM     22  C   UNL     1       2.876   6.995  18.144  0.00  0.00    +0.000 A 
ATOM     23  C   UNL     1       4.117   7.347  17.611  0.00  0.00    +0.000 A 
ATOM     24  C   UNL     1       4.966   6.385  17.021  0.00  0.00    +0.000 A 
ATOM     25  C   UNL     1       4.556   5.036  16.937  0.00  0.00    +0.000 A 
BRANCH  20  27
ATOM     26  C   UNL     1       1.877   2.994  18.340  0.00  0.00    +0.000 C 
ATOM     27  O   UNL     1       2.930   3.359  17.452  0.00  0.00    +0.000 OA
ENDBRANCH  20  27
BRANCH  24  28
ATOM     28  O   UNL     1       6.138   6.949  16.575  0.00  0.00    +0.000 OA
ATOM     29  C   UNL     1       7.254   7.048  17.452  0.00  0.00    +0.000 C 
ENDBRANCH  24  28
BRANCH  25  30
ATOM     30  O   UNL     1       5.444   4.154  16.376  0.00  0.00    +0.000 OA
ATOM     31  C   UNL     1       5.615   4.115  14.966  0.00  0.00    +0.000 C 
ENDBRANCH  25  30
ENDBRANCH  18  22
ENDBRANCH   1  19
TORSDOF 6
ENDMDL
MODEL 5
REMARK VINA RESULT:      -7.7      6.723     10.069
REMARK  Name = 
REMARK  9 active torsions:
REMARK  status: ('A' for Active; 'I' for Inactive)
REMARK    1  A    between atoms: C_1  and  O_2
REMARK    2  A    between atoms: O_2  and  C_3
REMARK    3  A    between atoms: C_5  and  C_6
REMARK    4  A    between atoms: N_7  and  N_8
REMARK    5  A    between atoms: C_9  and  C_11
REMARK    6  A    between atoms: C_24  and  O_25
REMARK    7  A    between atoms: O_25  and  C_26
REMARK    8  A    between atoms: C_27  and  O_28
REMARK    9  A    between atoms: O_28  and  C_29
REMARK                            x       y       z     vdW  Elec       q    Type
REMARK                         _______ _______ _______ _____ _____    ______ ____
ROOT
ATOM      1  N   UNL     1       1.138   9.289  19.622  0.00  0.00    +0.000 N 
ATOM      2  C   UNL     1       1.057  10.585  19.136  0.00  0.00    +0.000 C 
ATOM      3  O   UNL     1       1.863  11.060  18.340  0.00  0.00    +0.000 OA
ATOM      4  H   UNL     1       0.475   8.955  20.317  0.00  0.00    +0.000 HD
ENDROOT
BRANCH   2   5
ATOM      5  C   UNL     1      -0.098  11.429  19.569  0.00  0.00    +0.000 A 
ATOM      6  C   UNL     1      -1.044  11.744  18.652  0.00  0.00    +0.000 A 
ATOM      7  N   UNL     1      -2.211  12.436  18.893  0.00  0.00    +0.000 N 
ATOM      8  C   UNL     1      -2.643  12.604  20.220  0.00  0.00    +0.000 A 
ATOM      9  C   UNL     1      -3.982  12.914  20.495  0.00  0.00    +0.000 A 
ATOM     10  C   UNL     1      -4.451  12.859  21.810  0.00  0.00    +0.000 A 
ATOM     11  C   UNL     1      -3.573  12.534  22.845  0.00  0.00    +0.000 A 
ATOM     12 CL   UNL     1      -4.184  12.348  24.442  0.00  0.00    +0.000 Cl
ATOM     13  C   UNL     1      -2.216  12.304  22.592  0.00  0.00    +0.000 A 
ATOM     14  C   UNL     1      -1.761  12.315  21.273  0.00  0.00    +0.000 A 
ATOM     15  C   UNL     1      -0.342  11.974  20.930  0.00  0.00    +0.000 A 
ATOM     16  O   UNL     1       0.572  12.129  21.731  0.00  0.00    +0.000 OA
ATOM     17  H   UNL     1      -2.374  13.239  18.285  0.00  0.00    +0.000 HD
ENDBRANCH   2   5
BRANCH   1  19
ATOM     18  C   UNL     1       1.900   7.469  18.448  0.00  0.00    +0.000 C 
ATOM     19  N   UNL     1       2.184   8.502  19.186  0.00  0.00    +0.000 NA
BRANCH  18  22
ATOM     20  C   UNL     1       3.761   4.303  17.373  0.00  0.00    +0.000 A 
ATOM     21  C   UNL     1       2.783   5.155  17.932  0.00  0.00    +0.000 A 
ATOM     22  C   UNL     1       2.959   6.540  17.939  0.00  0.00    +0.000 A 
ATOM     23  C   UNL     1       4.149   7.065  17.435  0.00  0.00    +0.000 A 
ATOM     24  C   UNL     1       5.160   6.230  16.908  0.00  0.00    +0.000 A 
ATOM     25  C   UNL     1       4.967   4.832  16.859  0.00  0.00    +0.000 A 
BRANCH  20  27
ATOM     26  C   UNL     1       3.710   2.311  18.655  0.00  0.00    +0.000 C 
ATOM     27  O   UNL     1       3.601   2.938  17.380  0.00  0.00    +0.000 OA
ENDBRANCH  20  27
BRANCH  24  28
ATOM     28  O   UNL     1       6.246   6.956  16.481  0.00  0.00    +0.000 OA
ATOM     29  C   UNL     1       7.315   7.224  17.381  0.00  0.00    +0.000 C 
ENDBRANCH  24  28
BRANCH  25  30
ATOM     30  O   UNL     1       6.001   4.083  16.360  0.00  0.00    +0.000 OA
ATOM     31  C   UNL     1       6.136   3.899  14.957  0.00  0.00    +0.000 C 
ENDBRANCH  25  30
ENDBRANCH  18  22
ENDBRANCH   1  19
TORSDOF 6
ENDMDL
MODEL 6
REMARK VINA RESULT:      -7.6      6.589     10.766
REMARK  Name = 
REMARK  9 active torsions:
REMARK  status: ('A' for Active; 'I' for Inactive)
REMARK    1  A    between atoms: C_1  and  O_2
REMARK    2  A    between atoms: O_2  and  C_3
REMARK    3  A    between atoms: C_5  and  C_6
REMARK    4  A    between atoms: N_7  and  N_8
REMARK    5  A    between atoms: C_9  and  C_11
REMARK    6  A    between atoms: C_24  and  O_25
REMARK    7  A    between atoms: O_25  and  C_26
REMARK    8  A    between atoms: C_27  and  O_28
REMARK    9  A    between atoms: O_28  and  C_29
REMARK                            x       y       z     vdW  Elec       q    Type
REMARK                         _______ _______ _______ _____ _____    ______ ____
ROOT
ATOM      1  N   UNL     1       1.483  10.069  17.761  0.00  0.00    +0.000 N 
ATOM      2  C   UNL     1       0.935  10.772  18.823  0.00  0.00    +0.000 C 
ATOM      3  O   UNL     1       0.630  10.252  19.892  0.00  0.00    +0.000 OA
ATOM      4  H   UNL     1       1.675  10.533  16.877  0.00  0.00    +0.000 HD
ENDROOT
BRANCH   2   5
ATOM      5  C   UNL     1       0.750  12.247  18.670  0.00  0.00    +0.000 A 
ATOM      6  C   UNL     1      -0.512  12.739  18.661  0.00  0.00    +0.000 A 
ATOM      7  N   UNL     1      -0.866  14.071  18.615  0.00  0.00    +0.000 N 
ATOM      8  C   UNL     1       0.110  15.045  18.885  0.00  0.00    +0.000 A 
ATOM      9  C   UNL     1      -0.268  16.342  19.257  0.00  0.00    +0.000 A 
ATOM     10  C   UNL     1       0.694  17.235  19.738  0.00  0.00    +0.000 A 
ATOM     11  C   UNL     1       2.030  16.840  19.807  0.00  0.00    +0.000 A 
ATOM     12 CL   UNL     1       3.186  17.900  20.513  0.00  0.00    +0.000 Cl
ATOM     13  C   UNL     1       2.433  15.577  19.359  0.00  0.00    +0.000 A 
ATOM     14  C   UNL     1       1.464  14.673  18.923  0.00  0.00    +0.000 A 
ATOM     15  C   UNL     1       1.819  13.270  18.531  0.00  0.00    +0.000 A 
ATOM     16  O   UNL     1       2.936  12.977  18.123  0.00  0.00    +0.000 OA
ATOM     17  H   UNL     1      -1.528  14.319  17.880  0.00  0.00    +0.000 HD
ENDBRANCH   2   5
BRANCH   1  19
ATOM     18  C   UNL     1       2.906   8.268  17.813  0.00  0.00    +0.000 C 
ATOM     19  N   UNL     1       1.689   8.714  17.924  0.00  0.00    +0.000 NA
BRANCH  18  22
ATOM     20  C   UNL     1       4.828   4.961  17.936  0.00  0.00    +0.000 A 
ATOM     21  C   UNL     1       4.521   6.323  17.720  0.00  0.00    +0.000 A 
ATOM     22  C   UNL     1       3.235   6.813  17.953  0.00  0.00    +0.000 A 
ATOM     23  C   UNL     1       2.240   5.918  18.348  0.00  0.00    +0.000 A 
ATOM     24  C   UNL     1       2.513   4.544  18.530  0.00  0.00    +0.000 A 
ATOM     25  C   UNL     1       3.822   4.052  18.339  0.00  0.00    +0.000 A 
BRANCH  20  27
ATOM     26  C   UNL     1       6.534   4.562  16.342  0.00  0.00    +0.000 C 
ATOM     27  O   UNL     1       6.088   4.469  17.691  0.00  0.00    +0.000 OA
ENDBRANCH  20  27
BRANCH  24  28
ATOM     28  O   UNL     1       1.388   3.850  18.907  0.00  0.00    +0.000 OA
ATOM     29  C   UNL     1       0.968   3.868  20.266  0.00  0.00    +0.000 C 
ENDBRANCH  24  28
BRANCH  25  30
ATOM     30  O   UNL     1       4.007   2.704  18.508  0.00  0.00    +0.000 OA
ATOM     31  C   UNL     1       4.320   2.183  19.793  0.00  0.00    +0.000 C 
ENDBRANCH  25  30
ENDBRANCH  18  22
ENDBRANCH   1  19
TORSDOF 6
ENDMDL
MODEL 7
REMARK VINA RESULT:      -7.5      6.501     10.921
REMARK  Name = 
REMARK  9 active torsions:
REMARK  status: ('A' for Active; 'I' for Inactive)
REMARK    1  A    between atoms: C_1  and  O_2
REMARK    2  A    between atoms: O_2  and  C_3
REMARK    3  A    between atoms: C_5  and  C_6
REMARK    4  A    between atoms: N_7  and  N_8
REMARK    5  A    between atoms: C_9  and  C_11
REMARK    6  A    between atoms: C_24  and  O_25
REMARK    7  A    between atoms: O_25  and  C_26
REMARK    8  A    between atoms: C_27  and  O_28
REMARK    9  A    between atoms: O_28  and  C_29
REMARK                            x       y       z     vdW  Elec       q    Type
REMARK                         _______ _______ _______ _____ _____    ______ ____
ROOT
ATOM      1  N   UNL     1       1.858   9.788  18.337  0.00  0.00    +0.000 N 
ATOM      2  C   UNL     1       0.817  10.431  18.989  0.00  0.00    +0.000 C 
ATOM      3  O   UNL     1       0.073   9.871  19.790  0.00  0.00    +0.000 OA
ATOM      4  H   UNL     1       2.418  10.280  17.645  0.00  0.00    +0.000 HD
ENDROOT
BRANCH   2   5
ATOM      5  C   UNL     1       0.619  11.889  18.733  0.00  0.00    +0.000 A 
ATOM      6  C   UNL     1      -0.646  12.373  18.709  0.00  0.00    +0.000 A 
ATOM      7  N   UNL     1      -1.009  13.696  18.573  0.00  0.00    +0.000 N 
ATOM      8  C   UNL     1      -0.035  14.692  18.756  0.00  0.00    +0.000 A 
ATOM      9  C   UNL     1      -0.416  16.010  19.041  0.00  0.00    +0.000 A 
ATOM     10  C   UNL     1       0.548  16.941  19.440  0.00  0.00    +0.000 A 
ATOM     11  C   UNL     1       1.888  16.559  19.515  0.00  0.00    +0.000 A 
ATOM     12 CL   UNL     1       3.048  17.673  20.125  0.00  0.00    +0.000 Cl
ATOM     13  C   UNL     1       2.291  15.269  19.154  0.00  0.00    +0.000 A 
ATOM     14  C   UNL     1       1.321  14.331  18.799  0.00  0.00    +0.000 A 
ATOM     15  C   UNL     1       1.679  12.906  18.504  0.00  0.00    +0.000 A 
ATOM     16  O   UNL     1       2.792  12.589  18.099  0.00  0.00    +0.000 OA
ATOM     17  H   UNL     1      -1.684  13.887  17.833  0.00  0.00    +0.000 HD
ENDBRANCH   2   5
BRANCH   1  19
ATOM     18  C   UNL     1       2.881   7.792  17.845  0.00  0.00    +0.000 C 
ATOM     19  N   UNL     1       2.060   8.450  18.609  0.00  0.00    +0.000 NA
BRANCH  18  22
ATOM     20  C   UNL     1       2.448   3.994  18.025  0.00  0.00    +0.000 A 
ATOM     21  C   UNL     1       2.151   5.371  17.916  0.00  0.00    +0.000 A 
ATOM     22  C   UNL     1       3.155   6.333  18.042  0.00  0.00    +0.000 A 
ATOM     23  C   UNL     1       4.452   5.911  18.340  0.00  0.00    +0.000 A 
ATOM     24  C   UNL     1       4.765   4.542  18.495  0.00  0.00    +0.000 A 
ATOM     25  C   UNL     1       3.762   3.563  18.324  0.00  0.00    +0.000 A 
BRANCH  20  27
ATOM     26  C   UNL     1       0.769   2.737  19.126  0.00  0.00    +0.000 C 
ATOM     27  O   UNL     1       1.461   3.044  17.920  0.00  0.00    +0.000 OA
ENDBRANCH  20  27
BRANCH  24  28
ATOM     28  O   UNL     1       6.093   4.357  18.797  0.00  0.00    +0.000 OA
ATOM     29  C   UNL     1       7.093   4.828  17.901  0.00  0.00    +0.000 C 
ENDBRANCH  24  28
BRANCH  25  30
ATOM     30  O   UNL     1       4.132   2.258  18.518  0.00  0.00    +0.000 OA
ATOM     31  C   UNL     1       4.335   1.762  19.834  0.00  0.00    +0.000 C 
ENDBRANCH  25  30
ENDBRANCH  18  22
ENDBRANCH   1  19
TORSDOF 6
ENDMDL
MODEL 8
REMARK VINA RESULT:      -7.5      7.093     10.268
REMARK  Name = 
REMARK  9 active torsions:
REMARK  status: ('A' for Active; 'I' for Inactive)
REMARK    1  A    between atoms: C_1  and  O_2
REMARK    2  A    between atoms: O_2  and  C_3
REMARK    3  A    between atoms: C_5  and  C_6
REMARK    4  A    between atoms: N_7  and  N_8
REMARK    5  A    between atoms: C_9  and  C_11
REMARK    6  A    between atoms: C_24  and  O_25
REMARK    7  A    between atoms: O_25  and  C_26
REMARK    8  A    between atoms: C_27  and  O_28
REMARK    9  A    between atoms: O_28  and  C_29
REMARK                            x       y       z     vdW  Elec       q    Type
REMARK                         _______ _______ _______ _____ _____    ______ ____
ROOT
ATOM      1  N   UNL     1       0.668  10.161  18.778  0.00  0.00    +0.000 N 
ATOM      2  C   UNL     1      -0.605  10.282  18.243  0.00  0.00    +0.000 C 
ATOM      3  O   UNL     1      -0.997   9.632  17.278  0.00  0.00    +0.000 OA
ATOM      4  H   UNL     1       0.965  10.755  19.548  0.00  0.00    +0.000 HD
ENDROOT
BRANCH   2   5
ATOM      5  C   UNL     1      -1.562  11.219  18.907  0.00  0.00    +0.000 A 
ATOM      6  C   UNL     1      -2.712  11.528  18.261  0.00  0.00    +0.000 A 
ATOM      7  N   UNL     1      -3.739  12.302  18.756  0.00  0.00    +0.000 N 
ATOM      8  C   UNL     1      -3.780  12.583  20.132  0.00  0.00    +0.000 A 
ATOM      9  C   UNL     1      -4.978  12.988  20.737  0.00  0.00    +0.000 A 
ATOM     10  C   UNL     1      -5.066  13.048  22.130  0.00  0.00    +0.000 A 
ATOM     11  C   UNL     1      -3.949  12.741  22.908  0.00  0.00    +0.000 A 
ATOM     12 CL   UNL     1      -4.101  12.698  24.621  0.00  0.00    +0.000 Cl
ATOM     13  C   UNL     1      -2.725  12.416  22.314  0.00  0.00    +0.000 A 
ATOM     14  C   UNL     1      -2.652  12.313  20.924  0.00  0.00    +0.000 A 
ATOM     15  C   UNL     1      -1.399  11.867  20.234  0.00  0.00    +0.000 A 
ATOM     16  O   UNL     1      -0.293  12.020  20.740  0.00  0.00    +0.000 OA
ATOM     17  H   UNL     1      -4.034  13.070  18.153  0.00  0.00    +0.000 HD
ENDBRANCH   2   5
BRANCH   1  19
ATOM     18  C   UNL     1       1.926   8.243  18.890  0.00  0.00    +0.000 C 
ATOM     19  N   UNL     1       1.533   9.263  18.185  0.00  0.00    +0.000 NA
BRANCH  18  22
ATOM     20  C   UNL     1       4.951   6.609  17.210  0.00  0.00    +0.000 A 
ATOM     21  C   UNL     1       4.025   7.585  17.641  0.00  0.00    +0.000 A 
ATOM     22  C   UNL     1       2.877   7.221  18.348  0.00  0.00    +0.000 A 
ATOM     23  C   UNL     1       2.630   5.866  18.569  0.00  0.00    +0.000 A 
ATOM     24  C   UNL     1       3.519   4.869  18.110  0.00  0.00    +0.000 A 
ATOM     25  C   UNL     1       4.704   5.235  17.435  0.00  0.00    +0.000 A 
BRANCH  20  27
ATOM     26  C   UNL     1       7.239   7.221  17.275  0.00  0.00    +0.000 C 
ATOM     27  O   UNL     1       6.073   6.959  16.499  0.00  0.00    +0.000 OA
ENDBRANCH  20  27
BRANCH  24  28
ATOM     28  O   UNL     1       3.074   3.608  18.426  0.00  0.00    +0.000 OA
ATOM     29  C   UNL     1       2.247   2.900  17.509  0.00  0.00    +0.000 C 
ENDBRANCH  24  28
BRANCH  25  30
ATOM     30  O   UNL     1       5.506   4.213  16.995  0.00  0.00    +0.000 OA
ATOM     31  C   UNL     1       5.531   3.870  15.616  0.00  0.00    +0.000 C 
ENDBRANCH  25  30
ENDBRANCH  18  22
ENDBRANCH   1  19
TORSDOF 6
ENDMDL
MODEL 9
REMARK VINA RESULT:      -7.4      7.203     10.836
REMARK  Name = 
REMARK  9 active torsions:
REMARK  status: ('A' for Active; 'I' for Inactive)
REMARK    1  A    between atoms: C_1  and  O_2
REMARK    2  A    between atoms: O_2  and  C_3
REMARK    3  A    between atoms: C_5  and  C_6
REMARK    4  A    between atoms: N_7  and  N_8
REMARK    5  A    between atoms: C_9  and  C_11
REMARK    6  A    between atoms: C_24  and  O_25
REMARK    7  A    between atoms: O_25  and  C_26
REMARK    8  A    between atoms: C_27  and  O_28
REMARK    9  A    between atoms: O_28  and  C_29
REMARK                            x       y       z     vdW  Elec       q    Type
REMARK                         _______ _______ _______ _____ _____    ______ ____
ROOT
ATOM      1  N   UNL     1       0.945   9.563  20.435  0.00  0.00    +0.000 N 
ATOM      2  C   UNL     1       0.074  10.276  19.624  0.00  0.00    +0.000 C 
ATOM      3  O   UNL     1      -0.086  10.036  18.430  0.00  0.00    +0.000 OA
ATOM      4  H   UNL     1       1.081   9.829  21.406  0.00  0.00    +0.000 HD
ENDROOT
BRANCH   2   5
ATOM      5  C   UNL     1      -0.740  11.362  20.248  0.00  0.00    +0.000 A 
ATOM      6  C   UNL     1      -1.348  12.259  19.435  0.00  0.00    +0.000 A 
ATOM      7  N   UNL     1      -2.201  13.267  19.829  0.00  0.00    +0.000 N 
ATOM      8  C   UNL     1      -2.741  13.235  21.125  0.00  0.00    +0.000 A 
ATOM      9  C   UNL     1      -3.897  13.967  21.429  0.00  0.00    +0.000 A 
ATOM     10  C   UNL     1      -4.553  13.756  22.645  0.00  0.00    +0.000 A 
ATOM     11  C   UNL     1      -4.030  12.847  23.565  0.00  0.00    +0.000 A 
ATOM     12 CL   UNL     1      -4.908  12.503  25.003  0.00  0.00    +0.000 Cl
ATOM     13  C   UNL     1      -2.831  12.172  23.308  0.00  0.00    +0.000 A 
ATOM     14  C   UNL     1      -2.204  12.350  22.075  0.00  0.00    +0.000 A 
ATOM     15  C   UNL     1      -0.976  11.577  21.699  0.00  0.00    +0.000 A 
ATOM     16  O   UNL     1      -0.207  11.136  22.545  0.00  0.00    +0.000 OA
ATOM     17  H   UNL     1      -1.959  14.198  19.489  0.00  0.00    +0.000 HD
ENDBRANCH   2   5
BRANCH   1  19
ATOM     18  C   UNL     1       1.551   7.349  20.383  0.00  0.00    +0.000 C 
ATOM     19  N   UNL     1       1.663   8.535  19.860  0.00  0.00    +0.000 NA
BRANCH  18  22
ATOM     20  C   UNL     1       3.908   5.167  18.303  0.00  0.00    +0.000 A 
ATOM     21  C   UNL     1       3.146   6.273  18.740  0.00  0.00    +0.000 A 
ATOM     22  C   UNL     1       2.303   6.169  19.848  0.00  0.00    +0.000 A 
ATOM     23  C   UNL     1       2.180   4.932  20.481  0.00  0.00    +0.000 A 
ATOM     24  C   UNL     1       2.900   3.801  20.035  0.00  0.00    +0.000 A 
ATOM     25  C   UNL     1       3.788   3.912  18.943  0.00  0.00    +0.000 A 
BRANCH  20  27
ATOM     26  C   UNL     1       5.123   6.578  16.836  0.00  0.00    +0.000 C 
ATOM     27  O   UNL     1       4.726   5.259  17.202  0.00  0.00    +0.000 OA
ENDBRANCH  20  27
BRANCH  24  28
ATOM     28  O   UNL     1       2.618   2.689  20.794  0.00  0.00    +0.000 OA
ATOM     29  C   UNL     1       1.626   2.761  21.811  0.00  0.00    +0.000 C 
ENDBRANCH  24  28
BRANCH  25  30
ATOM     30  O   UNL     1       4.432   2.767  18.549  0.00  0.00    +0.000 OA
ATOM     31  C   UNL     1       3.701   1.717  17.930  0.00  0.00    +0.000 C 
ENDBRANCH  25  30
ENDBRANCH  18  22
ENDBRANCH   1  19
TORSDOF 6
ENDMDL
