MODEL 1
REMARK VINA RESULT:      -8.3      0.000      0.000
REMARK  Name = 
REMARK  10 active torsions:
REMARK  status: ('A' for Active; 'I' for Inactive)
REMARK    1  A    between atoms: C_1  and  O_2
REMARK    2  A    between atoms: O_2  and  C_3
REMARK    3  A    between atoms: C_5  and  C_6
REMARK    4  A    between atoms: N_8  and  N_9
REMARK    5  A    between atoms: C_10  and  C_12
REMARK    6  A    between atoms: C_12  and  O_13
REMARK    7  A    between atoms: O_13  and  C_14
REMARK    8  A    between atoms: C_23  and  O_24
REMARK    9  A    between atoms: O_24  and  C_25
REMARK   10  A    between atoms: C_25  and  C_26
REMARK                            x       y       z     vdW  Elec       q    Type
REMARK                         _______ _______ _______ _____ _____    ______ ____
ROOT
ATOM      1  C   UNL     1       2.012   7.302  19.264  0.00  0.00    +0.000 A 
ATOM      2  C   UNL     1       2.372   6.258  18.398  0.00  0.00    +0.000 A 
ATOM      3  C   UNL     1       2.297   4.921  18.787  0.00  0.00    +0.000 A 
ATOM      4  C   UNL     1       1.853   4.625  20.077  0.00  0.00    +0.000 A 
ATOM      5  C   UNL     1       1.551   5.660  20.972  0.00  0.00    +0.000 A 
ATOM      6  C   UNL     1       1.653   7.007  20.588  0.00  0.00    +0.000 A 
ENDROOT
BRANCH   3   7
ATOM      7  C   UNL     1       2.560   3.816  17.820  0.00  0.00    +0.000 C 
ATOM      8  O   UNL     1       1.631   3.403  17.127  0.00  0.00    +0.000 OA
ATOM      9  N   UNL     1       3.818   3.257  17.667  0.00  0.00    +0.000 N 
ATOM     10  H   UNL     1       3.868   2.465  17.027  0.00  0.00    +0.000 HD
BRANCH   9  11
ATOM     11  N   UNL     1       4.920   3.484  18.489  0.00  0.00    +0.000 N 
ATOM     12  C   UNL     1       5.845   4.477  18.217  0.00  0.00    +0.000 C 
ATOM     13  O   UNL     1       6.591   4.875  19.107  0.00  0.00    +0.000 OA
ATOM     14  H   UNL     1       4.922   3.100  19.432  0.00  0.00    +0.000 HD
BRANCH  12  15
ATOM     15  C   UNL     1       5.889   5.031  16.799  0.00  0.00    +0.000 C 
BRANCH  15  16
ATOM     16  O   UNL     1       5.930   3.915  15.914  0.00  0.00    +0.000 OA
BRANCH  16  17
ATOM     17  C   UNL     1       6.393   4.134  14.650  0.00  0.00    +0.000 A 
ATOM     18  C   UNL     1       5.810   3.328  13.659  0.00  0.00    +0.000 A 
ATOM     19  C   UNL     1       6.190   3.464  12.320  0.00  0.00    +0.000 A 
ATOM     20  C   UNL     1       7.145   4.399  11.949  0.00  0.00    +0.000 A 
ATOM     21  C   UNL     1       7.715   5.199  12.946  0.00  0.00    +0.000 A 
ATOM     22  F   UNL     1       8.646   6.105  12.598  0.00  0.00    +0.000 F 
ATOM     23  C   UNL     1       7.355   5.069  14.274  0.00  0.00    +0.000 A 
ENDBRANCH  16  17
ENDBRANCH  15  16
ENDBRANCH  12  15
ENDBRANCH   9  11
ENDBRANCH   3   7
BRANCH   1  25
ATOM     24  C   UNL     1       2.639   8.865  17.579  0.00  0.00    +0.000 C 
ATOM     25  O   UNL     1       1.975   8.599  18.819  0.00  0.00    +0.000 OA
ENDBRANCH   1  25
BRANCH   6  26
ATOM     26  O   UNL     1       1.304   7.889  21.584  0.00  0.00    +0.000 OA
BRANCH  26  27
ATOM     27  C   UNL     1      -0.008   8.436  21.526  0.00  0.00    +0.000 C 
BRANCH  27  28
ATOM     28  C   UNL     1      -0.122   9.833  22.169  0.00  0.00    +0.000 C 
ATOM     29  O   UNL     1       0.082   9.968  23.379  0.00  0.00    +0.000 OA
ATOM     30  N   UNL     1      -0.358  10.930  21.354  0.00  0.00    +0.000 N 
ATOM     31  C   UNL     1      -0.780  10.881  19.951  0.00  0.00    +0.000 C 
ATOM     32  C   UNL     1      -0.030  11.935  19.126  0.00  0.00    +0.000 C 
ATOM     33  O   UNL     1      -0.150  13.245  19.698  0.00  0.00    +0.000 OA
ATOM     34  C   UNL     1       0.369  13.265  21.039  0.00  0.00    +0.000 C 
ATOM     35  C   UNL     1      -0.392  12.280  21.933  0.00  0.00    +0.000 C 
ENDBRANCH  27  28
ENDBRANCH  26  27
ENDBRANCH   6  26
TORSDOF 9
ENDMDL
MODEL 2
REMARK VINA RESULT:      -8.0      1.186      1.584
REMARK  Name = 
REMARK  10 active torsions:
REMARK  status: ('A' for Active; 'I' for Inactive)
REMARK    1  A    between atoms: C_1  and  O_2
REMARK    2  A    between atoms: O_2  and  C_3
REMARK    3  A    between atoms: C_5  and  C_6
REMARK    4  A    between atoms: N_8  and  N_9
REMARK    5  A    between atoms: C_10  and  C_12
REMARK    6  A    between atoms: C_12  and  O_13
REMARK    7  A    between atoms: O_13  and  C_14
REMARK    8  A    between atoms: C_23  and  O_24
REMARK    9  A    between atoms: O_24  and  C_25
REMARK   10  A    between atoms: C_25  and  C_26
REMARK                            x       y       z     vdW  Elec       q    Type
REMARK                         _______ _______ _______ _____ _____    ______ ____
ROOT
ATOM      1  C   UNL     1       2.354   7.316  19.020  0.00  0.00    +0.000 A 
ATOM      2  C   UNL     1       2.512   6.053  18.430  0.00  0.00    +0.000 A 
ATOM      3  C   UNL     1       2.099   4.885  19.068  0.00  0.00    +0.000 A 
ATOM      4  C   UNL     1       1.513   4.986  20.332  0.00  0.00    +0.000 A 
ATOM      5  C   UNL     1       1.406   6.235  20.959  0.00  0.00    +0.000 A 
ATOM      6  C   UNL     1       1.850   7.408  20.327  0.00  0.00    +0.000 A 
ENDROOT
BRANCH   3   7
ATOM      7  C   UNL     1       2.155   3.563  18.380  0.00  0.00    +0.000 C 
ATOM      8  O   UNL     1       1.113   3.084  17.932  0.00  0.00    +0.000 OA
ATOM      9  N   UNL     1       3.343   2.870  18.214  0.00  0.00    +0.000 N 
ATOM     10  H   UNL     1       3.255   1.948  17.789  0.00  0.00    +0.000 HD
BRANCH   9  11
ATOM     11  N   UNL     1       4.563   3.184  18.810  0.00  0.00    +0.000 N 
ATOM     12  C   UNL     1       5.488   4.009  18.196  0.00  0.00    +0.000 C 
ATOM     13  O   UNL     1       6.375   4.534  18.863  0.00  0.00    +0.000 OA
ATOM     14  H   UNL     1       4.682   3.023  19.809  0.00  0.00    +0.000 HD
BRANCH  12  15
ATOM     15  C   UNL     1       5.354   4.224  16.694  0.00  0.00    +0.000 C 
BRANCH  15  16
ATOM     16  O   UNL     1       6.658   4.509  16.193  0.00  0.00    +0.000 OA
BRANCH  16  17
ATOM     17  C   UNL     1       6.821   4.520  14.839  0.00  0.00    +0.000 A 
ATOM     18  C   UNL     1       6.056   3.570  14.144  0.00  0.00    +0.000 A 
ATOM     19  C   UNL     1       6.124   3.488  12.749  0.00  0.00    +0.000 A 
ATOM     20  C   UNL     1       6.944   4.347  12.032  0.00  0.00    +0.000 A 
ATOM     21  C   UNL     1       7.698   5.291  12.737  0.00  0.00    +0.000 A 
ATOM     22  F   UNL     1       8.501   6.124  12.051  0.00  0.00    +0.000 F 
ATOM     23  C   UNL     1       7.647   5.377  14.115  0.00  0.00    +0.000 A 
ENDBRANCH  16  17
ENDBRANCH  15  16
ENDBRANCH  12  15
ENDBRANCH   9  11
ENDBRANCH   3   7
BRANCH   1  25
ATOM     24  C   UNL     1       1.588   9.041  17.567  0.00  0.00    +0.000 C 
ATOM     25  O   UNL     1       2.655   8.458  18.323  0.00  0.00    +0.000 OA
ENDBRANCH   1  25
BRANCH   6  26
ATOM     26  O   UNL     1       1.655   8.543  21.078  0.00  0.00    +0.000 OA
BRANCH  26  27
ATOM     27  C   UNL     1       0.404   9.203  20.930  0.00  0.00    +0.000 C 
BRANCH  27  28
ATOM     28  C   UNL     1       0.515  10.741  20.930  0.00  0.00    +0.000 C 
ATOM     29  O   UNL     1       1.173  11.308  20.053  0.00  0.00    +0.000 OA
ATOM     30  N   UNL     1      -0.211  11.467  21.863  0.00  0.00    +0.000 N 
ATOM     31  C   UNL     1      -0.884  10.916  23.043  0.00  0.00    +0.000 C 
ATOM     32  C   UNL     1      -2.257  11.570  23.234  0.00  0.00    +0.000 C 
ATOM     33  O   UNL     1      -2.167  13.002  23.264  0.00  0.00    +0.000 OA
ATOM     34  C   UNL     1      -1.594  13.501  22.043  0.00  0.00    +0.000 C 
ATOM     35  C   UNL     1      -0.184  12.936  21.832  0.00  0.00    +0.000 C 
ENDBRANCH  27  28
ENDBRANCH  26  27
ENDBRANCH   6  26
TORSDOF 9
ENDMDL
MODEL 3
REMARK VINA RESULT:      -7.9      1.663      2.619
REMARK  Name = 
REMARK  10 active torsions:
REMARK  status: ('A' for Active; 'I' for Inactive)
REMARK    1  A    between atoms: C_1  and  O_2
REMARK    2  A    between atoms: O_2  and  C_3
REMARK    3  A    between atoms: C_5  and  C_6
REMARK    4  A    between atoms: N_8  and  N_9
REMARK    5  A    between atoms: C_10  and  C_12
REMARK    6  A    between atoms: C_12  and  O_13
REMARK    7  A    between atoms: O_13  and  C_14
REMARK    8  A    between atoms: C_23  and  O_24
REMARK    9  A    between atoms: O_24  and  C_25
REMARK   10  A    between atoms: C_25  and  C_26
REMARK                            x       y       z     vdW  Elec       q    Type
REMARK                         _______ _______ _______ _____ _____    ______ ____
ROOT
ATOM      1  C   UNL     1       2.100   6.964  20.061  0.00  0.00    +0.000 A 
ATOM      2  C   UNL     1       2.570   5.655  19.868  0.00  0.00    +0.000 A 
ATOM      3  C   UNL     1       3.256   5.282  18.714  0.00  0.00    +0.000 A 
ATOM      4  C   UNL     1       3.475   6.245  17.727  0.00  0.00    +0.000 A 
ATOM      5  C   UNL     1       2.957   7.538  17.878  0.00  0.00    +0.000 A 
ATOM      6  C   UNL     1       2.241   7.905  19.029  0.00  0.00    +0.000 A 
ENDROOT
BRANCH   3   7
ATOM      7  C   UNL     1       3.861   3.926  18.575  0.00  0.00    +0.000 C 
ATOM      8  O   UNL     1       3.123   2.971  18.337  0.00  0.00    +0.000 OA
ATOM      9  N   UNL     1       5.226   3.714  18.686  0.00  0.00    +0.000 N 
ATOM     10  H   UNL     1       5.521   2.740  18.639  0.00  0.00    +0.000 HD
BRANCH   9  11
ATOM     11  N   UNL     1       6.165   4.646  19.124  0.00  0.00    +0.000 N 
ATOM     12  C   UNL     1       7.087   5.216  18.265  0.00  0.00    +0.000 C 
ATOM     13  O   UNL     1       7.658   6.254  18.587  0.00  0.00    +0.000 OA
ATOM     14  H   UNL     1       6.021   5.110  20.019  0.00  0.00    +0.000 HD
BRANCH  12  15
ATOM     15  C   UNL     1       7.350   4.510  16.942  0.00  0.00    +0.000 C 
BRANCH  15  16
ATOM     16  O   UNL     1       6.330   4.922  16.037  0.00  0.00    +0.000 OA
BRANCH  16  17
ATOM     17  C   UNL     1       6.511   4.636  14.715  0.00  0.00    +0.000 A 
ATOM     18  C   UNL     1       7.519   5.381  14.082  0.00  0.00    +0.000 A 
ATOM     19  C   UNL     1       7.811   5.173  12.730  0.00  0.00    +0.000 A 
ATOM     20  C   UNL     1       7.113   4.226  11.996  0.00  0.00    +0.000 A 
ATOM     21  C   UNL     1       6.114   3.489  12.640  0.00  0.00    +0.000 A 
ATOM     22  F   UNL     1       5.427   2.572  11.934  0.00  0.00    +0.000 F 
ATOM     23  C   UNL     1       5.809   3.689  13.972  0.00  0.00    +0.000 A 
ENDBRANCH  16  17
ENDBRANCH  15  16
ENDBRANCH  12  15
ENDBRANCH   9  11
ENDBRANCH   3   7
BRANCH   1  25
ATOM     24  C   UNL     1       0.200   7.845  21.196  0.00  0.00    +0.000 C 
ATOM     25  O   UNL     1       1.538   7.338  21.254  0.00  0.00    +0.000 OA
ENDBRANCH   1  25
BRANCH   6  26
ATOM     26  O   UNL     1       1.819   9.214  19.019  0.00  0.00    +0.000 OA
BRANCH  26  27
ATOM     27  C   UNL     1       0.885   9.579  18.009  0.00  0.00    +0.000 C 
BRANCH  27  28
ATOM     28  C   UNL     1      -0.170  10.597  18.485  0.00  0.00    +0.000 C 
ATOM     29  O   UNL     1      -1.338  10.234  18.655  0.00  0.00    +0.000 OA
ATOM     30  N   UNL     1       0.235  11.884  18.807  0.00  0.00    +0.000 N 
ATOM     31  C   UNL     1       1.538  12.476  18.491  0.00  0.00    +0.000 C 
ATOM     32  C   UNL     1       2.056  13.299  19.677  0.00  0.00    +0.000 C 
ATOM     33  O   UNL     1       1.095  14.271  20.114  0.00  0.00    +0.000 OA
ATOM     34  C   UNL     1      -0.131  13.631  20.508  0.00  0.00    +0.000 C 
ATOM     35  C   UNL     1      -0.738  12.848  19.338  0.00  0.00    +0.000 C 
ENDBRANCH  27  28
ENDBRANCH  26  27
ENDBRANCH   6  26
TORSDOF 9
ENDMDL
MODEL 4
REMARK VINA RESULT:      -7.9      3.276      5.255
REMARK  Name = 
REMARK  10 active torsions:
REMARK  status: ('A' for Active; 'I' for Inactive)
REMARK    1  A    between atoms: C_1  and  O_2
REMARK    2  A    between atoms: O_2  and  C_3
REMARK    3  A    between atoms: C_5  and  C_6
REMARK    4  A    between atoms: N_8  and  N_9
REMARK    5  A    between atoms: C_10  and  C_12
REMARK    6  A    between atoms: C_12  and  O_13
REMARK    7  A    between atoms: O_13  and  C_14
REMARK    8  A    between atoms: C_23  and  O_24
REMARK    9  A    between atoms: O_24  and  C_25
REMARK   10  A    between atoms: C_25  and  C_26
REMARK                            x       y       z     vdW  Elec       q    Type
REMARK                         _______ _______ _______ _____ _____    ______ ____
ROOT
ATOM      1  C   UNL     1       0.996   9.785  21.101  0.00  0.00    +0.000 A 
ATOM      2  C   UNL     1       1.390   8.441  21.017  0.00  0.00    +0.000 A 
ATOM      3  C   UNL     1       1.777   7.861  19.809  0.00  0.00    +0.000 A 
ATOM      4  C   UNL     1       1.766   8.650  18.657  0.00  0.00    +0.000 A 
ATOM      5  C   UNL     1       1.314   9.975  18.715  0.00  0.00    +0.000 A 
ATOM      6  C   UNL     1       0.898  10.549  19.927  0.00  0.00    +0.000 A 
ENDROOT
BRANCH   3   7
ATOM      7  C   UNL     1       2.315   6.472  19.753  0.00  0.00    +0.000 C 
ATOM      8  O   UNL     1       1.953   5.662  20.606  0.00  0.00    +0.000 OA
ATOM      9  N   UNL     1       3.190   6.062  18.760  0.00  0.00    +0.000 N 
ATOM     10  H   UNL     1       3.544   5.111  18.856  0.00  0.00    +0.000 HD
BRANCH   9  11
ATOM     11  N   UNL     1       3.827   6.890  17.838  0.00  0.00    +0.000 N 
ATOM     12  C   UNL     1       4.690   6.391  16.878  0.00  0.00    +0.000 C 
ATOM     13  O   UNL     1       4.962   7.070  15.892  0.00  0.00    +0.000 OA
ATOM     14  H   UNL     1       3.471   7.833  17.691  0.00  0.00    +0.000 HD
BRANCH  12  15
ATOM     15  C   UNL     1       5.269   5.001  17.104  0.00  0.00    +0.000 C 
BRANCH  15  16
ATOM     16  O   UNL     1       4.298   4.063  16.649  0.00  0.00    +0.000 OA
BRANCH  16  17
ATOM     17  C   UNL     1       3.557   3.418  17.595  0.00  0.00    +0.000 A 
ATOM     18  C   UNL     1       4.263   3.061  18.755  0.00  0.00    +0.000 A 
ATOM     19  C   UNL     1       3.613   2.405  19.806  0.00  0.00    +0.000 A 
ATOM     20  C   UNL     1       2.263   2.101  19.720  0.00  0.00    +0.000 A 
ATOM     21  C   UNL     1       1.571   2.466  18.560  0.00  0.00    +0.000 A 
ATOM     22  F   UNL     1       0.262   2.171  18.465  0.00  0.00    +0.000 F 
ATOM     23  C   UNL     1       2.202   3.107  17.511  0.00  0.00    +0.000 A 
ENDBRANCH  16  17
ENDBRANCH  15  16
ENDBRANCH  12  15
ENDBRANCH   9  11
ENDBRANCH   3   7
BRANCH   1  25
ATOM     24  C   UNL     1      -0.562  10.136  22.867  0.00  0.00    +0.000 C 
ATOM     25  O   UNL     1       0.739  10.365  22.316  0.00  0.00    +0.000 OA
ENDBRANCH   1  25
BRANCH   6  26
ATOM     26  O   UNL     1       0.501  11.860  19.806  0.00  0.00    +0.000 OA
BRANCH  26  27
ATOM     27  C   UNL     1      -0.267  12.194  18.656  0.00  0.00    +0.000 C 
BRANCH  27  28
ATOM     28  C   UNL     1      -1.789  12.109  18.886  0.00  0.00    +0.000 C 
ATOM     29  O   UNL     1      -2.300  12.710  19.837  0.00  0.00    +0.000 OA
ATOM     30  N   UNL     1      -2.572  11.437  17.960  0.00  0.00    +0.000 N 
ATOM     31  C   UNL     1      -2.077  10.554  16.899  0.00  0.00    +0.000 C 
ATOM     32  C   UNL     1      -2.849  10.793  15.595  0.00  0.00    +0.000 C 
ATOM     33  O   UNL     1      -4.267  10.690  15.788  0.00  0.00    +0.000 OA
ATOM     34  C   UNL     1      -4.718  11.645  16.764  0.00  0.00    +0.000 C 
ATOM     35  C   UNL     1      -4.033  11.410  18.114  0.00  0.00    +0.000 C 
ENDBRANCH  27  28
ENDBRANCH  26  27
ENDBRANCH   6  26
TORSDOF 9
ENDMDL
MODEL 5
REMARK VINA RESULT:      -7.8      1.489      2.005
REMARK  Name = 
REMARK  10 active torsions:
REMARK  status: ('A' for Active; 'I' for Inactive)
REMARK    1  A    between atoms: C_1  and  O_2
REMARK    2  A    between atoms: O_2  and  C_3
REMARK    3  A    between atoms: C_5  and  C_6
REMARK    4  A    between atoms: N_8  and  N_9
REMARK    5  A    between atoms: C_10  and  C_12
REMARK    6  A    between atoms: C_12  and  O_13
REMARK    7  A    between atoms: O_13  and  C_14
REMARK    8  A    between atoms: C_23  and  O_24
REMARK    9  A    between atoms: O_24  and  C_25
REMARK   10  A    between atoms: C_25  and  C_26
REMARK                            x       y       z     vdW  Elec       q    Type
REMARK                         _______ _______ _______ _____ _____    ______ ____
ROOT
ATOM      1  C   UNL     1       2.394   7.086  19.031  0.00  0.00    +0.000 A 
ATOM      2  C   UNL     1       2.470   5.786  18.508  0.00  0.00    +0.000 A 
ATOM      3  C   UNL     1       1.966   4.685  19.198  0.00  0.00    +0.000 A 
ATOM      4  C   UNL     1       1.372   4.893  20.445  0.00  0.00    +0.000 A 
ATOM      5  C   UNL     1       1.347   6.176  21.006  0.00  0.00    +0.000 A 
ATOM      6  C   UNL     1       1.880   7.281  20.323  0.00  0.00    +0.000 A 
ENDROOT
BRANCH   3   7
ATOM      7  C   UNL     1       1.938   3.328  18.580  0.00  0.00    +0.000 C 
ATOM      8  O   UNL     1       0.848   2.823  18.312  0.00  0.00    +0.000 OA
ATOM      9  N   UNL     1       3.097   2.631  18.281  0.00  0.00    +0.000 N 
ATOM     10  H   UNL     1       2.959   1.687  17.922  0.00  0.00    +0.000 HD
BRANCH   9  11
ATOM     11  N   UNL     1       4.387   2.980  18.679  0.00  0.00    +0.000 N 
ATOM     12  C   UNL     1       5.218   3.745  17.880  0.00  0.00    +0.000 C 
ATOM     13  O   UNL     1       6.187   4.313  18.377  0.00  0.00    +0.000 OA
ATOM     14  H   UNL     1       4.640   2.898  19.662  0.00  0.00    +0.000 HD
BRANCH  12  15
ATOM     15  C   UNL     1       4.881   3.841  16.399  0.00  0.00    +0.000 C 
BRANCH  15  16
ATOM     16  O   UNL     1       5.779   4.786  15.824  0.00  0.00    +0.000 OA
BRANCH  16  17
ATOM     17  C   UNL     1       6.209   4.549  14.552  0.00  0.00    +0.000 A 
ATOM     18  C   UNL     1       7.320   5.310  14.152  0.00  0.00    +0.000 A 
ATOM     19  C   UNL     1       7.864   5.152  12.873  0.00  0.00    +0.000 A 
ATOM     20  C   UNL     1       7.318   4.239  11.982  0.00  0.00    +0.000 A 
ATOM     21  C   UNL     1       6.214   3.485  12.395  0.00  0.00    +0.000 A 
ATOM     22  F   UNL     1       5.674   2.602  11.536  0.00  0.00    +0.000 F 
ATOM     23  C   UNL     1       5.661   3.637  13.652  0.00  0.00    +0.000 A 
ENDBRANCH  16  17
ENDBRANCH  15  16
ENDBRANCH  12  15
ENDBRANCH   9  11
ENDBRANCH   3   7
BRANCH   1  25
ATOM     24  C   UNL     1       1.742   8.895  17.626  0.00  0.00    +0.000 C 
ATOM     25  O   UNL     1       2.785   8.166  18.282  0.00  0.00    +0.000 OA
ENDBRANCH   1  25
BRANCH   6  26
ATOM     26  O   UNL     1       1.757   8.464  21.012  0.00  0.00    +0.000 OA
BRANCH  26  27
ATOM     27  C   UNL     1       0.473   9.076  21.011  0.00  0.00    +0.000 C 
BRANCH  27  28
ATOM     28  C   UNL     1       0.523  10.615  20.935  0.00  0.00    +0.000 C 
ATOM     29  O   UNL     1       1.144  11.164  20.019  0.00  0.00    +0.000 OA
ATOM     30  N   UNL     1      -0.214  11.358  21.846  0.00  0.00    +0.000 N 
ATOM     31  C   UNL     1      -0.844  10.839  23.063  0.00  0.00    +0.000 C 
ATOM     32  C   UNL     1      -2.239  11.449  23.250  0.00  0.00    +0.000 C 
ATOM     33  O   UNL     1      -2.204  12.883  23.209  0.00  0.00    +0.000 OA
ATOM     34  C   UNL     1      -1.671  13.343  21.955  0.00  0.00    +0.000 C 
ATOM     35  C   UNL     1      -0.245  12.823  21.744  0.00  0.00    +0.000 C 
ENDBRANCH  27  28
ENDBRANCH  26  27
ENDBRANCH   6  26
TORSDOF 9
ENDMDL
MODEL 6
REMARK VINA RESULT:      -7.7      1.524      1.774
REMARK  Name = 
REMARK  10 active torsions:
REMARK  status: ('A' for Active; 'I' for Inactive)
REMARK    1  A    between atoms: C_1  and  O_2
REMARK    2  A    between atoms: O_2  and  C_3
REMARK    3  A    between atoms: C_5  and  C_6
REMARK    4  A    between atoms: N_8  and  N_9
REMARK    5  A    between atoms: C_10  and  C_12
REMARK    6  A    between atoms: C_12  and  O_13
REMARK    7  A    between atoms: O_13  and  C_14
REMARK    8  A    between atoms: C_23  and  O_24
REMARK    9  A    between atoms: O_24  and  C_25
REMARK   10  A    between atoms: C_25  and  C_26
REMARK                            x       y       z     vdW  Elec       q    Type
REMARK                         _______ _______ _______ _____ _____    ______ ____
ROOT
ATOM      1  C   UNL     1       2.603   6.673  19.435  0.00  0.00    +0.000 A 
ATOM      2  C   UNL     1       3.476   5.631  19.084  0.00  0.00    +0.000 A 
ATOM      3  C   UNL     1       3.432   4.390  19.716  0.00  0.00    +0.000 A 
ATOM      4  C   UNL     1       2.490   4.187  20.726  0.00  0.00    +0.000 A 
ATOM      5  C   UNL     1       1.655   5.238  21.129  0.00  0.00    +0.000 A 
ATOM      6  C   UNL     1       1.719   6.497  20.512  0.00  0.00    +0.000 A 
ENDROOT
BRANCH   3   7
ATOM      7  C   UNL     1       4.277   3.252  19.250  0.00  0.00    +0.000 C 
ATOM      8  O   UNL     1       3.766   2.136  19.156  0.00  0.00    +0.000 OA
ATOM      9  N   UNL     1       5.608   3.418  18.904  0.00  0.00    +0.000 N 
ATOM     10  H   UNL     1       6.106   2.562  18.663  0.00  0.00    +0.000 HD
BRANCH   9  11
ATOM     11  N   UNL     1       6.373   4.562  19.121  0.00  0.00    +0.000 N 
ATOM     12  C   UNL     1       7.020   5.219  18.089  0.00  0.00    +0.000 C 
ATOM     13  O   UNL     1       7.390   6.379  18.243  0.00  0.00    +0.000 OA
ATOM     14  H   UNL     1       6.259   5.076  19.993  0.00  0.00    +0.000 HD
BRANCH  12  15
ATOM     15  C   UNL     1       7.242   4.450  16.793  0.00  0.00    +0.000 C 
BRANCH  15  16
ATOM     16  O   UNL     1       7.297   5.410  15.741  0.00  0.00    +0.000 OA
BRANCH  16  17
ATOM     17  C   UNL     1       7.123   4.954  14.467  0.00  0.00    +0.000 A 
ATOM     18  C   UNL     1       7.905   5.599  13.496  0.00  0.00    +0.000 A 
ATOM     19  C   UNL     1       7.827   5.216  12.154  0.00  0.00    +0.000 A 
ATOM     20  C   UNL     1       6.980   4.190  11.761  0.00  0.00    +0.000 A 
ATOM     21  C   UNL     1       6.209   3.553  12.740  0.00  0.00    +0.000 A 
ATOM     22  F   UNL     1       5.380   2.561  12.368  0.00  0.00    +0.000 F 
ATOM     23  C   UNL     1       6.270   3.927  14.068  0.00  0.00    +0.000 A 
ENDBRANCH  16  17
ENDBRANCH  15  16
ENDBRANCH  12  15
ENDBRANCH   9  11
ENDBRANCH   3   7
BRANCH   1  25
ATOM     24  C   UNL     1       3.343   7.856  17.506  0.00  0.00    +0.000 C 
ATOM     25  O   UNL     1       2.582   7.841  18.718  0.00  0.00    +0.000 OA
ENDBRANCH   1  25
BRANCH   6  26
ATOM     26  O   UNL     1       0.819   7.405  21.020  0.00  0.00    +0.000 OA
BRANCH  26  27
ATOM     27  C   UNL     1       1.171   8.780  20.923  0.00  0.00    +0.000 C 
BRANCH  27  28
ATOM     28  C   UNL     1       0.512   9.662  22.002  0.00  0.00    +0.000 C 
ATOM     29  O   UNL     1       0.729   9.434  23.196  0.00  0.00    +0.000 OA
ATOM     30  N   UNL     1      -0.237  10.760  21.607  0.00  0.00    +0.000 N 
ATOM     31  C   UNL     1      -0.701  11.035  20.244  0.00  0.00    +0.000 C 
ATOM     32  C   UNL     1      -0.547  12.525  19.913  0.00  0.00    +0.000 C 
ATOM     33  O   UNL     1      -1.179  13.358  20.895  0.00  0.00    +0.000 OA
ATOM     34  C   UNL     1      -0.619  13.123  22.198  0.00  0.00    +0.000 C 
ATOM     35  C   UNL     1      -0.808  11.661  22.617  0.00  0.00    +0.000 C 
ENDBRANCH  27  28
ENDBRANCH  26  27
ENDBRANCH   6  26
TORSDOF 9
ENDMDL
MODEL 7
REMARK VINA RESULT:      -7.7      1.974      2.746
REMARK  Name = 
REMARK  10 active torsions:
REMARK  status: ('A' for Active; 'I' for Inactive)
REMARK    1  A    between atoms: C_1  and  O_2
REMARK    2  A    between atoms: O_2  and  C_3
REMARK    3  A    between atoms: C_5  and  C_6
REMARK    4  A    between atoms: N_8  and  N_9
REMARK    5  A    between atoms: C_10  and  C_12
REMARK    6  A    between atoms: C_12  and  O_13
REMARK    7  A    between atoms: O_13  and  C_14
REMARK    8  A    between atoms: C_23  and  O_24
REMARK    9  A    between atoms: O_24  and  C_25
REMARK   10  A    between atoms: C_25  and  C_26
REMARK                            x       y       z     vdW  Elec       q    Type
REMARK                         _______ _______ _______ _____ _____    ______ ____
ROOT
ATOM      1  C   UNL     1       2.303   7.334  18.876  0.00  0.00    +0.000 A 
ATOM      2  C   UNL     1       2.432   6.132  18.162  0.00  0.00    +0.000 A 
ATOM      3  C   UNL     1       1.950   4.924  18.663  0.00  0.00    +0.000 A 
ATOM      4  C   UNL     1       1.326   4.920  19.913  0.00  0.00    +0.000 A 
ATOM      5  C   UNL     1       1.248   6.101  20.663  0.00  0.00    +0.000 A 
ATOM      6  C   UNL     1       1.759   7.312  20.170  0.00  0.00    +0.000 A 
ENDROOT
BRANCH   3   7
ATOM      7  C   UNL     1       1.977   3.678  17.844  0.00  0.00    +0.000 C 
ATOM      8  O   UNL     1       1.777   3.762  16.633  0.00  0.00    +0.000 OA
ATOM      9  N   UNL     1       2.241   2.437  18.401  0.00  0.00    +0.000 N 
ATOM     10  H   UNL     1       2.169   1.647  17.760  0.00  0.00    +0.000 HD
BRANCH   9  11
ATOM     11  N   UNL     1       2.311   2.150  19.763  0.00  0.00    +0.000 N 
ATOM     12  C   UNL     1       3.488   2.279  20.479  0.00  0.00    +0.000 C 
ATOM     13  O   UNL     1       3.450   2.352  21.704  0.00  0.00    +0.000 OA
ATOM     14  H   UNL     1       1.449   2.091  20.301  0.00  0.00    +0.000 HD
BRANCH  12  15
ATOM     15  C   UNL     1       4.791   2.322  19.693  0.00  0.00    +0.000 C 
BRANCH  15  16
ATOM     16  O   UNL     1       5.291   3.654  19.781  0.00  0.00    +0.000 OA
BRANCH  16  17
ATOM     17  C   UNL     1       5.532   4.311  18.611  0.00  0.00    +0.000 A 
ATOM     18  C   UNL     1       6.111   5.582  18.756  0.00  0.00    +0.000 A 
ATOM     19  C   UNL     1       6.418   6.354  17.630  0.00  0.00    +0.000 A 
ATOM     20  C   UNL     1       6.161   5.873  16.355  0.00  0.00    +0.000 A 
ATOM     21  C   UNL     1       5.587   4.604  16.225  0.00  0.00    +0.000 A 
ATOM     22  F   UNL     1       5.328   4.132  14.992  0.00  0.00    +0.000 F 
ATOM     23  C   UNL     1       5.271   3.835  17.328  0.00  0.00    +0.000 A 
ENDBRANCH  16  17
ENDBRANCH  15  16
ENDBRANCH  12  15
ENDBRANCH   9  11
ENDBRANCH   3   7
BRANCH   1  25
ATOM     24  C   UNL     1       1.612   9.355  17.823  0.00  0.00    +0.000 C 
ATOM     25  O   UNL     1       2.673   8.527  18.311  0.00  0.00    +0.000 OA
ENDBRANCH   1  25
BRANCH   6  26
ATOM     26  O   UNL     1       1.584   8.372  21.028  0.00  0.00    +0.000 OA
BRANCH  26  27
ATOM     27  C   UNL     1       0.259   8.615  21.486  0.00  0.00    +0.000 C 
BRANCH  27  28
ATOM     28  C   UNL     1       0.097   9.963  22.216  0.00  0.00    +0.000 C 
ATOM     29  O   UNL     1       0.407  10.055  23.408  0.00  0.00    +0.000 OA
ATOM     30  N   UNL     1      -0.304  11.076  21.492  0.00  0.00    +0.000 N 
ATOM     31  C   UNL     1      -0.855  11.062  20.134  0.00  0.00    +0.000 C 
ATOM     32  C   UNL     1      -0.275  12.214  19.305  0.00  0.00    +0.000 C 
ATOM     33  O   UNL     1      -0.443  13.480  19.960  0.00  0.00    +0.000 OA
ATOM     34  C   UNL     1       0.202  13.477  21.245  0.00  0.00    +0.000 C 
ATOM     35  C   UNL     1      -0.388  12.388  22.148  0.00  0.00    +0.000 C 
ENDBRANCH  27  28
ENDBRANCH  26  27
ENDBRANCH   6  26
TORSDOF 9
ENDMDL
MODEL 8
REMARK VINA RESULT:      -7.6      1.158      1.459
REMARK  Name = 
REMARK  10 active torsions:
REMARK  status: ('A' for Active; 'I' for Inactive)
REMARK    1  A    between atoms: C_1  and  O_2
REMARK    2  A    between atoms: O_2  and  C_3
REMARK    3  A    between atoms: C_5  and  C_6
REMARK    4  A    between atoms: N_8  and  N_9
REMARK    5  A    between atoms: C_10  and  C_12
REMARK    6  A    between atoms: C_12  and  O_13
REMARK    7  A    between atoms: O_13  and  C_14
REMARK    8  A    between atoms: C_23  and  O_24
REMARK    9  A    between atoms: O_24  and  C_25
REMARK   10  A    between atoms: C_25  and  C_26
REMARK                            x       y       z     vdW  Elec       q    Type
REMARK                         _______ _______ _______ _____ _____    ______ ____
ROOT
ATOM      1  C   UNL     1       2.281   7.213  19.144  0.00  0.00    +0.000 A 
ATOM      2  C   UNL     1       2.555   6.014  18.468  0.00  0.00    +0.000 A 
ATOM      3  C   UNL     1       2.271   4.771  19.030  0.00  0.00    +0.000 A 
ATOM      4  C   UNL     1       1.700   4.728  20.303  0.00  0.00    +0.000 A 
ATOM      5  C   UNL     1       1.479   5.915  21.015  0.00  0.00    +0.000 A 
ATOM      6  C   UNL     1       1.792   7.166  20.459  0.00  0.00    +0.000 A 
ENDROOT
BRANCH   3   7
ATOM      7  C   UNL     1       2.448   3.510  18.254  0.00  0.00    +0.000 C 
ATOM      8  O   UNL     1       1.458   2.979  17.753  0.00  0.00    +0.000 OA
ATOM      9  N   UNL     1       3.693   2.931  18.064  0.00  0.00    +0.000 N 
ATOM     10  H   UNL     1       3.689   2.037  17.575  0.00  0.00    +0.000 HD
BRANCH   9  11
ATOM     11  N   UNL     1       4.874   3.303  18.705  0.00  0.00    +0.000 N 
ATOM     12  C   UNL     1       5.688   4.308  18.216  0.00  0.00    +0.000 C 
ATOM     13  O   UNL     1       6.514   4.837  18.955  0.00  0.00    +0.000 OA
ATOM     14  H   UNL     1       5.021   3.020  19.673  0.00  0.00    +0.000 HD
BRANCH  12  15
ATOM     15  C   UNL     1       5.514   4.711  16.758  0.00  0.00    +0.000 C 
BRANCH  15  16
ATOM     16  O   UNL     1       6.769   4.509  16.114  0.00  0.00    +0.000 OA
BRANCH  16  17
ATOM     17  C   UNL     1       6.766   4.398  14.755  0.00  0.00    +0.000 A 
ATOM     18  C   UNL     1       7.722   5.187  14.095  0.00  0.00    +0.000 A 
ATOM     19  C   UNL     1       7.828   5.154  12.701  0.00  0.00    +0.000 A 
ATOM     20  C   UNL     1       6.995   4.338  11.950  0.00  0.00    +0.000 A 
ATOM     21  C   UNL     1       6.050   3.554  12.620  0.00  0.00    +0.000 A 
ATOM     22  F   UNL     1       5.234   2.764  11.900  0.00  0.00    +0.000 F 
ATOM     23  C   UNL     1       5.928   3.584  13.996  0.00  0.00    +0.000 A 
ENDBRANCH  16  17
ENDBRANCH  15  16
ENDBRANCH  12  15
ENDBRANCH   9  11
ENDBRANCH   3   7
BRANCH   1  25
ATOM     24  C   UNL     1       3.275   8.424  17.351  0.00  0.00    +0.000 C 
ATOM     25  O   UNL     1       2.453   8.423  18.523  0.00  0.00    +0.000 OA
ENDBRANCH   1  25
BRANCH   6  26
ATOM     26  O   UNL     1       1.497   8.224  21.287  0.00  0.00    +0.000 OA
BRANCH  26  27
ATOM     27  C   UNL     1       0.393   9.041  20.916  0.00  0.00    +0.000 C 
BRANCH  27  28
ATOM     28  C   UNL     1      -0.233   9.805  22.099  0.00  0.00    +0.000 C 
ATOM     29  O   UNL     1      -0.120   9.359  23.246  0.00  0.00    +0.000 OA
ATOM     30  N   UNL     1      -0.830  11.035  21.865  0.00  0.00    +0.000 N 
ATOM     31  C   UNL     1      -1.173  11.584  20.550  0.00  0.00    +0.000 C 
ATOM     32  C   UNL     1      -0.834  13.078  20.485  0.00  0.00    +0.000 C 
ATOM     33  O   UNL     1      -1.433  13.808  21.566  0.00  0.00    +0.000 OA
ATOM     34  C   UNL     1      -0.988  13.297  22.834  0.00  0.00    +0.000 C 
ATOM     35  C   UNL     1      -1.363  11.818  22.987  0.00  0.00    +0.000 C 
ENDBRANCH  27  28
ENDBRANCH  26  27
ENDBRANCH   6  26
TORSDOF 9
ENDMDL
MODEL 9
REMARK VINA RESULT:      -7.5      2.782      4.282
REMARK  Name = 
REMARK  10 active torsions:
REMARK  status: ('A' for Active; 'I' for Inactive)
REMARK    1  A    between atoms: C_1  and  O_2
REMARK    2  A    between atoms: O_2  and  C_3
REMARK    3  A    between atoms: C_5  and  C_6
REMARK    4  A    between atoms: N_8  and  N_9
REMARK    5  A    between atoms: C_10  and  C_12
REMARK    6  A    between atoms: C_12  and  O_13
REMARK    7  A    between atoms: O_13  and  C_14
REMARK    8  A    between atoms: C_23  and  O_24
REMARK    9  A    between atoms: O_24  and  C_25
REMARK   10  A    between atoms: C_25  and  C_26
REMARK                            x       y       z     vdW  Elec       q    Type
REMARK                         _______ _______ _______ _____ _____    ______ ____
ROOT
ATOM      1  C   UNL     1       0.767   8.343  20.752  0.00  0.00    +0.000 A 
ATOM      2  C   UNL     1       0.987   6.988  21.047  0.00  0.00    +0.000 A 
ATOM      3  C   UNL     1       1.834   6.195  20.275  0.00  0.00    +0.000 A 
ATOM      4  C   UNL     1       2.476   6.775  19.179  0.00  0.00    +0.000 A 
ATOM      5  C   UNL     1       2.217   8.109  18.836  0.00  0.00    +0.000 A 
ATOM      6  C   UNL     1       1.341   8.899  19.598  0.00  0.00    +0.000 A 
ENDROOT
BRANCH   3   7
ATOM      7  C   UNL     1       2.158   4.794  20.670  0.00  0.00    +0.000 C 
ATOM      8  O   UNL     1       2.605   4.585  21.797  0.00  0.00    +0.000 OA
ATOM      9  N   UNL     1       1.954   3.723  19.814  0.00  0.00    +0.000 N 
ATOM     10  H   UNL     1       2.273   2.820  20.163  0.00  0.00    +0.000 HD
BRANCH   9  11
ATOM     11  N   UNL     1       1.630   3.807  18.462  0.00  0.00    +0.000 N 
ATOM     12  C   UNL     1       2.561   3.564  17.468  0.00  0.00    +0.000 C 
ATOM     13  O   UNL     1       2.184   3.313  16.327  0.00  0.00    +0.000 OA
ATOM     14  H   UNL     1       0.649   3.794  18.187  0.00  0.00    +0.000 HD
BRANCH  12  15
ATOM     15  C   UNL     1       4.034   3.626  17.851  0.00  0.00    +0.000 C 
BRANCH  15  16
ATOM     16  O   UNL     1       4.676   4.484  16.911  0.00  0.00    +0.000 OA
BRANCH  16  17
ATOM     17  C   UNL     1       5.683   5.279  17.374  0.00  0.00    +0.000 A 
ATOM     18  C   UNL     1       6.565   4.654  18.270  0.00  0.00    +0.000 A 
ATOM     19  C   UNL     1       7.647   5.359  18.808  0.00  0.00    +0.000 A 
ATOM     20  C   UNL     1       7.868   6.683  18.460  0.00  0.00    +0.000 A 
ATOM     21  C   UNL     1       6.984   7.292  17.563  0.00  0.00    +0.000 A 
ATOM     22  F   UNL     1       7.187   8.578  17.224  0.00  0.00    +0.000 F 
ATOM     23  C   UNL     1       5.906   6.610  17.031  0.00  0.00    +0.000 A 
ENDBRANCH  16  17
ENDBRANCH  15  16
ENDBRANCH  12  15
ENDBRANCH   9  11
ENDBRANCH   3   7
BRANCH   1  25
ATOM     24  C   UNL     1       0.582   9.365  22.896  0.00  0.00    +0.000 C 
ATOM     25  O   UNL     1       0.029   9.132  21.596  0.00  0.00    +0.000 OA
ENDBRANCH   1  25
BRANCH   6  26
ATOM     26  O   UNL     1       1.215  10.186  19.130  0.00  0.00    +0.000 OA
BRANCH  26  27
ATOM     27  C   UNL     1       0.275  10.399  18.084  0.00  0.00    +0.000 C 
BRANCH  27  28
ATOM     28  C   UNL     1      -1.138  10.753  18.588  0.00  0.00    +0.000 C 
ATOM     29  O   UNL     1      -1.279  11.282  19.695  0.00  0.00    +0.000 OA
ATOM     30  N   UNL     1      -2.221  10.559  17.743  0.00  0.00    +0.000 N 
ATOM     31  C   UNL     1      -2.206   9.795  16.492  0.00  0.00    +0.000 C 
ATOM     32  C   UNL     1      -3.015  10.518  15.409  0.00  0.00    +0.000 C 
ATOM     33  O   UNL     1      -4.343  10.830  15.854  0.00  0.00    +0.000 OA
ATOM     34  C   UNL     1      -4.304  11.665  17.025  0.00  0.00    +0.000 C 
ATOM     35  C   UNL     1      -3.567  10.962  18.171  0.00  0.00    +0.000 C 
ENDBRANCH  27  28
ENDBRANCH  26  27
ENDBRANCH   6  26
TORSDOF 9
ENDMDL
