MODEL 1
REMARK VINA RESULT:      -7.7      0.000      0.000
REMARK  Name = 
REMARK  3 active torsions:
REMARK  status: ('A' for Active; 'I' for Inactive)
REMARK    1  A    between atoms: N_14  and  C_15
REMARK    2  A    between atoms: C_15  and  C_16
REMARK    3  A    between atoms: C_16  and  N_17
REMARK                            x       y       z     vdW  Elec       q    Type
REMARK                         _______ _______ _______ _____ _____    ______ ____
ROOT
ATOM      1  C   UNL     1       1.171   9.843  19.323  0.00  0.00    +0.000 A 
ATOM      2  C   UNL     1       1.707   9.708  18.043  0.00  0.00    +0.000 A 
ATOM      3  C   UNL     1       2.341   8.518  17.667  0.00  0.00    +0.000 A 
ATOM      4  C   UNL     1       2.422   7.434  18.566  0.00  0.00    +0.000 A 
ATOM      5  C   UNL     1       1.859   7.582  19.851  0.00  0.00    +0.000 A 
ATOM      6  C   UNL     1       1.255   8.787  20.228  0.00  0.00    +0.000 A 
ATOM      7  S   UNL     1       1.955   6.269  21.061  0.00  0.00    +0.000 S 
ATOM      8  C   UNL     1       1.749   4.928  19.890  0.00  0.00    +0.000 A 
ATOM      9  C   UNL     1       1.037   3.796  20.295  0.00  0.00    +0.000 A 
ATOM     10  C   UNL     1       0.881   2.715  19.424  0.00  0.00    +0.000 A 
ATOM     11  C   UNL     1       1.455   2.758  18.154  0.00  0.00    +0.000 A 
ATOM     12  C   UNL     1       2.178   3.878  17.745  0.00  0.00    +0.000 A 
ATOM     13  C   UNL     1       2.334   4.983  18.612  0.00  0.00    +0.000 A 
ATOM     14  N   UNL     1       2.987   6.176  18.159  0.00  0.00    +0.000 N 
ENDROOT
BRANCH  14  15
ATOM     15  C   UNL     1       4.131   6.111  17.244  0.00  0.00    +0.000 C 
BRANCH  15  16
ATOM     16  C   UNL     1       5.364   5.632  18.032  0.00  0.00    +0.000 C 
BRANCH  16  17
ATOM     17  N   UNL     1       5.951   4.366  17.523  0.00  0.00    +0.000 NA
ATOM     18  C   UNL     1       7.343   4.616  17.098  0.00  0.00    +0.000 C 
ATOM     19  C   UNL     1       7.249   5.000  15.628  0.00  0.00    +0.000 C 
ATOM     20  C   UNL     1       6.303   3.929  15.158  0.00  0.00    +0.000 C 
ATOM     21  C   UNL     1       5.273   3.892  16.287  0.00  0.00    +0.000 C 
ENDBRANCH  16  17
ENDBRANCH  15  16
ENDBRANCH  14  15
TORSDOF 3
ENDMDL
MODEL 2
REMARK VINA RESULT:      -7.5      1.059      1.603
REMARK  Name = 
REMARK  3 active torsions:
REMARK  status: ('A' for Active; 'I' for Inactive)
REMARK    1  A    between atoms: N_14  and  C_15
REMARK    2  A    between atoms: C_15  and  C_16
REMARK    3  A    between atoms: C_16  and  N_17
REMARK                            x       y       z     vdW  Elec       q    Type
REMARK                         _______ _______ _______ _____ _____    ______ ____
ROOT
ATOM      1  C   UNL     1       1.338   9.527  19.291  0.00  0.00    +0.000 A 
ATOM      2  C   UNL     1       1.783   9.383  17.976  0.00  0.00    +0.000 A 
ATOM      3  C   UNL     1       2.382   8.187  17.562  0.00  0.00    +0.000 A 
ATOM      4  C   UNL     1       2.520   7.108  18.459  0.00  0.00    +0.000 A 
ATOM      5  C   UNL     1       2.050   7.264  19.780  0.00  0.00    +0.000 A 
ATOM      6  C   UNL     1       1.480   8.474  20.192  0.00  0.00    +0.000 A 
ATOM      7  S   UNL     1       2.224   5.956  20.986  0.00  0.00    +0.000 S 
ATOM      8  C   UNL     1       1.929   4.611  19.839  0.00  0.00    +0.000 A 
ATOM      9  C   UNL     1       1.241   3.484  20.299  0.00  0.00    +0.000 A 
ATOM     10  C   UNL     1       1.019   2.401  19.446  0.00  0.00    +0.000 A 
ATOM     11  C   UNL     1       1.502   2.435  18.139  0.00  0.00    +0.000 A 
ATOM     12  C   UNL     1       2.201   3.549  17.675  0.00  0.00    +0.000 A 
ATOM     13  C   UNL     1       2.423   4.657  18.522  0.00  0.00    +0.000 A 
ATOM     14  N   UNL     1       3.049   5.844  18.020  0.00  0.00    +0.000 N 
ENDROOT
BRANCH  14  15
ATOM     15  C   UNL     1       4.125   5.769  17.026  0.00  0.00    +0.000 C 
BRANCH  15  16
ATOM     16  C   UNL     1       5.287   4.952  17.622  0.00  0.00    +0.000 C 
BRANCH  16  17
ATOM     17  N   UNL     1       6.630   5.397  17.170  0.00  0.00    +0.000 NA
ATOM     18  C   UNL     1       7.656   4.818  18.062  0.00  0.00    +0.000 C 
ATOM     19  C   UNL     1       7.844   5.843  19.172  0.00  0.00    +0.000 C 
ATOM     20  C   UNL     1       7.925   7.092  18.336  0.00  0.00    +0.000 C 
ATOM     21  C   UNL     1       6.812   6.866  17.313  0.00  0.00    +0.000 C 
ENDBRANCH  16  17
ENDBRANCH  15  16
ENDBRANCH  14  15
TORSDOF 3
ENDMDL
MODEL 3
REMARK VINA RESULT:      -6.9      0.917      1.318
REMARK  Name = 
REMARK  3 active torsions:
REMARK  status: ('A' for Active; 'I' for Inactive)
REMARK    1  A    between atoms: N_14  and  C_15
REMARK    2  A    between atoms: C_15  and  C_16
REMARK    3  A    between atoms: C_16  and  N_17
REMARK                            x       y       z     vdW  Elec       q    Type
REMARK                         _______ _______ _______ _____ _____    ______ ____
ROOT
ATOM      1  C   UNL     1       0.763  10.191  19.592  0.00  0.00    +0.000 A 
ATOM      2  C   UNL     1       1.178  10.141  18.261  0.00  0.00    +0.000 A 
ATOM      3  C   UNL     1       1.860   9.018  17.778  0.00  0.00    +0.000 A 
ATOM      4  C   UNL     1       2.112   7.916  18.621  0.00  0.00    +0.000 A 
ATOM      5  C   UNL     1       1.670   7.976  19.959  0.00  0.00    +0.000 A 
ATOM      6  C   UNL     1       1.016   9.116  20.440  0.00  0.00    +0.000 A 
ATOM      7  S   UNL     1       1.985   6.636  21.100  0.00  0.00    +0.000 S 
ATOM      8  C   UNL     1       1.767   5.322  19.902  0.00  0.00    +0.000 A 
ATOM      9  C   UNL     1       1.186   4.124  20.328  0.00  0.00    +0.000 A 
ATOM     10  C   UNL     1       1.028   3.063  19.433  0.00  0.00    +0.000 A 
ATOM     11  C   UNL     1       1.467   3.193  18.116  0.00  0.00    +0.000 A 
ATOM     12  C   UNL     1       2.059   4.379  17.685  0.00  0.00    +0.000 A 
ATOM     13  C   UNL     1       2.216   5.465  18.576  0.00  0.00    +0.000 A 
ATOM     14  N   UNL     1       2.728   6.720  18.111  0.00  0.00    +0.000 N 
ENDROOT
BRANCH  14  15
ATOM     15  C   UNL     1       3.777   6.777  17.088  0.00  0.00    +0.000 C 
BRANCH  15  16
ATOM     16  C   UNL     1       5.148   6.700  17.785  0.00  0.00    +0.000 C 
BRANCH  16  17
ATOM     17  N   UNL     1       5.576   5.318  18.123  0.00  0.00    +0.000 NA
ATOM     18  C   UNL     1       6.412   5.356  19.340  0.00  0.00    +0.000 C 
ATOM     19  C   UNL     1       7.840   5.526  18.839  0.00  0.00    +0.000 C 
ATOM     20  C   UNL     1       7.833   4.502  17.736  0.00  0.00    +0.000 C 
ATOM     21  C   UNL     1       6.471   4.740  17.085  0.00  0.00    +0.000 C 
ENDBRANCH  16  17
ENDBRANCH  15  16
ENDBRANCH  14  15
TORSDOF 3
ENDMDL
MODEL 4
REMARK VINA RESULT:      -6.8      0.877      1.194
REMARK  Name = 
REMARK  3 active torsions:
REMARK  status: ('A' for Active; 'I' for Inactive)
REMARK    1  A    between atoms: N_14  and  C_15
REMARK    2  A    between atoms: C_15  and  C_16
REMARK    3  A    between atoms: C_16  and  N_17
REMARK                            x       y       z     vdW  Elec       q    Type
REMARK                         _______ _______ _______ _____ _____    ______ ____
ROOT
ATOM      1  C   UNL     1       0.770   9.245  20.314  0.00  0.00    +0.000 A 
ATOM      2  C   UNL     1       1.217   9.522  19.022  0.00  0.00    +0.000 A 
ATOM      3  C   UNL     1       2.013   8.595  18.339  0.00  0.00    +0.000 A 
ATOM      4  C   UNL     1       2.350   7.362  18.936  0.00  0.00    +0.000 A 
ATOM      5  C   UNL     1       1.876   7.092  20.236  0.00  0.00    +0.000 A 
ATOM      6  C   UNL     1       1.107   8.038  20.923  0.00  0.00    +0.000 A 
ATOM      7  S   UNL     1       2.292   5.569  21.075  0.00  0.00    +0.000 S 
ATOM      8  C   UNL     1       2.225   4.532  19.615  0.00  0.00    +0.000 A 
ATOM      9  C   UNL     1       1.752   3.224  19.750  0.00  0.00    +0.000 A 
ATOM     10  C   UNL     1       1.714   2.373  18.643  0.00  0.00    +0.000 A 
ATOM     11  C   UNL     1       2.167   2.824  17.404  0.00  0.00    +0.000 A 
ATOM     12  C   UNL     1       2.653   4.123  17.262  0.00  0.00    +0.000 A 
ATOM     13  C   UNL     1       2.687   4.999  18.371  0.00  0.00    +0.000 A 
ATOM     14  N   UNL     1       3.087   6.365  18.207  0.00  0.00    +0.000 N 
ENDROOT
BRANCH  14  15
ATOM     15  C   UNL     1       4.148   6.735  17.264  0.00  0.00    +0.000 C 
BRANCH  15  16
ATOM     16  C   UNL     1       5.462   6.074  17.720  0.00  0.00    +0.000 C 
BRANCH  16  17
ATOM     17  N   UNL     1       6.452   5.885  16.629  0.00  0.00    +0.000 NA
ATOM     18  C   UNL     1       5.750   5.919  15.330  0.00  0.00    +0.000 C 
ATOM     19  C   UNL     1       5.368   4.473  15.044  0.00  0.00    +0.000 C 
ATOM     20  C   UNL     1       6.672   3.806  15.388  0.00  0.00    +0.000 C 
ATOM     21  C   UNL     1       7.079   4.537  16.668  0.00  0.00    +0.000 C 
ENDBRANCH  16  17
ENDBRANCH  15  16
ENDBRANCH  14  15
TORSDOF 3
ENDMDL
MODEL 5
REMARK VINA RESULT:      -6.7      0.945      1.291
REMARK  Name = 
REMARK  3 active torsions:
REMARK  status: ('A' for Active; 'I' for Inactive)
REMARK    1  A    between atoms: N_14  and  C_15
REMARK    2  A    between atoms: C_15  and  C_16
REMARK    3  A    between atoms: C_16  and  N_17
REMARK                            x       y       z     vdW  Elec       q    Type
REMARK                         _______ _______ _______ _____ _____    ______ ____
ROOT
ATOM      1  C   UNL     1       0.590  10.214  19.653  0.00  0.00    +0.000 A 
ATOM      2  C   UNL     1       0.986  10.208  18.315  0.00  0.00    +0.000 A 
ATOM      3  C   UNL     1       1.723   9.133  17.804  0.00  0.00    +0.000 A 
ATOM      4  C   UNL     1       2.050   8.034  18.625  0.00  0.00    +0.000 A 
ATOM      5  C   UNL     1       1.627   8.049  19.971  0.00  0.00    +0.000 A 
ATOM      6  C   UNL     1       0.918   9.142  20.480  0.00  0.00    +0.000 A 
ATOM      7  S   UNL     1       2.035   6.711  21.084  0.00  0.00    +0.000 S 
ATOM      8  C   UNL     1       1.872   5.405  19.869  0.00  0.00    +0.000 A 
ATOM      9  C   UNL     1       1.367   4.170  20.284  0.00  0.00    +0.000 A 
ATOM     10  C   UNL     1       1.254   3.116  19.375  0.00  0.00    +0.000 A 
ATOM     11  C   UNL     1       1.664   3.290  18.054  0.00  0.00    +0.000 A 
ATOM     12  C   UNL     1       2.181   4.515  17.633  0.00  0.00    +0.000 A 
ATOM     13  C   UNL     1       2.291   5.594  18.539  0.00  0.00    +0.000 A 
ATOM     14  N   UNL     1       2.724   6.883  18.087  0.00  0.00    +0.000 N 
ENDROOT
BRANCH  14  15
ATOM     15  C   UNL     1       3.752   7.014  17.048  0.00  0.00    +0.000 C 
BRANCH  15  16
ATOM     16  C   UNL     1       5.136   6.868  17.707  0.00  0.00    +0.000 C 
BRANCH  16  17
ATOM     17  N   UNL     1       6.228   6.550  16.751  0.00  0.00    +0.000 NA
ATOM     18  C   UNL     1       5.698   5.670  15.689  0.00  0.00    +0.000 C 
ATOM     19  C   UNL     1       5.921   4.252  16.198  0.00  0.00    +0.000 C 
ATOM     20  C   UNL     1       7.339   4.389  16.682  0.00  0.00    +0.000 C 
ATOM     21  C   UNL     1       7.310   5.748  17.381  0.00  0.00    +0.000 C 
ENDBRANCH  16  17
ENDBRANCH  15  16
ENDBRANCH  14  15
TORSDOF 3
ENDMDL
MODEL 6
REMARK VINA RESULT:      -6.6      1.053      1.212
REMARK  Name = 
REMARK  3 active torsions:
REMARK  status: ('A' for Active; 'I' for Inactive)
REMARK    1  A    between atoms: N_14  and  C_15
REMARK    2  A    between atoms: C_15  and  C_16
REMARK    3  A    between atoms: C_16  and  N_17
REMARK                            x       y       z     vdW  Elec       q    Type
REMARK                         _______ _______ _______ _____ _____    ______ ____
ROOT
ATOM      1  C   UNL     1       1.551   9.213  18.949  0.00  0.00    +0.000 A 
ATOM      2  C   UNL     1       2.413   9.094  17.859  0.00  0.00    +0.000 A 
ATOM      3  C   UNL     1       3.143   7.915  17.664  0.00  0.00    +0.000 A 
ATOM      4  C   UNL     1       2.996   6.827  18.549  0.00  0.00    +0.000 A 
ATOM      5  C   UNL     1       2.107   6.958  19.636  0.00  0.00    +0.000 A 
ATOM      6  C   UNL     1       1.405   8.152  19.840  0.00  0.00    +0.000 A 
ATOM      7  S   UNL     1       1.895   5.638  20.824  0.00  0.00    +0.000 S 
ATOM      8  C   UNL     1       2.032   4.303  19.638  0.00  0.00    +0.000 A 
ATOM      9  C   UNL     1       1.255   3.157  19.834  0.00  0.00    +0.000 A 
ATOM     10  C   UNL     1       1.356   2.080  18.950  0.00  0.00    +0.000 A 
ATOM     11  C   UNL     1       2.248   2.140  17.881  0.00  0.00    +0.000 A 
ATOM     12  C   UNL     1       3.037   3.273  17.684  0.00  0.00    +0.000 A 
ATOM     13  C   UNL     1       2.938   4.375  18.563  0.00  0.00    +0.000 A 
ATOM     14  N   UNL     1       3.669   5.580  18.306  0.00  0.00    +0.000 N 
ENDROOT
BRANCH  14  15
ATOM     15  C   UNL     1       5.018   5.537  17.731  0.00  0.00    +0.000 C 
BRANCH  15  16
ATOM     16  C   UNL     1       4.896   5.401  16.202  0.00  0.00    +0.000 C 
BRANCH  16  17
ATOM     17  N   UNL     1       5.593   4.213  15.645  0.00  0.00    +0.000 NA
ATOM     18  C   UNL     1       7.048   4.465  15.643  0.00  0.00    +0.000 C 
ATOM     19  C   UNL     1       7.343   5.098  14.290  0.00  0.00    +0.000 C 
ATOM     20  C   UNL     1       6.550   4.169  13.411  0.00  0.00    +0.000 C 
ATOM     21  C   UNL     1       5.261   3.989  14.212  0.00  0.00    +0.000 C 
ENDBRANCH  16  17
ENDBRANCH  15  16
ENDBRANCH  14  15
TORSDOF 3
ENDMDL
MODEL 7
REMARK VINA RESULT:      -6.6      1.738      5.503
REMARK  Name = 
REMARK  3 active torsions:
REMARK  status: ('A' for Active; 'I' for Inactive)
REMARK    1  A    between atoms: N_14  and  C_15
REMARK    2  A    between atoms: C_15  and  C_16
REMARK    3  A    between atoms: C_16  and  N_17
REMARK                            x       y       z     vdW  Elec       q    Type
REMARK                         _______ _______ _______ _____ _____    ______ ____
ROOT
ATOM      1  C   UNL     1       6.127   5.040  16.043  0.00  0.00    +0.000 A 
ATOM      2  C   UNL     1       6.270   6.121  16.913  0.00  0.00    +0.000 A 
ATOM      3  C   UNL     1       5.269   6.409  17.849  0.00  0.00    +0.000 A 
ATOM      4  C   UNL     1       4.121   5.595  17.942  0.00  0.00    +0.000 A 
ATOM      5  C   UNL     1       4.001   4.496  17.067  0.00  0.00    +0.000 A 
ATOM      6  C   UNL     1       4.992   4.235  16.114  0.00  0.00    +0.000 A 
ATOM      7  S   UNL     1       2.558   3.441  17.097  0.00  0.00    +0.000 S 
ATOM      8  C   UNL     1       2.330   3.494  18.873  0.00  0.00    +0.000 A 
ATOM      9  C   UNL     1       1.860   2.347  19.518  0.00  0.00    +0.000 A 
ATOM     10  C   UNL     1       1.639   2.356  20.897  0.00  0.00    +0.000 A 
ATOM     11  C   UNL     1       1.869   3.520  21.630  0.00  0.00    +0.000 A 
ATOM     12  C   UNL     1       2.326   4.674  20.994  0.00  0.00    +0.000 A 
ATOM     13  C   UNL     1       2.565   4.675  19.601  0.00  0.00    +0.000 A 
ATOM     14  N   UNL     1       3.132   5.825  18.961  0.00  0.00    +0.000 N 
ENDROOT
BRANCH  14  15
ATOM     15  C   UNL     1       2.782   7.182  19.395  0.00  0.00    +0.000 C 
BRANCH  15  16
ATOM     16  C   UNL     1       1.900   7.831  18.312  0.00  0.00    +0.000 C 
BRANCH  16  17
ATOM     17  N   UNL     1       1.666   9.284  18.517  0.00  0.00    +0.000 NA
ATOM     18  C   UNL     1       1.486   9.545  19.960  0.00  0.00    +0.000 C 
ATOM     19  C   UNL     1      -0.010   9.411  20.207  0.00  0.00    +0.000 C 
ATOM     20  C   UNL     1      -0.520  10.211  19.038  0.00  0.00    +0.000 C 
ATOM     21  C   UNL     1       0.389   9.738  17.904  0.00  0.00    +0.000 C 
ENDBRANCH  16  17
ENDBRANCH  15  16
ENDBRANCH  14  15
TORSDOF 3
ENDMDL
MODEL 8
REMARK VINA RESULT:      -6.5      2.043      5.811
REMARK  Name = 
REMARK  3 active torsions:
REMARK  status: ('A' for Active; 'I' for Inactive)
REMARK    1  A    between atoms: N_14  and  C_15
REMARK    2  A    between atoms: C_15  and  C_16
REMARK    3  A    between atoms: C_16  and  N_17
REMARK                            x       y       z     vdW  Elec       q    Type
REMARK                         _______ _______ _______ _____ _____    ______ ____
ROOT
ATOM      1  C   UNL     1       7.077   4.729  13.939  0.00  0.00    +0.000 A 
ATOM      2  C   UNL     1       6.247   3.611  14.008  0.00  0.00    +0.000 A 
ATOM      3  C   UNL     1       5.359   3.458  15.080  0.00  0.00    +0.000 A 
ATOM      4  C   UNL     1       5.276   4.442  16.087  0.00  0.00    +0.000 A 
ATOM      5  C   UNL     1       6.112   5.575  15.993  0.00  0.00    +0.000 A 
ATOM      6  C   UNL     1       7.017   5.703  14.933  0.00  0.00    +0.000 A 
ATOM      7  S   UNL     1       6.093   6.847  17.249  0.00  0.00    +0.000 S 
ATOM      8  C   UNL     1       4.329   6.773  17.557  0.00  0.00    +0.000 A 
ATOM      9  C   UNL     1       3.658   7.959  17.864  0.00  0.00    +0.000 A 
ATOM     10  C   UNL     1       2.289   7.940  18.142  0.00  0.00    +0.000 A 
ATOM     11  C   UNL     1       1.594   6.731  18.132  0.00  0.00    +0.000 A 
ATOM     12  C   UNL     1       2.258   5.541  17.839  0.00  0.00    +0.000 A 
ATOM     13  C   UNL     1       3.640   5.546  17.544  0.00  0.00    +0.000 A 
ATOM     14  N   UNL     1       4.303   4.341  17.142  0.00  0.00    +0.000 N 
ENDROOT
BRANCH  14  15
ATOM     15  C   UNL     1       3.936   3.045  17.722  0.00  0.00    +0.000 C 
BRANCH  15  16
ATOM     16  C   UNL     1       4.075   3.136  19.253  0.00  0.00    +0.000 C 
BRANCH  16  17
ATOM     17  N   UNL     1       3.229   2.164  19.993  0.00  0.00    +0.000 NA
ATOM     18  C   UNL     1       1.940   2.011  19.288  0.00  0.00    +0.000 C 
ATOM     19  C   UNL     1       1.024   3.062  19.900  0.00  0.00    +0.000 C 
ATOM     20  C   UNL     1       1.330   2.833  21.355  0.00  0.00    +0.000 C 
ATOM     21  C   UNL     1       2.849   2.665  21.341  0.00  0.00    +0.000 C 
ENDBRANCH  16  17
ENDBRANCH  15  16
ENDBRANCH  14  15
TORSDOF 3
ENDMDL
MODEL 9
REMARK VINA RESULT:      -6.4      2.044      4.669
REMARK  Name = 
REMARK  3 active torsions:
REMARK  status: ('A' for Active; 'I' for Inactive)
REMARK    1  A    between atoms: N_14  and  C_15
REMARK    2  A    between atoms: C_15  and  C_16
REMARK    3  A    between atoms: C_16  and  N_17
REMARK                            x       y       z     vdW  Elec       q    Type
REMARK                         _______ _______ _______ _____ _____    ______ ____
ROOT
ATOM      1  C   UNL     1       1.246   8.770  19.261  0.00  0.00    +0.000 A 
ATOM      2  C   UNL     1       1.307   7.955  20.391  0.00  0.00    +0.000 A 
ATOM      3  C   UNL     1       2.186   6.867  20.428  0.00  0.00    +0.000 A 
ATOM      4  C   UNL     1       3.037   6.596  19.336  0.00  0.00    +0.000 A 
ATOM      5  C   UNL     1       2.975   7.441  18.208  0.00  0.00    +0.000 A 
ATOM      6  C   UNL     1       2.071   8.508  18.169  0.00  0.00    +0.000 A 
ATOM      7  S   UNL     1       3.994   7.141  16.770  0.00  0.00    +0.000 S 
ATOM      8  C   UNL     1       5.433   6.584  17.679  0.00  0.00    +0.000 A 
ATOM      9  C   UNL     1       6.699   6.906  17.182  0.00  0.00    +0.000 A 
ATOM     10  C   UNL     1       7.847   6.463  17.843  0.00  0.00    +0.000 A 
ATOM     11  C   UNL     1       7.730   5.682  18.992  0.00  0.00    +0.000 A 
ATOM     12  C   UNL     1       6.471   5.345  19.489  0.00  0.00    +0.000 A 
ATOM     13  C   UNL     1       5.301   5.795  18.837  0.00  0.00    +0.000 A 
ATOM     14  N   UNL     1       4.009   5.538  19.401  0.00  0.00    +0.000 N 
ENDROOT
BRANCH  14  15
ATOM     15  C   UNL     1       3.724   4.278  20.096  0.00  0.00    +0.000 C 
BRANCH  15  16
ATOM     16  C   UNL     1       4.128   3.109  19.178  0.00  0.00    +0.000 C 
BRANCH  16  17
ATOM     17  N   UNL     1       3.004   2.202  18.828  0.00  0.00    +0.000 NA
ATOM     18  C   UNL     1       2.414   2.638  17.546  0.00  0.00    +0.000 C 
ATOM     19  C   UNL     1       1.317   3.623  17.925  0.00  0.00    +0.000 C 
ATOM     20  C   UNL     1       0.669   2.846  19.040  0.00  0.00    +0.000 C 
ATOM     21  C   UNL     1       1.880   2.302  19.797  0.00  0.00    +0.000 C 
ENDBRANCH  16  17
ENDBRANCH  15  16
ENDBRANCH  14  15
TORSDOF 3
ENDMDL
