MODEL 1
REMARK VINA RESULT:      -7.6      0.000      0.000
REMARK  Name = 
REMARK  3 active torsions:
REMARK  status: ('A' for Active; 'I' for Inactive)
REMARK    1  A    between atoms: C_1  and  C_2
REMARK    2  A    between atoms: C_6  and  C_7
REMARK    3  A    between atoms: C_12  and  C_13
REMARK                            x       y       z     vdW  Elec       q    Type
REMARK                         _______ _______ _______ _____ _____    ______ ____
ROOT
ATOM      1  C   UNL     1       4.289   5.253  17.455  0.00  0.00    +0.000 A 
ATOM      2  C   UNL     1       3.666   6.441  17.557  0.00  0.00    +0.000 A 
ATOM      3  C   UNL     1       2.673   6.557  18.655  0.00  0.00    +0.000 A 
ATOM      4  N   UNL     1       2.352   5.630  19.507  0.00  0.00    +0.000 NA
ATOM      5  C   UNL     1       3.009   4.432  19.364  0.00  0.00    +0.000 A 
ATOM      6  C   UNL     1       2.917   3.245  20.069  0.00  0.00    +0.000 A 
ATOM      7  C   UNL     1       3.848   2.395  19.444  0.00  0.00    +0.000 A 
ATOM      8  N   UNL     1       4.485   2.967  18.424  0.00  0.00    +0.000 NA
ATOM      9  N   UNL     1       3.973   4.225  18.360  0.00  0.00    +0.000 N 
ENDROOT
BRANCH   1  15
ATOM     10  C   UNL     1       5.475   3.598  12.882  0.00  0.00    +0.000 C 
ATOM     11  C   UNL     1       5.877   4.257  14.168  0.00  0.00    +0.000 A 
ATOM     12  C   UNL     1       7.187   4.711  14.363  0.00  0.00    +0.000 A 
ATOM     13  C   UNL     1       7.549   5.330  15.560  0.00  0.00    +0.000 A 
ATOM     14  C   UNL     1       6.604   5.505  16.573  0.00  0.00    +0.000 A 
ATOM     15  C   UNL     1       5.288   5.064  16.392  0.00  0.00    +0.000 A 
ATOM     16  C   UNL     1       4.933   4.435  15.190  0.00  0.00    +0.000 A 
ENDBRANCH   1  15
BRANCH   6  17
ATOM     17  C   UNL     1       2.069   2.927  21.195  0.00  0.00    +0.000 C 
ATOM     18  N   UNL     1       0.727   3.045  20.978  0.00  0.00    +0.000 N 
ATOM     19  O   UNL     1       2.504   2.571  22.284  0.00  0.00    +0.000 OA
ATOM     20  H   UNL     1       0.376   3.339  20.072  0.00  0.00    +0.000 HD
ATOM     21  H   UNL     1       0.088   2.832  21.728  0.00  0.00    +0.000 HD
ENDBRANCH   6  17
TORSDOF 2
ENDMDL
MODEL 2
REMARK VINA RESULT:      -7.5      3.178      6.413
REMARK  Name = 
REMARK  3 active torsions:
REMARK  status: ('A' for Active; 'I' for Inactive)
REMARK    1  A    between atoms: C_1  and  C_2
REMARK    2  A    between atoms: C_6  and  C_7
REMARK    3  A    between atoms: C_12  and  C_13
REMARK                            x       y       z     vdW  Elec       q    Type
REMARK                         _______ _______ _______ _____ _____    ______ ____
ROOT
ATOM      1  C   UNL     1       5.201   5.120  18.645  0.00  0.00    +0.000 A 
ATOM      2  C   UNL     1       6.347   5.403  19.290  0.00  0.00    +0.000 A 
ATOM      3  C   UNL     1       7.565   5.472  18.442  0.00  0.00    +0.000 A 
ATOM      4  N   UNL     1       7.623   5.282  17.158  0.00  0.00    +0.000 NA
ATOM      5  C   UNL     1       6.431   4.991  16.542  0.00  0.00    +0.000 A 
ATOM      6  C   UNL     1       6.123   4.726  15.219  0.00  0.00    +0.000 A 
ATOM      7  C   UNL     1       4.732   4.508  15.221  0.00  0.00    +0.000 A 
ATOM      8  N   UNL     1       4.183   4.617  16.429  0.00  0.00    +0.000 NA
ATOM      9  N   UNL     1       5.221   4.910  17.255  0.00  0.00    +0.000 N 
ENDROOT
BRANCH   1  15
ATOM     10  C   UNL     1       2.065   2.481  21.519  0.00  0.00    +0.000 C 
ATOM     11  C   UNL     1       2.416   3.758  20.816  0.00  0.00    +0.000 A 
ATOM     12  C   UNL     1       1.581   4.878  20.901  0.00  0.00    +0.000 A 
ATOM     13  C   UNL     1       1.921   6.064  20.249  0.00  0.00    +0.000 A 
ATOM     14  C   UNL     1       3.101   6.144  19.509  0.00  0.00    +0.000 A 
ATOM     15  C   UNL     1       3.953   5.036  19.419  0.00  0.00    +0.000 A 
ATOM     16  C   UNL     1       3.601   3.845  20.070  0.00  0.00    +0.000 A 
ENDBRANCH   1  15
BRANCH   6  17
ATOM     17  C   UNL     1       7.008   4.677  14.077  0.00  0.00    +0.000 C 
ATOM     18  N   UNL     1       8.073   5.528  14.117  0.00  0.00    +0.000 N 
ATOM     19  O   UNL     1       6.834   3.926  13.125  0.00  0.00    +0.000 OA
ATOM     20  H   UNL     1       8.210   6.145  14.911  0.00  0.00    +0.000 HD
ATOM     21  H   UNL     1       8.726   5.535  13.349  0.00  0.00    +0.000 HD
ENDBRANCH   6  17
TORSDOF 2
ENDMDL
MODEL 3
REMARK VINA RESULT:      -7.5      3.091      6.362
REMARK  Name = 
REMARK  3 active torsions:
REMARK  status: ('A' for Active; 'I' for Inactive)
REMARK    1  A    between atoms: C_1  and  C_2
REMARK    2  A    between atoms: C_6  and  C_7
REMARK    3  A    between atoms: C_12  and  C_13
REMARK                            x       y       z     vdW  Elec       q    Type
REMARK                         _______ _______ _______ _____ _____    ______ ____
ROOT
ATOM      1  C   UNL     1       2.651   6.212  18.109  0.00  0.00    +0.000 A 
ATOM      2  C   UNL     1       1.905   5.095  18.157  0.00  0.00    +0.000 A 
ATOM      3  C   UNL     1       2.531   3.874  17.588  0.00  0.00    +0.000 A 
ATOM      4  N   UNL     1       3.712   3.791  17.051  0.00  0.00    +0.000 NA
ATOM      5  C   UNL     1       4.437   4.957  17.018  0.00  0.00    +0.000 A 
ATOM      6  C   UNL     1       5.699   5.239  16.525  0.00  0.00    +0.000 A 
ATOM      7  C   UNL     1       5.880   6.609  16.791  0.00  0.00    +0.000 A 
ATOM      8  N   UNL     1       4.836   7.172  17.396  0.00  0.00    +0.000 NA
ATOM      9  N   UNL     1       3.936   6.164  17.539  0.00  0.00    +0.000 N 
ENDROOT
BRANCH   1  15
ATOM     10  C   UNL     1       1.138   8.913  22.043  0.00  0.00    +0.000 C 
ATOM     11  C   UNL     1       1.354   8.783  20.564  0.00  0.00    +0.000 A 
ATOM     12  C   UNL     1       1.052   9.841  19.699  0.00  0.00    +0.000 A 
ATOM     13  C   UNL     1       1.263   9.712  18.326  0.00  0.00    +0.000 A 
ATOM     14  C   UNL     1       1.783   8.527  17.804  0.00  0.00    +0.000 A 
ATOM     15  C   UNL     1       2.097   7.461  18.655  0.00  0.00    +0.000 A 
ATOM     16  C   UNL     1       1.875   7.593  20.033  0.00  0.00    +0.000 A 
ENDBRANCH   1  15
BRANCH   6  17
ATOM     17  C   UNL     1       6.637   4.348  15.880  0.00  0.00    +0.000 C 
ATOM     18  N   UNL     1       6.124   3.159  15.450  0.00  0.00    +0.000 N 
ATOM     19  O   UNL     1       7.820   4.622  15.718  0.00  0.00    +0.000 OA
ATOM     20  H   UNL     1       5.142   2.942  15.586  0.00  0.00    +0.000 HD
ATOM     21  H   UNL     1       6.732   2.500  14.989  0.00  0.00    +0.000 HD
ENDBRANCH   6  17
TORSDOF 2
ENDMDL
MODEL 4
REMARK VINA RESULT:      -7.4      3.252      6.448
REMARK  Name = 
REMARK  3 active torsions:
REMARK  status: ('A' for Active; 'I' for Inactive)
REMARK    1  A    between atoms: C_1  and  C_2
REMARK    2  A    between atoms: C_6  and  C_7
REMARK    3  A    between atoms: C_12  and  C_13
REMARK                            x       y       z     vdW  Elec       q    Type
REMARK                         _______ _______ _______ _____ _____    ______ ____
ROOT
ATOM      1  C   UNL     1       5.377   4.860  18.590  0.00  0.00    +0.000 A 
ATOM      2  C   UNL     1       6.468   5.387  19.174  0.00  0.00    +0.000 A 
ATOM      3  C   UNL     1       7.604   5.688  18.267  0.00  0.00    +0.000 A 
ATOM      4  N   UNL     1       7.643   5.486  16.984  0.00  0.00    +0.000 NA
ATOM      5  C   UNL     1       6.510   4.942  16.430  0.00  0.00    +0.000 A 
ATOM      6  C   UNL     1       6.204   4.589  15.127  0.00  0.00    +0.000 A 
ATOM      7  C   UNL     1       4.890   4.089  15.200  0.00  0.00    +0.000 A 
ATOM      8  N   UNL     1       4.385   4.108  16.432  0.00  0.00    +0.000 NA
ATOM      9  N   UNL     1       5.377   4.628  17.203  0.00  0.00    +0.000 N 
ENDROOT
BRANCH   1  15
ATOM     10  C   UNL     1       1.192   6.316  20.919  0.00  0.00    +0.000 C 
ATOM     11  C   UNL     1       2.173   5.236  20.567  0.00  0.00    +0.000 A 
ATOM     12  C   UNL     1       1.982   3.922  21.007  0.00  0.00    +0.000 A 
ATOM     13  C   UNL     1       2.895   2.923  20.667  0.00  0.00    +0.000 A 
ATOM     14  C   UNL     1       4.007   3.229  19.880  0.00  0.00    +0.000 A 
ATOM     15  C   UNL     1       4.210   4.537  19.425  0.00  0.00    +0.000 A 
ATOM     16  C   UNL     1       3.292   5.537  19.777  0.00  0.00    +0.000 A 
ENDBRANCH   1  15
BRANCH   6  17
ATOM     17  C   UNL     1       7.028   4.699  13.944  0.00  0.00    +0.000 C 
ATOM     18  N   UNL     1       8.086   5.554  14.037  0.00  0.00    +0.000 N 
ATOM     19  O   UNL     1       6.808   4.073  12.914  0.00  0.00    +0.000 OA
ATOM     20  H   UNL     1       8.261   6.067  14.896  0.00  0.00    +0.000 HD
ATOM     21  H   UNL     1       8.696   5.668  13.243  0.00  0.00    +0.000 HD
ENDBRANCH   6  17
TORSDOF 2
ENDMDL
MODEL 5
REMARK VINA RESULT:      -7.3      3.177      6.088
REMARK  Name = 
REMARK  3 active torsions:
REMARK  status: ('A' for Active; 'I' for Inactive)
REMARK    1  A    between atoms: C_1  and  C_2
REMARK    2  A    between atoms: C_6  and  C_7
REMARK    3  A    between atoms: C_12  and  C_13
REMARK                            x       y       z     vdW  Elec       q    Type
REMARK                         _______ _______ _______ _____ _____    ______ ____
ROOT
ATOM      1  C   UNL     1       3.735   5.612  17.712  0.00  0.00    +0.000 A 
ATOM      2  C   UNL     1       3.737   6.956  17.646  0.00  0.00    +0.000 A 
ATOM      3  C   UNL     1       4.602   7.549  16.594  0.00  0.00    +0.000 A 
ATOM      4  N   UNL     1       5.348   6.900  15.751  0.00  0.00    +0.000 NA
ATOM      5  C   UNL     1       5.319   5.531  15.858  0.00  0.00    +0.000 A 
ATOM      6  C   UNL     1       5.979   4.541  15.150  0.00  0.00    +0.000 A 
ATOM      7  C   UNL     1       5.529   3.340  15.728  0.00  0.00    +0.000 A 
ATOM      8  N   UNL     1       4.662   3.524  16.722  0.00  0.00    +0.000 NA
ATOM      9  N   UNL     1       4.527   4.873  16.816  0.00  0.00    +0.000 N 
ENDROOT
BRANCH   1  15
ATOM     10  C   UNL     1       0.407   2.083  18.947  0.00  0.00    +0.000 C 
ATOM     11  C   UNL     1       1.277   3.240  19.340  0.00  0.00    +0.000 A 
ATOM     12  C   UNL     1       1.319   3.689  20.664  0.00  0.00    +0.000 A 
ATOM     13  C   UNL     1       2.137   4.762  21.021  0.00  0.00    +0.000 A 
ATOM     14  C   UNL     1       2.925   5.393  20.057  0.00  0.00    +0.000 A 
ATOM     15  C   UNL     1       2.901   4.953  18.728  0.00  0.00    +0.000 A 
ATOM     16  C   UNL     1       2.070   3.880  18.375  0.00  0.00    +0.000 A 
ENDBRANCH   1  15
BRANCH   6  17
ATOM     17  C   UNL     1       6.919   4.684  14.061  0.00  0.00    +0.000 C 
ATOM     18  N   UNL     1       7.963   5.532  14.287  0.00  0.00    +0.000 N 
ATOM     19  O   UNL     1       6.806   4.090  12.996  0.00  0.00    +0.000 OA
ATOM     20  H   UNL     1       8.050   6.017  15.175  0.00  0.00    +0.000 HD
ATOM     21  H   UNL     1       8.652   5.667  13.564  0.00  0.00    +0.000 HD
ENDBRANCH   6  17
TORSDOF 2
ENDMDL
MODEL 6
REMARK VINA RESULT:      -7.2      2.288      5.557
REMARK  Name = 
REMARK  3 active torsions:
REMARK  status: ('A' for Active; 'I' for Inactive)
REMARK    1  A    between atoms: C_1  and  C_2
REMARK    2  A    between atoms: C_6  and  C_7
REMARK    3  A    between atoms: C_12  and  C_13
REMARK                            x       y       z     vdW  Elec       q    Type
REMARK                         _______ _______ _______ _____ _____    ______ ____
ROOT
ATOM      1  C   UNL     1       3.117   6.743  18.465  0.00  0.00    +0.000 A 
ATOM      2  C   UNL     1       3.994   6.935  17.464  0.00  0.00    +0.000 A 
ATOM      3  C   UNL     1       4.877   5.783  17.150  0.00  0.00    +0.000 A 
ATOM      4  N   UNL     1       4.882   4.629  17.747  0.00  0.00    +0.000 NA
ATOM      5  C   UNL     1       3.974   4.479  18.766  0.00  0.00    +0.000 A 
ATOM      6  C   UNL     1       3.710   3.414  19.610  0.00  0.00    +0.000 A 
ATOM      7  C   UNL     1       2.667   3.873  20.435  0.00  0.00    +0.000 A 
ATOM      8  N   UNL     1       2.286   5.120  20.161  0.00  0.00    +0.000 NA
ATOM      9  N   UNL     1       3.089   5.507  19.135  0.00  0.00    +0.000 N 
ENDROOT
BRANCH   1  15
ATOM     10  C   UNL     1       0.539   9.234  21.959  0.00  0.00    +0.000 C 
ATOM     11  C   UNL     1       0.945   9.057  20.526  0.00  0.00    +0.000 A 
ATOM     12  C   UNL     1       0.484   9.932  19.536  0.00  0.00    +0.000 A 
ATOM     13  C   UNL     1       0.873   9.764  18.207  0.00  0.00    +0.000 A 
ATOM     14  C   UNL     1       1.731   8.720  17.855  0.00  0.00    +0.000 A 
ATOM     15  C   UNL     1       2.207   7.840  18.833  0.00  0.00    +0.000 A 
ATOM     16  C   UNL     1       1.806   8.010  20.165  0.00  0.00    +0.000 A 
ENDBRANCH   1  15
BRANCH   6  17
ATOM     17  C   UNL     1       4.346   2.117  19.654  0.00  0.00    +0.000 C 
ATOM     18  N   UNL     1       4.123   1.310  18.577  0.00  0.00    +0.000 N 
ATOM     19  O   UNL     1       5.046   1.744  20.588  0.00  0.00    +0.000 OA
ATOM     20  H   UNL     1       3.543   1.629  17.807  0.00  0.00    +0.000 HD
ATOM     21  H   UNL     1       4.544   0.395  18.552  0.00  0.00    +0.000 HD
ENDBRANCH   6  17
TORSDOF 2
ENDMDL
MODEL 7
REMARK VINA RESULT:      -7.2      3.142      6.328
REMARK  Name = 
REMARK  3 active torsions:
REMARK  status: ('A' for Active; 'I' for Inactive)
REMARK    1  A    between atoms: C_1  and  C_2
REMARK    2  A    between atoms: C_6  and  C_7
REMARK    3  A    between atoms: C_12  and  C_13
REMARK                            x       y       z     vdW  Elec       q    Type
REMARK                         _______ _______ _______ _____ _____    ______ ____
ROOT
ATOM      1  C   UNL     1       2.767   5.920  18.235  0.00  0.00    +0.000 A 
ATOM      2  C   UNL     1       2.101   4.754  18.177  0.00  0.00    +0.000 A 
ATOM      3  C   UNL     1       2.756   3.674  17.395  0.00  0.00    +0.000 A 
ATOM      4  N   UNL     1       3.891   3.755  16.769  0.00  0.00    +0.000 NA
ATOM      5  C   UNL     1       4.535   4.965  16.850  0.00  0.00    +0.000 A 
ATOM      6  C   UNL     1       5.731   5.407  16.312  0.00  0.00    +0.000 A 
ATOM      7  C   UNL     1       5.844   6.737  16.758  0.00  0.00    +0.000 A 
ATOM      8  N   UNL     1       4.819   7.131  17.511  0.00  0.00    +0.000 NA
ATOM      9  N   UNL     1       4.001   6.048  17.572  0.00  0.00    +0.000 N 
ENDROOT
BRANCH   1  15
ATOM     10  C   UNL     1       1.069  10.627  18.382  0.00  0.00    +0.000 C 
ATOM     11  C   UNL     1       1.355   9.329  19.077  0.00  0.00    +0.000 A 
ATOM     12  C   UNL     1       1.055   9.159  20.433  0.00  0.00    +0.000 A 
ATOM     13  C   UNL     1       1.318   7.945  21.068  0.00  0.00    +0.000 A 
ATOM     14  C   UNL     1       1.880   6.887  20.352  0.00  0.00    +0.000 A 
ATOM     15  C   UNL     1       2.180   7.036  18.993  0.00  0.00    +0.000 A 
ATOM     16  C   UNL     1       1.921   8.262  18.363  0.00  0.00    +0.000 A 
ENDBRANCH   1  15
BRANCH   6  17
ATOM     17  C   UNL     1       6.668   4.686  15.480  0.00  0.00    +0.000 C 
ATOM     18  N   UNL     1       6.403   3.360  15.302  0.00  0.00    +0.000 N 
ATOM     19  O   UNL     1       7.644   5.212  14.958  0.00  0.00    +0.000 OA
ATOM     20  H   UNL     1       5.591   2.933  15.737  0.00  0.00    +0.000 HD
ATOM     21  H   UNL     1       7.022   2.808  14.729  0.00  0.00    +0.000 HD
ENDBRANCH   6  17
TORSDOF 2
ENDMDL
MODEL 8
REMARK VINA RESULT:      -7.2      3.585      6.561
REMARK  Name = 
REMARK  3 active torsions:
REMARK  status: ('A' for Active; 'I' for Inactive)
REMARK    1  A    between atoms: C_1  and  C_2
REMARK    2  A    between atoms: C_6  and  C_7
REMARK    3  A    between atoms: C_12  and  C_13
REMARK                            x       y       z     vdW  Elec       q    Type
REMARK                         _______ _______ _______ _____ _____    ______ ____
ROOT
ATOM      1  C   UNL     1       5.265   5.219  17.458  0.00  0.00    +0.000 A 
ATOM      2  C   UNL     1       6.087   6.054  18.118  0.00  0.00    +0.000 A 
ATOM      3  C   UNL     1       7.257   6.549  17.349  0.00  0.00    +0.000 A 
ATOM      4  N   UNL     1       7.557   6.250  16.120  0.00  0.00    +0.000 NA
ATOM      5  C   UNL     1       6.693   5.390  15.487  0.00  0.00    +0.000 A 
ATOM      6  C   UNL     1       6.702   4.857  14.210  0.00  0.00    +0.000 A 
ATOM      7  C   UNL     1       5.549   4.051  14.161  0.00  0.00    +0.000 A 
ATOM      8  N   UNL     1       4.854   4.052  15.297  0.00  0.00    +0.000 NA
ATOM      9  N   UNL     1       5.552   4.872  16.126  0.00  0.00    +0.000 N 
ENDROOT
BRANCH   1  15
ATOM     10  C   UNL     1       3.293   2.389  21.086  0.00  0.00    +0.000 C 
ATOM     11  C   UNL     1       3.112   3.310  19.915  0.00  0.00    +0.000 A 
ATOM     12  C   UNL     1       1.833   3.685  19.488  0.00  0.00    +0.000 A 
ATOM     13  C   UNL     1       1.676   4.548  18.403  0.00  0.00    +0.000 A 
ATOM     14  C   UNL     1       2.796   5.047  17.737  0.00  0.00    +0.000 A 
ATOM     15  C   UNL     1       4.083   4.689  18.155  0.00  0.00    +0.000 A 
ATOM     16  C   UNL     1       4.234   3.815  19.241  0.00  0.00    +0.000 A 
ENDBRANCH   1  15
BRANCH   6  17
ATOM     17  C   UNL     1       7.663   5.064  13.150  0.00  0.00    +0.000 C 
ATOM     18  N   UNL     1       8.726   5.860  13.463  0.00  0.00    +0.000 N 
ATOM     19  O   UNL     1       7.551   4.567  12.036  0.00  0.00    +0.000 OA
ATOM     20  H   UNL     1       8.811   6.266  14.389  0.00  0.00    +0.000 HD
ATOM     21  H   UNL     1       9.429   6.037  12.763  0.00  0.00    +0.000 HD
ENDBRANCH   6  17
TORSDOF 2
ENDMDL
MODEL 9
REMARK VINA RESULT:      -7.2      3.675      6.595
REMARK  Name = 
REMARK  3 active torsions:
REMARK  status: ('A' for Active; 'I' for Inactive)
REMARK    1  A    between atoms: C_1  and  C_2
REMARK    2  A    between atoms: C_6  and  C_7
REMARK    3  A    between atoms: C_12  and  C_13
REMARK                            x       y       z     vdW  Elec       q    Type
REMARK                         _______ _______ _______ _____ _____    ______ ____
ROOT
ATOM      1  C   UNL     1       5.327   4.698  17.377  0.00  0.00    +0.000 A 
ATOM      2  C   UNL     1       6.090   5.528  18.110  0.00  0.00    +0.000 A 
ATOM      3  C   UNL     1       7.211   6.181  17.389  0.00  0.00    +0.000 A 
ATOM      4  N   UNL     1       7.522   6.021  16.137  0.00  0.00    +0.000 NA
ATOM      5  C   UNL     1       6.721   5.160  15.428  0.00  0.00    +0.000 A 
ATOM      6  C   UNL     1       6.759   4.750  14.106  0.00  0.00    +0.000 A 
ATOM      7  C   UNL     1       5.671   3.866  13.984  0.00  0.00    +0.000 A 
ATOM      8  N   UNL     1       4.988   3.709  15.117  0.00  0.00    +0.000 NA
ATOM      9  N   UNL     1       5.629   4.499  16.018  0.00  0.00    +0.000 N 
ENDROOT
BRANCH   1  15
ATOM     10  C   UNL     1       1.361   4.845  20.427  0.00  0.00    +0.000 C 
ATOM     11  C   UNL     1       2.265   4.075  19.510  0.00  0.00    +0.000 A 
ATOM     12  C   UNL     1       2.034   2.720  19.247  0.00  0.00    +0.000 A 
ATOM     13  C   UNL     1       2.877   2.015  18.386  0.00  0.00    +0.000 A 
ATOM     14  C   UNL     1       3.955   2.658  17.777  0.00  0.00    +0.000 A 
ATOM     15  C   UNL     1       4.196   4.015  18.023  0.00  0.00    +0.000 A 
ATOM     16  C   UNL     1       3.351   4.716  18.895  0.00  0.00    +0.000 A 
ENDBRANCH   1  15
BRANCH   6  17
ATOM     17  C   UNL     1       7.692   5.129  13.069  0.00  0.00    +0.000 C 
ATOM     18  N   UNL     1       8.751   5.888  13.474  0.00  0.00    +0.000 N 
ATOM     19  O   UNL     1       7.561   4.801  11.897  0.00  0.00    +0.000 OA
ATOM     20  H   UNL     1       8.853   6.153  14.449  0.00  0.00    +0.000 HD
ATOM     21  H   UNL     1       9.436   6.178  12.793  0.00  0.00    +0.000 HD
ENDBRANCH   6  17
TORSDOF 2
ENDMDL
