MODEL 1
REMARK VINA RESULT:      -9.3      0.000      0.000
REMARK  Name = 
REMARK  7 active torsions:
REMARK  status: ('A' for Active; 'I' for Inactive)
REMARK    1  A    between atoms: C_1  and  C_2
REMARK    2  A    between atoms: C_4  and  C_5
REMARK    3  A    between atoms: C_10  and  N_11
REMARK    4  A    between atoms: C_12  and  C_14
REMARK    5  A    between atoms: C_19  and  C_20
REMARK    6  A    between atoms: C_30  and  O_31
REMARK    7  A    between atoms: C_32  and  O_33
REMARK                            x       y       z     vdW  Elec       q    Type
REMARK                         _______ _______ _______ _____ _____    ______ ____
ROOT
ATOM      1  N   UNL     1       2.134   5.725  18.348  0.00  0.00    +0.000 N 
ATOM      2  C   UNL     1       2.100   6.564  19.451  0.00  0.00    +0.000 C 
ATOM      3  O   UNL     1       2.296   6.222  20.614  0.00  0.00    +0.000 OA
ATOM      4  H   UNL     1       2.053   6.194  17.454  0.00  0.00    +0.000 HD
ENDROOT
BRANCH   2   5
ATOM      5  C   UNL     1       1.830   8.015  19.189  0.00  0.00    +0.000 A 
ATOM      6  C   UNL     1       2.485   8.594  18.099  0.00  0.00    +0.000 A 
ATOM      7  C   UNL     1       2.265   9.931  17.820  0.00  0.00    +0.000 A 
ATOM      8  C   UNL     1       1.402  10.642  18.636  0.00  0.00    +0.000 A 
ATOM      9  F   UNL     1       1.237  11.949  18.383  0.00  0.00    +0.000 F 
ATOM     10  C   UNL     1       0.744  10.007  19.704  0.00  0.00    +0.000 A 
ATOM     11  N   UNL     1       0.958   8.684  20.002  0.00  0.00    +0.000 NA
BRANCH  10  12
ATOM     12  C   UNL     1      -0.220  10.746  20.542  0.00  0.00    +0.000 A 
ATOM     13  C   UNL     1      -1.293  11.451  19.966  0.00  0.00    +0.000 A 
ATOM     14  F   UNL     1      -1.528  11.369  18.647  0.00  0.00    +0.000 F 
ATOM     15  C   UNL     1      -2.162  12.245  20.716  0.00  0.00    +0.000 A 
ATOM     16  C   UNL     1      -2.001  12.332  22.093  0.00  0.00    +0.000 A 
ATOM     17  C   UNL     1      -0.979  11.608  22.704  0.00  0.00    +0.000 A 
ATOM     18  C   UNL     1      -0.105  10.830  21.935  0.00  0.00    +0.000 A 
ATOM     19  F   UNL     1       0.871  10.173  22.583  0.00  0.00    +0.000 F 
ENDBRANCH  10  12
ENDBRANCH   2   5
BRANCH   1  25
ATOM     20  C   UNL     1       3.424   3.706  17.719  0.00  0.00    +0.000 A 
ATOM     21  C   UNL     1       3.569   2.303  17.838  0.00  0.00    +0.000 A 
ATOM     22  C   UNL     1       2.663   1.566  18.579  0.00  0.00    +0.000 A 
ATOM     23  N   UNL     1       1.619   2.116  19.208  0.00  0.00    +0.000 NA
ATOM     24  C   UNL     1       1.488   3.465  19.100  0.00  0.00    +0.000 A 
ATOM     25  C   UNL     1       2.352   4.318  18.392  0.00  0.00    +0.000 A 
BRANCH  20  29
ATOM     26  C   UNL     1       6.120   3.751  13.398  0.00  0.00    +0.000 C 
ATOM     27  C   UNL     1       5.780   4.478  14.700  0.00  0.00    +0.000 C 
ATOM     28  C   UNL     1       4.851   3.625  15.580  0.00  0.00    +0.000 C 
ATOM     29  C   UNL     1       4.465   4.396  16.852  0.00  0.00    +0.000 C 
ATOM     30  C   UNL     1       5.687   4.853  17.656  0.00  0.00    +0.000 C 
ATOM     31  C   UNL     1       6.666   5.636  16.783  0.00  0.00    +0.000 C 
ATOM     32  C   UNL     1       7.039   4.874  15.492  0.00  0.00    +0.000 C 
BRANCH  31  33
ATOM     33  O   UNL     1       7.833   5.937  17.548  0.00  0.00    +0.000 OA
ATOM     34  H   UNL     1       8.567   6.088  16.925  0.00  0.00    +0.000 HD
ENDBRANCH  31  33
BRANCH  32  35
ATOM     35  O   UNL     1       7.892   5.673  14.669  0.00  0.00    +0.000 OA
ATOM     36  H   UNL     1       7.439   6.516  14.490  0.00  0.00    +0.000 HD
ENDBRANCH  32  35
ENDBRANCH  20  29
ENDBRANCH   1  25
TORSDOF 6
ENDMDL
MODEL 2
REMARK VINA RESULT:      -9.2      0.116      1.442
REMARK  Name = 
REMARK  7 active torsions:
REMARK  status: ('A' for Active; 'I' for Inactive)
REMARK    1  A    between atoms: C_1  and  C_2
REMARK    2  A    between atoms: C_4  and  C_5
REMARK    3  A    between atoms: C_10  and  N_11
REMARK    4  A    between atoms: C_12  and  C_14
REMARK    5  A    between atoms: C_19  and  C_20
REMARK    6  A    between atoms: C_30  and  O_31
REMARK    7  A    between atoms: C_32  and  O_33
REMARK                            x       y       z     vdW  Elec       q    Type
REMARK                         _______ _______ _______ _____ _____    ______ ____
ROOT
ATOM      1  N   UNL     1       2.157   5.788  18.411  0.00  0.00    +0.000 N 
ATOM      2  C   UNL     1       2.023   6.621  19.510  0.00  0.00    +0.000 C 
ATOM      3  O   UNL     1       2.110   6.272  20.685  0.00  0.00    +0.000 OA
ATOM      4  H   UNL     1       2.159   6.262  17.515  0.00  0.00    +0.000 HD
ENDROOT
BRANCH   2   5
ATOM      5  C   UNL     1       1.778   8.074  19.232  0.00  0.00    +0.000 A 
ATOM      6  C   UNL     1       2.440   8.627  18.133  0.00  0.00    +0.000 A 
ATOM      7  C   UNL     1       2.243   9.965  17.839  0.00  0.00    +0.000 A 
ATOM      8  C   UNL     1       1.398  10.702  18.650  0.00  0.00    +0.000 A 
ATOM      9  F   UNL     1       1.256  12.009  18.383  0.00  0.00    +0.000 F 
ATOM     10  C   UNL     1       0.732  10.091  19.728  0.00  0.00    +0.000 A 
ATOM     11  N   UNL     1       0.923   8.769  20.040  0.00  0.00    +0.000 NA
BRANCH  10  12
ATOM     12  C   UNL     1      -0.214  10.858  20.561  0.00  0.00    +0.000 A 
ATOM     13  C   UNL     1      -0.109  10.864  21.964  0.00  0.00    +0.000 A 
ATOM     14  F   UNL     1       0.928  10.261  22.568  0.00  0.00    +0.000 F 
ATOM     15  C   UNL     1      -1.044  11.491  22.788  0.00  0.00    +0.000 A 
ATOM     16  C   UNL     1      -2.113  12.173  22.222  0.00  0.00    +0.000 A 
ATOM     17  C   UNL     1      -2.223  12.231  20.834  0.00  0.00    +0.000 A 
ATOM     18  C   UNL     1      -1.285  11.581  20.021  0.00  0.00    +0.000 A 
ATOM     19  F   UNL     1      -1.460  11.659  18.692  0.00  0.00    +0.000 F 
ENDBRANCH  10  12
ENDBRANCH   2   5
BRANCH   1  25
ATOM     20  C   UNL     1       3.431   3.756  17.788  0.00  0.00    +0.000 A 
ATOM     21  C   UNL     1       3.571   2.354  17.920  0.00  0.00    +0.000 A 
ATOM     22  C   UNL     1       2.671   1.629  18.680  0.00  0.00    +0.000 A 
ATOM     23  N   UNL     1       1.636   2.190  19.314  0.00  0.00    +0.000 NA
ATOM     24  C   UNL     1       1.510   3.539  19.194  0.00  0.00    +0.000 A 
ATOM     25  C   UNL     1       2.370   4.381  18.467  0.00  0.00    +0.000 A 
BRANCH  20  29
ATOM     26  C   UNL     1       6.123   3.709  13.465  0.00  0.00    +0.000 C 
ATOM     27  C   UNL     1       5.777   4.469  14.747  0.00  0.00    +0.000 C 
ATOM     28  C   UNL     1       4.857   3.630  15.651  0.00  0.00    +0.000 C 
ATOM     29  C   UNL     1       4.464   4.432  16.902  0.00  0.00    +0.000 C 
ATOM     30  C   UNL     1       5.682   4.924  17.691  0.00  0.00    +0.000 C 
ATOM     31  C   UNL     1       6.653   5.692  16.796  0.00  0.00    +0.000 C 
ATOM     32  C   UNL     1       7.032   4.898  15.526  0.00  0.00    +0.000 C 
BRANCH  31  33
ATOM     33  O   UNL     1       7.818   6.024  17.551  0.00  0.00    +0.000 OA
ATOM     34  H   UNL     1       7.968   5.311  18.198  0.00  0.00    +0.000 HD
ENDBRANCH  31  33
BRANCH  32  35
ATOM     35  O   UNL     1       7.877   5.682  14.681  0.00  0.00    +0.000 OA
ATOM     36  H   UNL     1       8.780   5.656  15.045  0.00  0.00    +0.000 HD
ENDBRANCH  32  35
ENDBRANCH  20  29
ENDBRANCH   1  25
TORSDOF 6
ENDMDL
MODEL 3
REMARK VINA RESULT:      -9.1      1.026      1.739
REMARK  Name = 
REMARK  7 active torsions:
REMARK  status: ('A' for Active; 'I' for Inactive)
REMARK    1  A    between atoms: C_1  and  C_2
REMARK    2  A    between atoms: C_4  and  C_5
REMARK    3  A    between atoms: C_10  and  N_11
REMARK    4  A    between atoms: C_12  and  C_14
REMARK    5  A    between atoms: C_19  and  C_20
REMARK    6  A    between atoms: C_30  and  O_31
REMARK    7  A    between atoms: C_32  and  O_33
REMARK                            x       y       z     vdW  Elec       q    Type
REMARK                         _______ _______ _______ _____ _____    ______ ____
ROOT
ATOM      1  N   UNL     1       2.056   5.563  18.475  0.00  0.00    +0.000 N 
ATOM      2  C   UNL     1       2.142   6.442  19.543  0.00  0.00    +0.000 C 
ATOM      3  O   UNL     1       2.453   6.139  20.692  0.00  0.00    +0.000 OA
ATOM      4  H   UNL     1       1.887   6.001  17.576  0.00  0.00    +0.000 HD
ENDROOT
BRANCH   2   5
ATOM      5  C   UNL     1       1.858   7.886  19.256  0.00  0.00    +0.000 A 
ATOM      6  C   UNL     1       2.492   8.446  18.144  0.00  0.00    +0.000 A 
ATOM      7  C   UNL     1       2.259   9.776  17.842  0.00  0.00    +0.000 A 
ATOM      8  C   UNL     1       1.405  10.498  18.658  0.00  0.00    +0.000 A 
ATOM      9  F   UNL     1       1.227  11.799  18.381  0.00  0.00    +0.000 F 
ATOM     10  C   UNL     1       0.768   9.881  19.749  0.00  0.00    +0.000 A 
ATOM     11  N   UNL     1       0.996   8.566  20.069  0.00  0.00    +0.000 NA
BRANCH  10  12
ATOM     12  C   UNL     1      -0.186  10.631  20.587  0.00  0.00    +0.000 A 
ATOM     13  C   UNL     1      -1.249  11.352  20.013  0.00  0.00    +0.000 A 
ATOM     14  F   UNL     1      -1.483  11.276  18.692  0.00  0.00    +0.000 F 
ATOM     15  C   UNL     1      -2.108  12.156  20.763  0.00  0.00    +0.000 A 
ATOM     16  C   UNL     1      -1.947  12.237  22.140  0.00  0.00    +0.000 A 
ATOM     17  C   UNL     1      -0.936  11.498  22.751  0.00  0.00    +0.000 A 
ATOM     18  C   UNL     1      -0.071  10.710  21.981  0.00  0.00    +0.000 A 
ATOM     19  F   UNL     1       0.895  10.038  22.628  0.00  0.00    +0.000 F 
ENDBRANCH  10  12
ENDBRANCH   2   5
BRANCH   1  25
ATOM     20  C   UNL     1       3.493   3.564  18.203  0.00  0.00    +0.000 A 
ATOM     21  C   UNL     1       3.610   2.158  18.326  0.00  0.00    +0.000 A 
ATOM     22  C   UNL     1       2.535   1.401  18.755  0.00  0.00    +0.000 A 
ATOM     23  N   UNL     1       1.348   1.932  19.065  0.00  0.00    +0.000 NA
ATOM     24  C   UNL     1       1.241   3.284  18.954  0.00  0.00    +0.000 A 
ATOM     25  C   UNL     1       2.265   4.156  18.548  0.00  0.00    +0.000 A 
BRANCH  20  29
ATOM     26  C   UNL     1       7.884   5.913  19.269  0.00  0.00    +0.000 C 
ATOM     27  C   UNL     1       6.940   5.402  18.180  0.00  0.00    +0.000 C 
ATOM     28  C   UNL     1       5.642   4.848  18.793  0.00  0.00    +0.000 C 
ATOM     29  C   UNL     1       4.734   4.277  17.692  0.00  0.00    +0.000 C 
ATOM     30  C   UNL     1       4.411   5.307  16.604  0.00  0.00    +0.000 C 
ATOM     31  C   UNL     1       5.683   5.932  16.035  0.00  0.00    +0.000 C 
ATOM     32  C   UNL     1       6.610   6.486  17.140  0.00  0.00    +0.000 C 
BRANCH  31  33
ATOM     33  O   UNL     1       5.323   6.961  15.113  0.00  0.00    +0.000 OA
ATOM     34  H   UNL     1       4.720   7.574  15.571  0.00  0.00    +0.000 HD
ENDBRANCH  31  33
BRANCH  32  35
ATOM     35  O   UNL     1       7.821   6.989  16.570  0.00  0.00    +0.000 OA
ATOM     36  H   UNL     1       7.931   7.913  16.857  0.00  0.00    +0.000 HD
ENDBRANCH  32  35
ENDBRANCH  20  29
ENDBRANCH   1  25
TORSDOF 6
ENDMDL
MODEL 4
REMARK VINA RESULT:      -9.1      1.311      1.431
REMARK  Name = 
REMARK  7 active torsions:
REMARK  status: ('A' for Active; 'I' for Inactive)
REMARK    1  A    between atoms: C_1  and  C_2
REMARK    2  A    between atoms: C_4  and  C_5
REMARK    3  A    between atoms: C_10  and  N_11
REMARK    4  A    between atoms: C_12  and  C_14
REMARK    5  A    between atoms: C_19  and  C_20
REMARK    6  A    between atoms: C_30  and  O_31
REMARK    7  A    between atoms: C_32  and  O_33
REMARK                            x       y       z     vdW  Elec       q    Type
REMARK                         _______ _______ _______ _____ _____    ______ ____
ROOT
ATOM      1  N   UNL     1       2.421   6.422  20.118  0.00  0.00    +0.000 N 
ATOM      2  C   UNL     1       2.021   6.985  18.917  0.00  0.00    +0.000 C 
ATOM      3  O   UNL     1       1.847   6.374  17.866  0.00  0.00    +0.000 OA
ATOM      4  H   UNL     1       2.414   7.055  20.909  0.00  0.00    +0.000 HD
ENDROOT
BRANCH   2   5
ATOM      5  C   UNL     1       1.752   8.460  18.918  0.00  0.00    +0.000 A 
ATOM      6  C   UNL     1       2.426   9.226  17.965  0.00  0.00    +0.000 A 
ATOM      7  C   UNL     1       2.207  10.592  17.930  0.00  0.00    +0.000 A 
ATOM      8  C   UNL     1       1.328  11.144  18.845  0.00  0.00    +0.000 A 
ATOM      9  F   UNL     1       1.164  12.475  18.832  0.00  0.00    +0.000 F 
ATOM     10  C   UNL     1       0.652  10.326  19.767  0.00  0.00    +0.000 A 
ATOM     11  N   UNL     1       0.864   8.971  19.823  0.00  0.00    +0.000 NA
BRANCH  10  12
ATOM     12  C   UNL     1      -0.329  10.901  20.707  0.00  0.00    +0.000 A 
ATOM     13  C   UNL     1      -1.407  11.680  20.247  0.00  0.00    +0.000 A 
ATOM     14  F   UNL     1      -1.629  11.820  18.930  0.00  0.00    +0.000 F 
ATOM     15  C   UNL     1      -2.293  12.325  21.111  0.00  0.00    +0.000 A 
ATOM     16  C   UNL     1      -2.145  12.180  22.484  0.00  0.00    +0.000 A 
ATOM     17  C   UNL     1      -1.119  11.376  22.975  0.00  0.00    +0.000 A 
ATOM     18  C   UNL     1      -0.228  10.749  22.095  0.00  0.00    +0.000 A 
ATOM     19  F   UNL     1       0.751  10.004  22.634  0.00  0.00    +0.000 F 
ENDBRANCH  10  12
ENDBRANCH   2   5
BRANCH   1  25
ATOM     20  C   UNL     1       3.783   4.415  19.609  0.00  0.00    +0.000 A 
ATOM     21  C   UNL     1       4.040   3.052  19.887  0.00  0.00    +0.000 A 
ATOM     22  C   UNL     1       3.274   2.370  20.815  0.00  0.00    +0.000 A 
ATOM     23  N   UNL     1       2.263   2.936  21.482  0.00  0.00    +0.000 NA
ATOM     24  C   UNL     1       2.024   4.249  21.219  0.00  0.00    +0.000 A 
ATOM     25  C   UNL     1       2.745   5.049  20.315  0.00  0.00    +0.000 A 
BRANCH  20  29
ATOM     26  C   UNL     1       5.680   4.232  14.886  0.00  0.00    +0.000 C 
ATOM     27  C   UNL     1       5.593   5.012  16.199  0.00  0.00    +0.000 C 
ATOM     28  C   UNL     1       4.810   4.218  17.258  0.00  0.00    +0.000 C 
ATOM     29  C   UNL     1       4.673   5.042  18.549  0.00  0.00    +0.000 C 
ATOM     30  C   UNL     1       6.029   5.484  19.109  0.00  0.00    +0.000 C 
ATOM     31  C   UNL     1       6.861   6.206  18.051  0.00  0.00    +0.000 C 
ATOM     32  C   UNL     1       6.981   5.390  16.744  0.00  0.00    +0.000 C 
BRANCH  31  33
ATOM     33  O   UNL     1       8.152   6.492  18.589  0.00  0.00    +0.000 OA
ATOM     34  H   UNL     1       8.818   6.152  17.964  0.00  0.00    +0.000 HD
ENDBRANCH  31  33
BRANCH  32  35
ATOM     35  O   UNL     1       7.699   6.134  15.756  0.00  0.00    +0.000 OA
ATOM     36  H   UNL     1       8.651   6.031  15.930  0.00  0.00    +0.000 HD
ENDBRANCH  32  35
ENDBRANCH  20  29
ENDBRANCH   1  25
TORSDOF 6
ENDMDL
MODEL 5
REMARK VINA RESULT:      -9.0      1.040      2.266
REMARK  Name = 
REMARK  7 active torsions:
REMARK  status: ('A' for Active; 'I' for Inactive)
REMARK    1  A    between atoms: C_1  and  C_2
REMARK    2  A    between atoms: C_4  and  C_5
REMARK    3  A    between atoms: C_10  and  N_11
REMARK    4  A    between atoms: C_12  and  C_14
REMARK    5  A    between atoms: C_19  and  C_20
REMARK    6  A    between atoms: C_30  and  O_31
REMARK    7  A    between atoms: C_32  and  O_33
REMARK                            x       y       z     vdW  Elec       q    Type
REMARK                         _______ _______ _______ _____ _____    ______ ____
ROOT
ATOM      1  N   UNL     1       2.110   5.636  18.579  0.00  0.00    +0.000 N 
ATOM      2  C   UNL     1       1.955   6.488  19.660  0.00  0.00    +0.000 C 
ATOM      3  O   UNL     1       2.012   6.159  20.842  0.00  0.00    +0.000 OA
ATOM      4  H   UNL     1       2.137   6.094  17.676  0.00  0.00    +0.000 HD
ENDROOT
BRANCH   2   5
ATOM      5  C   UNL     1       1.727   7.938  19.352  0.00  0.00    +0.000 A 
ATOM      6  C   UNL     1       2.386   8.458  18.235  0.00  0.00    +0.000 A 
ATOM      7  C   UNL     1       2.204   9.791  17.913  0.00  0.00    +0.000 A 
ATOM      8  C   UNL     1       1.376  10.557  18.715  0.00  0.00    +0.000 A 
ATOM      9  F   UNL     1       1.249  11.859  18.420  0.00  0.00    +0.000 F 
ATOM     10  C   UNL     1       0.713   9.980  19.812  0.00  0.00    +0.000 A 
ATOM     11  N   UNL     1       0.889   8.662  20.153  0.00  0.00    +0.000 NA
BRANCH  10  12
ATOM     12  C   UNL     1      -0.215  10.777  20.637  0.00  0.00    +0.000 A 
ATOM     13  C   UNL     1      -0.121  10.782  22.040  0.00  0.00    +0.000 A 
ATOM     14  F   UNL     1       0.891  10.147  22.654  0.00  0.00    +0.000 F 
ATOM     15  C   UNL     1      -1.043  11.440  22.856  0.00  0.00    +0.000 A 
ATOM     16  C   UNL     1      -2.085  12.154  22.280  0.00  0.00    +0.000 A 
ATOM     17  C   UNL     1      -2.182  12.214  20.892  0.00  0.00    +0.000 A 
ATOM     18  C   UNL     1      -1.258  11.533  20.088  0.00  0.00    +0.000 A 
ATOM     19  F   UNL     1      -1.420  11.614  18.757  0.00  0.00    +0.000 F 
ENDBRANCH  10  12
ENDBRANCH   2   5
BRANCH   1  25
ATOM     20  C   UNL     1       3.528   3.623  18.302  0.00  0.00    +0.000 A 
ATOM     21  C   UNL     1       3.638   2.219  18.439  0.00  0.00    +0.000 A 
ATOM     22  C   UNL     1       2.567   1.474  18.896  0.00  0.00    +0.000 A 
ATOM     23  N   UNL     1       1.389   2.017  19.221  0.00  0.00    +0.000 NA
ATOM     24  C   UNL     1       1.289   3.367  19.098  0.00  0.00    +0.000 A 
ATOM     25  C   UNL     1       2.312   4.228  18.663  0.00  0.00    +0.000 A 
BRANCH  20  29
ATOM     26  C   UNL     1       7.937   5.985  19.263  0.00  0.00    +0.000 C 
ATOM     27  C   UNL     1       6.978   5.453  18.197  0.00  0.00    +0.000 C 
ATOM     28  C   UNL     1       5.687   4.915  18.838  0.00  0.00    +0.000 C 
ATOM     29  C   UNL     1       4.764   4.323  17.761  0.00  0.00    +0.000 C 
ATOM     30  C   UNL     1       4.431   5.330  16.655  0.00  0.00    +0.000 C 
ATOM     31  C   UNL     1       5.697   5.939  16.056  0.00  0.00    +0.000 C 
ATOM     32  C   UNL     1       6.639   6.515  17.137  0.00  0.00    +0.000 C 
BRANCH  31  33
ATOM     33  O   UNL     1       5.328   6.948  15.117  0.00  0.00    +0.000 OA
ATOM     34  H   UNL     1       5.863   6.818  14.312  0.00  0.00    +0.000 HD
ENDBRANCH  31  33
BRANCH  32  35
ATOM     35  O   UNL     1       7.843   7.002  16.542  0.00  0.00    +0.000 OA
ATOM     36  H   UNL     1       7.974   6.537  15.697  0.00  0.00    +0.000 HD
ENDBRANCH  32  35
ENDBRANCH  20  29
ENDBRANCH   1  25
TORSDOF 6
ENDMDL
MODEL 6
REMARK VINA RESULT:      -9.0      1.324      2.032
REMARK  Name = 
REMARK  7 active torsions:
REMARK  status: ('A' for Active; 'I' for Inactive)
REMARK    1  A    between atoms: C_1  and  C_2
REMARK    2  A    between atoms: C_4  and  C_5
REMARK    3  A    between atoms: C_10  and  N_11
REMARK    4  A    between atoms: C_12  and  C_14
REMARK    5  A    between atoms: C_19  and  C_20
REMARK    6  A    between atoms: C_30  and  O_31
REMARK    7  A    between atoms: C_32  and  O_33
REMARK                            x       y       z     vdW  Elec       q    Type
REMARK                         _______ _______ _______ _____ _____    ______ ____
ROOT
ATOM      1  N   UNL     1       2.386   6.472  20.115  0.00  0.00    +0.000 N 
ATOM      2  C   UNL     1       1.986   7.047  18.919  0.00  0.00    +0.000 C 
ATOM      3  O   UNL     1       1.798   6.444  17.865  0.00  0.00    +0.000 OA
ATOM      4  H   UNL     1       2.390   7.102  20.909  0.00  0.00    +0.000 HD
ENDROOT
BRANCH   2   5
ATOM      5  C   UNL     1       1.736   8.525  18.929  0.00  0.00    +0.000 A 
ATOM      6  C   UNL     1       2.401   9.285  17.964  0.00  0.00    +0.000 A 
ATOM      7  C   UNL     1       2.199  10.654  17.936  0.00  0.00    +0.000 A 
ATOM      8  C   UNL     1       1.346  11.215  18.870  0.00  0.00    +0.000 A 
ATOM      9  F   UNL     1       1.198  12.548  18.863  0.00  0.00    +0.000 F 
ATOM     10  C   UNL     1       0.677  10.402  19.804  0.00  0.00    +0.000 A 
ATOM     11  N   UNL     1       0.873   9.045  19.852  0.00  0.00    +0.000 NA
BRANCH  10  12
ATOM     12  C   UNL     1      -0.277  10.988  20.765  0.00  0.00    +0.000 A 
ATOM     13  C   UNL     1      -0.174  10.726  22.143  0.00  0.00    +0.000 A 
ATOM     14  F   UNL     1       0.868  10.027  22.624  0.00  0.00    +0.000 F 
ATOM     15  C   UNL     1      -1.116  11.176  23.069  0.00  0.00    +0.000 A 
ATOM     16  C   UNL     1      -2.190  11.944  22.640  0.00  0.00    +0.000 A 
ATOM     17  C   UNL     1      -2.299  12.265  21.289  0.00  0.00    +0.000 A 
ATOM     18  C   UNL     1      -1.354  11.791  20.370  0.00  0.00    +0.000 A 
ATOM     19  F   UNL     1      -1.527  12.120  19.079  0.00  0.00    +0.000 F 
ENDBRANCH  10  12
ENDBRANCH   2   5
BRANCH   1  25
ATOM     20  C   UNL     1       3.729   4.455  19.600  0.00  0.00    +0.000 A 
ATOM     21  C   UNL     1       3.969   3.086  19.870  0.00  0.00    +0.000 A 
ATOM     22  C   UNL     1       3.188   2.406  20.785  0.00  0.00    +0.000 A 
ATOM     23  N   UNL     1       2.178   2.978  21.450  0.00  0.00    +0.000 NA
ATOM     24  C   UNL     1       1.955   4.295  21.195  0.00  0.00    +0.000 A 
ATOM     25  C   UNL     1       2.692   5.094  20.303  0.00  0.00    +0.000 A 
BRANCH  20  29
ATOM     26  C   UNL     1       5.618   4.320  14.872  0.00  0.00    +0.000 C 
ATOM     27  C   UNL     1       5.552   5.074  16.201  0.00  0.00    +0.000 C 
ATOM     28  C   UNL     1       4.749   4.279  17.245  0.00  0.00    +0.000 C 
ATOM     29  C   UNL     1       4.635   5.080  18.552  0.00  0.00    +0.000 C 
ATOM     30  C   UNL     1       6.002   5.476  19.120  0.00  0.00    +0.000 C 
ATOM     31  C   UNL     1       6.851   6.198  18.075  0.00  0.00    +0.000 C 
ATOM     32  C   UNL     1       6.949   5.406  16.752  0.00  0.00    +0.000 C 
BRANCH  31  33
ATOM     33  O   UNL     1       8.149   6.439  18.618  0.00  0.00    +0.000 OA
ATOM     34  H   UNL     1       8.806   6.187  17.944  0.00  0.00    +0.000 HD
ENDBRANCH  31  33
BRANCH  32  35
ATOM     35  O   UNL     1       7.685   6.151  15.779  0.00  0.00    +0.000 OA
ATOM     36  H   UNL     1       7.975   6.985  16.190  0.00  0.00    +0.000 HD
ENDBRANCH  32  35
ENDBRANCH  20  29
ENDBRANCH   1  25
TORSDOF 6
ENDMDL
MODEL 7
REMARK VINA RESULT:      -8.8      1.390      2.105
REMARK  Name = 
REMARK  7 active torsions:
REMARK  status: ('A' for Active; 'I' for Inactive)
REMARK    1  A    between atoms: C_1  and  C_2
REMARK    2  A    between atoms: C_4  and  C_5
REMARK    3  A    between atoms: C_10  and  N_11
REMARK    4  A    between atoms: C_12  and  C_14
REMARK    5  A    between atoms: C_19  and  C_20
REMARK    6  A    between atoms: C_30  and  O_31
REMARK    7  A    between atoms: C_32  and  O_33
REMARK                            x       y       z     vdW  Elec       q    Type
REMARK                         _______ _______ _______ _____ _____    ______ ____
ROOT
ATOM      1  N   UNL     1       2.008   6.671  19.507  0.00  0.00    +0.000 N 
ATOM      2  C   UNL     1       1.508   7.625  20.379  0.00  0.00    +0.000 C 
ATOM      3  O   UNL     1       1.313   7.460  21.581  0.00  0.00    +0.000 OA
ATOM      4  H   UNL     1       2.203   7.009  18.572  0.00  0.00    +0.000 HD
ENDROOT
BRANCH   2   5
ATOM      5  C   UNL     1       1.211   8.977  19.804  0.00  0.00    +0.000 A 
ATOM      6  C   UNL     1       2.021   9.408  18.751  0.00  0.00    +0.000 A 
ATOM      7  C   UNL     1       1.781  10.650  18.190  0.00  0.00    +0.000 A 
ATOM      8  C   UNL     1       0.746  11.416  18.698  0.00  0.00    +0.000 A 
ATOM      9  F   UNL     1       0.558  12.638  18.178  0.00  0.00    +0.000 F 
ATOM     10  C   UNL     1      -0.059  10.925  19.741  0.00  0.00    +0.000 A 
ATOM     11  N   UNL     1       0.170   9.700  20.316  0.00  0.00    +0.000 NA
BRANCH  10  12
ATOM     12  C   UNL     1      -1.199  11.713  20.248  0.00  0.00    +0.000 A 
ATOM     13  C   UNL     1      -1.186  12.258  21.545  0.00  0.00    +0.000 A 
ATOM     14  F   UNL     1      -0.084  12.168  22.307  0.00  0.00    +0.000 F 
ATOM     15  C   UNL     1      -2.284  12.920  22.096  0.00  0.00    +0.000 A 
ATOM     16  C   UNL     1      -3.437  13.088  21.340  0.00  0.00    +0.000 A 
ATOM     17  C   UNL     1      -3.469  12.604  20.034  0.00  0.00    +0.000 A 
ATOM     18  C   UNL     1      -2.364  11.928  19.502  0.00  0.00    +0.000 A 
ATOM     19  F   UNL     1      -2.467  11.469  18.244  0.00  0.00    +0.000 F 
ENDBRANCH  10  12
ENDBRANCH   2   5
BRANCH   1  25
ATOM     20  C   UNL     1       3.449   4.664  19.320  0.00  0.00    +0.000 A 
ATOM     21  C   UNL     1       3.697   3.335  19.740  0.00  0.00    +0.000 A 
ATOM     22  C   UNL     1       2.844   2.713  20.635  0.00  0.00    +0.000 A 
ATOM     23  N   UNL     1       1.758   3.308  21.139  0.00  0.00    +0.000 NA
ATOM     24  C   UNL     1       1.528   4.588  20.741  0.00  0.00    +0.000 A 
ATOM     25  C   UNL     1       2.330   5.327  19.854  0.00  0.00    +0.000 A 
BRANCH  20  29
ATOM     26  C   UNL     1       5.565   4.351  14.698  0.00  0.00    +0.000 C 
ATOM     27  C   UNL     1       5.474   5.129  16.012  0.00  0.00    +0.000 C 
ATOM     28  C   UNL     1       4.576   4.396  17.023  0.00  0.00    +0.000 C 
ATOM     29  C   UNL     1       4.440   5.222  18.312  0.00  0.00    +0.000 C 
ATOM     30  C   UNL     1       5.796   5.553  18.945  0.00  0.00    +0.000 C 
ATOM     31  C   UNL     1       6.735   6.210  17.936  0.00  0.00    +0.000 C 
ATOM     32  C   UNL     1       6.857   5.394  16.630  0.00  0.00    +0.000 C 
BRANCH  31  33
ATOM     33  O   UNL     1       8.015   6.390  18.541  0.00  0.00    +0.000 OA
ATOM     34  H   UNL     1       8.168   5.641  19.145  0.00  0.00    +0.000 HD
ENDBRANCH  31  33
BRANCH  32  35
ATOM     35  O   UNL     1       7.681   6.082  15.686  0.00  0.00    +0.000 OA
ATOM     36  H   UNL     1       7.538   7.039  15.798  0.00  0.00    +0.000 HD
ENDBRANCH  32  35
ENDBRANCH  20  29
ENDBRANCH   1  25
TORSDOF 6
ENDMDL
MODEL 8
REMARK VINA RESULT:      -8.7      1.163      1.263
REMARK  Name = 
REMARK  7 active torsions:
REMARK  status: ('A' for Active; 'I' for Inactive)
REMARK    1  A    between atoms: C_1  and  C_2
REMARK    2  A    between atoms: C_4  and  C_5
REMARK    3  A    between atoms: C_10  and  N_11
REMARK    4  A    between atoms: C_12  and  C_14
REMARK    5  A    between atoms: C_19  and  C_20
REMARK    6  A    between atoms: C_30  and  O_31
REMARK    7  A    between atoms: C_32  and  O_33
REMARK                            x       y       z     vdW  Elec       q    Type
REMARK                         _______ _______ _______ _____ _____    ______ ____
ROOT
ATOM      1  N   UNL     1       1.985   6.471  19.111  0.00  0.00    +0.000 N 
ATOM      2  C   UNL     1       1.602   7.413  20.052  0.00  0.00    +0.000 C 
ATOM      3  O   UNL     1       1.469   7.205  21.256  0.00  0.00    +0.000 OA
ATOM      4  H   UNL     1       2.145   6.839  18.181  0.00  0.00    +0.000 HD
ENDROOT
BRANCH   2   5
ATOM      5  C   UNL     1       1.359   8.806  19.555  0.00  0.00    +0.000 A 
ATOM      6  C   UNL     1       2.194   9.268  18.535  0.00  0.00    +0.000 A 
ATOM      7  C   UNL     1       2.006  10.548  18.046  0.00  0.00    +0.000 A 
ATOM      8  C   UNL     1       0.996  11.322  18.591  0.00  0.00    +0.000 A 
ATOM      9  F   UNL     1       0.857  12.578  18.142  0.00  0.00    +0.000 F 
ATOM     10  C   UNL     1       0.163  10.801  19.597  0.00  0.00    +0.000 A 
ATOM     11  N   UNL     1       0.341   9.537  20.102  0.00  0.00    +0.000 NA
BRANCH  10  12
ATOM     12  C   UNL     1      -0.951  11.600  20.142  0.00  0.00    +0.000 A 
ATOM     13  C   UNL     1      -2.166  11.725  19.444  0.00  0.00    +0.000 A 
ATOM     14  F   UNL     1      -2.377  11.022  18.319  0.00  0.00    +0.000 F 
ATOM     15  C   UNL     1      -3.202  12.554  19.876  0.00  0.00    +0.000 A 
ATOM     16  C   UNL     1      -3.065  13.269  21.058  0.00  0.00    +0.000 A 
ATOM     17  C   UNL     1      -1.895  13.133  21.802  0.00  0.00    +0.000 A 
ATOM     18  C   UNL     1      -0.857  12.310  21.346  0.00  0.00    +0.000 A 
ATOM     19  F   UNL     1       0.252  12.237  22.099  0.00  0.00    +0.000 F 
ENDBRANCH  10  12
ENDBRANCH   2   5
BRANCH   1  25
ATOM     20  C   UNL     1       3.327   4.410  18.811  0.00  0.00    +0.000 A 
ATOM     21  C   UNL     1       3.506   3.048  19.154  0.00  0.00    +0.000 A 
ATOM     22  C   UNL     1       2.618   2.418  20.007  0.00  0.00    +0.000 A 
ATOM     23  N   UNL     1       1.559   3.035  20.541  0.00  0.00    +0.000 NA
ATOM     24  C   UNL     1       1.394   4.345  20.218  0.00  0.00    +0.000 A 
ATOM     25  C   UNL     1       2.238   5.095  19.380  0.00  0.00    +0.000 A 
BRANCH  20  29
ATOM     26  C   UNL     1       5.823   3.959  14.396  0.00  0.00    +0.000 C 
ATOM     27  C   UNL     1       5.569   4.814  15.639  0.00  0.00    +0.000 C 
ATOM     28  C   UNL     1       4.651   4.080  16.631  0.00  0.00    +0.000 C 
ATOM     29  C   UNL     1       4.351   4.977  17.842  0.00  0.00    +0.000 C 
ATOM     30  C   UNL     1       5.623   5.456  18.548  0.00  0.00    +0.000 C 
ATOM     31  C   UNL     1       6.589   6.118  17.567  0.00  0.00    +0.000 C 
ATOM     32  C   UNL     1       6.876   5.229  16.337  0.00  0.00    +0.000 C 
BRANCH  31  33
ATOM     33  O   UNL     1       7.799   6.440  18.252  0.00  0.00    +0.000 OA
ATOM     34  H   UNL     1       8.395   5.672  18.182  0.00  0.00    +0.000 HD
ENDBRANCH  31  33
BRANCH  32  35
ATOM     35  O   UNL     1       7.718   5.916  15.410  0.00  0.00    +0.000 OA
ATOM     36  H   UNL     1       8.048   6.725  15.840  0.00  0.00    +0.000 HD
ENDBRANCH  32  35
ENDBRANCH  20  29
ENDBRANCH   1  25
TORSDOF 6
ENDMDL
MODEL 9
REMARK VINA RESULT:      -8.7      3.901      9.569
REMARK  Name = 
REMARK  7 active torsions:
REMARK  status: ('A' for Active; 'I' for Inactive)
REMARK    1  A    between atoms: C_1  and  C_2
REMARK    2  A    between atoms: C_4  and  C_5
REMARK    3  A    between atoms: C_10  and  N_11
REMARK    4  A    between atoms: C_12  and  C_14
REMARK    5  A    between atoms: C_19  and  C_20
REMARK    6  A    between atoms: C_30  and  O_31
REMARK    7  A    between atoms: C_32  and  O_33
REMARK                            x       y       z     vdW  Elec       q    Type
REMARK                         _______ _______ _______ _____ _____    ______ ____
ROOT
ATOM      1  N   UNL     1       1.290  11.017  19.763  0.00  0.00    +0.000 N 
ATOM      2  C   UNL     1       1.616   9.991  18.891  0.00  0.00    +0.000 C 
ATOM      3  O   UNL     1       1.861  10.122  17.695  0.00  0.00    +0.000 OA
ATOM      4  H   UNL     1       1.221  10.743  20.737  0.00  0.00    +0.000 HD
ENDROOT
BRANCH   2   5
ATOM      5  C   UNL     1       1.703   8.611  19.472  0.00  0.00    +0.000 A 
ATOM      6  C   UNL     1       1.073   8.402  20.701  0.00  0.00    +0.000 A 
ATOM      7  C   UNL     1       1.128   7.144  21.273  0.00  0.00    +0.000 A 
ATOM      8  C   UNL     1       1.808   6.142  20.603  0.00  0.00    +0.000 A 
ATOM      9  F   UNL     1       1.894   4.940  21.193  0.00  0.00    +0.000 F 
ATOM     10  C   UNL     1       2.400   6.395  19.353  0.00  0.00    +0.000 A 
ATOM     11  N   UNL     1       2.365   7.640  18.775  0.00  0.00    +0.000 NA
BRANCH  10  12
ATOM     12  C   UNL     1       3.077   5.317  18.608  0.00  0.00    +0.000 A 
ATOM     13  C   UNL     1       2.369   4.501  17.706  0.00  0.00    +0.000 A 
ATOM     14  F   UNL     1       1.083   4.763  17.421  0.00  0.00    +0.000 F 
ATOM     15  C   UNL     1       2.951   3.407  17.063  0.00  0.00    +0.000 A 
ATOM     16  C   UNL     1       4.290   3.113  17.279  0.00  0.00    +0.000 A 
ATOM     17  C   UNL     1       5.036   3.929  18.127  0.00  0.00    +0.000 A 
ATOM     18  C   UNL     1       4.433   5.012  18.779  0.00  0.00    +0.000 A 
ATOM     19  F   UNL     1       5.202   5.747  19.599  0.00  0.00    +0.000 F 
ENDBRANCH  10  12
ENDBRANCH   2   5
BRANCH   1  25
ATOM     20  C   UNL     1      -0.112  12.937  19.066  0.00  0.00    +0.000 A 
ATOM     21  C   UNL     1      -0.166  14.313  18.739  0.00  0.00    +0.000 A 
ATOM     22  C   UNL     1       0.988  15.076  18.734  0.00  0.00    +0.000 A 
ATOM     23  N   UNL     1       2.193  14.576  19.022  0.00  0.00    +0.000 NA
ATOM     24  C   UNL     1       2.240  13.256  19.345  0.00  0.00    +0.000 A 
ATOM     25  C   UNL     1       1.137  12.386  19.402  0.00  0.00    +0.000 A 
BRANCH  20  29
ATOM     26  C   UNL     1      -3.445  10.236  16.320  0.00  0.00    +0.000 C 
ATOM     27  C   UNL     1      -3.092  10.818  17.690  0.00  0.00    +0.000 C 
ATOM     28  C   UNL     1      -1.820  11.680  17.610  0.00  0.00    +0.000 C 
ATOM     29  C   UNL     1      -1.441  12.202  19.005  0.00  0.00    +0.000 C 
ATOM     30  C   UNL     1      -2.577  12.989  19.667  0.00  0.00    +0.000 C 
ATOM     31  C   UNL     1      -3.875  12.184  19.686  0.00  0.00    +0.000 C 
ATOM     32  C   UNL     1      -4.248  11.638  18.289  0.00  0.00    +0.000 C 
BRANCH  31  33
ATOM     33  O   UNL     1      -4.923  13.003  20.205  0.00  0.00    +0.000 OA
ATOM     34  H   UNL     1      -4.655  13.304  21.092  0.00  0.00    +0.000 HD
ENDBRANCH  31  33
BRANCH  32  35
ATOM     35  O   UNL     1      -5.422  10.827  18.367  0.00  0.00    +0.000 OA
ATOM     36  H   UNL     1      -5.589  10.448  17.486  0.00  0.00    +0.000 HD
ENDBRANCH  32  35
ENDBRANCH  20  29
ENDBRANCH   1  25
TORSDOF 6
ENDMDL
