MODEL 1
REMARK VINA RESULT:      -7.5      0.000      0.000
REMARK  Name = 
REMARK  13 active torsions:
REMARK  status: ('A' for Active; 'I' for Inactive)
REMARK    1  A    between atoms: C_1  and  O_2
REMARK    2  A    between atoms: O_2  and  C_3
REMARK    3  A    between atoms: C_3  and  C_5
REMARK    4  A    between atoms: C_5  and  C_6
REMARK    5  A    between atoms: C_6  and  C_7
REMARK    6  A    between atoms: C_7  and  C_8
REMARK    7  A    between atoms: N_10  and  C_11
REMARK    8  A    between atoms: C_15  and  C_16
REMARK    9  A    between atoms: C_16  and  O_17
REMARK   10  A    between atoms: O_17  and  C_18
REMARK   11  A    between atoms: C_21  and  C_22
REMARK   12  A    between atoms: C_22  and  C_23
REMARK   13  A    between atoms: C_25  and  O_26
REMARK                            x       y       z     vdW  Elec       q    Type
REMARK                         _______ _______ _______ _____ _____    ______ ____
ROOT
ATOM      1  C   UNL     1       3.301   3.126  17.924  0.00  0.00    +0.000 A 
ATOM      2  C   UNL     1       2.328   2.130  17.825  0.00  0.00    +0.000 A 
ATOM      3  C   UNL     1       1.196   2.151  18.638  0.00  0.00    +0.000 A 
ATOM      4  C   UNL     1       1.027   3.169  19.570  0.00  0.00    +0.000 A 
ATOM      5  C   UNL     1       2.003   4.162  19.717  0.00  0.00    +0.000 A 
ATOM      6  C   UNL     1       3.144   4.129  18.890  0.00  0.00    +0.000 A 
ENDROOT
BRANCH   1   9
ATOM      7  C   UNL     1       4.859   4.295  16.378  0.00  0.00    +0.000 C 
ATOM      8  O   UNL     1       4.317   5.397  16.379  0.00  0.00    +0.000 OA
ATOM      9  N   UNL     1       4.433   3.177  17.076  0.00  0.00    +0.000 N 
ATOM     10  H   UNL     1       5.047   2.372  17.095  0.00  0.00    +0.000 HD
BRANCH   7  11
ATOM     11  C   UNL     1       6.128   4.067  15.577  0.00  0.00    +0.000 C 
BRANCH  11  12
ATOM     12  C   UNL     1       7.374   4.328  16.428  0.00  0.00    +0.000 C 
BRANCH  12  13
ATOM     13  C   UNL     1       7.047   5.038  17.746  0.00  0.00    +0.000 C 
BRANCH  13  14
ATOM     14  C   UNL     1       7.440   6.496  17.702  0.00  0.00    +0.000 C 
ATOM     15  O   UNL     1       7.195   7.267  16.783  0.00  0.00    +0.000 OA
BRANCH  14  17
ATOM     16  C   UNL     1       8.196   5.759  19.785  0.00  0.00    +0.000 C 
ATOM     17  O   UNL     1       8.128   6.821  18.833  0.00  0.00    +0.000 OA
ENDBRANCH  14  17
ENDBRANCH  13  14
ENDBRANCH  12  13
ENDBRANCH  11  12
ENDBRANCH   7  11
ENDBRANCH   1   9
BRANCH   5  18
ATOM     18  C   UNL     1       1.786   5.286  20.703  0.00  0.00    +0.000 C 
BRANCH  18  19
ATOM     19  O   UNL     1       2.650   6.360  20.336  0.00  0.00    +0.000 OA
BRANCH  19  20
ATOM     20  C   UNL     1       2.064   7.538  19.967  0.00  0.00    +0.000 A 
ATOM     21  C   UNL     1       1.235   8.104  20.937  0.00  0.00    +0.000 A 
ATOM     22  C   UNL     1       0.565   9.312  20.704  0.00  0.00    +0.000 A 
ATOM     23  C   UNL     1       0.708   9.976  19.479  0.00  0.00    +0.000 A 
ATOM     24  C   UNL     1       1.543   9.392  18.508  0.00  0.00    +0.000 A 
ATOM     25  C   UNL     1       2.216   8.189  18.747  0.00  0.00    +0.000 A 
BRANCH  23  26
ATOM     26  C   UNL     1       0.019  11.269  19.175  0.00  0.00    +0.000 C 
ATOM     27  C   UNL     1      -1.458  11.463  19.414  0.00  0.00    +0.000 C 
ATOM     28  O   UNL     1       0.695  12.202  18.731  0.00  0.00    +0.000 OA
ENDBRANCH  23  26
BRANCH  24  29
ATOM     29  O   UNL     1       1.756   9.945  17.270  0.00  0.00    +0.000 OA
ATOM     30  H   UNL     1       2.531   9.491  16.865  0.00  0.00    +0.000 HD
ENDBRANCH  24  29
ENDBRANCH  19  20
ENDBRANCH  18  19
ENDBRANCH   5  18
TORSDOF 11
ENDMDL
MODEL 2
REMARK VINA RESULT:      -7.5      2.611      4.583
REMARK  Name = 
REMARK  13 active torsions:
REMARK  status: ('A' for Active; 'I' for Inactive)
REMARK    1  A    between atoms: C_1  and  O_2
REMARK    2  A    between atoms: O_2  and  C_3
REMARK    3  A    between atoms: C_3  and  C_5
REMARK    4  A    between atoms: C_5  and  C_6
REMARK    5  A    between atoms: C_6  and  C_7
REMARK    6  A    between atoms: C_7  and  C_8
REMARK    7  A    between atoms: N_10  and  C_11
REMARK    8  A    between atoms: C_15  and  C_16
REMARK    9  A    between atoms: C_16  and  O_17
REMARK   10  A    between atoms: O_17  and  C_18
REMARK   11  A    between atoms: C_21  and  C_22
REMARK   12  A    between atoms: C_22  and  C_23
REMARK   13  A    between atoms: C_25  and  O_26
REMARK                            x       y       z     vdW  Elec       q    Type
REMARK                         _______ _______ _______ _____ _____    ______ ____
ROOT
ATOM      1  C   UNL     1       2.565   6.847  19.343  0.00  0.00    +0.000 A 
ATOM      2  C   UNL     1       2.059   6.555  20.611  0.00  0.00    +0.000 A 
ATOM      3  C   UNL     1       1.183   7.430  21.251  0.00  0.00    +0.000 A 
ATOM      4  C   UNL     1       0.807   8.617  20.631  0.00  0.00    +0.000 A 
ATOM      5  C   UNL     1       1.326   8.953  19.374  0.00  0.00    +0.000 A 
ATOM      6  C   UNL     1       2.212   8.061  18.738  0.00  0.00    +0.000 A 
ENDROOT
BRANCH   1   9
ATOM      7  C   UNL     1       2.972   4.908  17.839  0.00  0.00    +0.000 C 
ATOM      8  O   UNL     1       1.804   4.585  17.645  0.00  0.00    +0.000 OA
ATOM      9  N   UNL     1       3.406   5.958  18.633  0.00  0.00    +0.000 N 
ATOM     10  H   UNL     1       4.390   6.199  18.598  0.00  0.00    +0.000 HD
BRANCH   7  11
ATOM     11  C   UNL     1       4.099   4.146  17.166  0.00  0.00    +0.000 C 
BRANCH  11  12
ATOM     12  C   UNL     1       4.818   5.019  16.134  0.00  0.00    +0.000 C 
BRANCH  12  13
ATOM     13  C   UNL     1       6.148   4.412  15.675  0.00  0.00    +0.000 C 
BRANCH  13  14
ATOM     14  C   UNL     1       7.304   4.920  16.504  0.00  0.00    +0.000 C 
ATOM     15  O   UNL     1       8.012   4.231  17.227  0.00  0.00    +0.000 OA
BRANCH  14  17
ATOM     16  C   UNL     1       7.565   6.981  17.572  0.00  0.00    +0.000 C 
ATOM     17  O   UNL     1       7.428   6.268  16.342  0.00  0.00    +0.000 OA
ENDBRANCH  14  17
ENDBRANCH  13  14
ENDBRANCH  12  13
ENDBRANCH  11  12
ENDBRANCH   7  11
ENDBRANCH   1   9
BRANCH   5  18
ATOM     18  C   UNL     1       0.876  10.224  18.693  0.00  0.00    +0.000 C 
BRANCH  18  19
ATOM     19  O   UNL     1      -0.046   9.865  17.665  0.00  0.00    +0.000 OA
BRANCH  19  20
ATOM     20  C   UNL     1      -1.319  10.350  17.767  0.00  0.00    +0.000 A 
ATOM     21  C   UNL     1      -2.242   9.740  16.915  0.00  0.00    +0.000 A 
ATOM     22  C   UNL     1      -3.588  10.130  16.905  0.00  0.00    +0.000 A 
ATOM     23  C   UNL     1      -4.034  11.155  17.750  0.00  0.00    +0.000 A 
ATOM     24  C   UNL     1      -3.092  11.765  18.599  0.00  0.00    +0.000 A 
ATOM     25  C   UNL     1      -1.750  11.367  18.611  0.00  0.00    +0.000 A 
BRANCH  23  26
ATOM     26  C   UNL     1      -5.459  11.611  17.784  0.00  0.00    +0.000 C 
ATOM     27  C   UNL     1      -6.545  10.792  18.435  0.00  0.00    +0.000 C 
ATOM     28  O   UNL     1      -5.737  12.700  17.272  0.00  0.00    +0.000 OA
ENDBRANCH  23  26
BRANCH  24  29
ATOM     29  O   UNL     1      -3.408  12.781  19.465  0.00  0.00    +0.000 OA
ATOM     30  H   UNL     1      -2.714  13.476  19.383  0.00  0.00    +0.000 HD
ENDBRANCH  24  29
ENDBRANCH  19  20
ENDBRANCH  18  19
ENDBRANCH   5  18
TORSDOF 11
ENDMDL
MODEL 3
REMARK VINA RESULT:      -7.4      2.613      3.914
REMARK  Name = 
REMARK  13 active torsions:
REMARK  status: ('A' for Active; 'I' for Inactive)
REMARK    1  A    between atoms: C_1  and  O_2
REMARK    2  A    between atoms: O_2  and  C_3
REMARK    3  A    between atoms: C_3  and  C_5
REMARK    4  A    between atoms: C_5  and  C_6
REMARK    5  A    between atoms: C_6  and  C_7
REMARK    6  A    between atoms: C_7  and  C_8
REMARK    7  A    between atoms: N_10  and  C_11
REMARK    8  A    between atoms: C_15  and  C_16
REMARK    9  A    between atoms: C_16  and  O_17
REMARK   10  A    between atoms: O_17  and  C_18
REMARK   11  A    between atoms: C_21  and  C_22
REMARK   12  A    between atoms: C_22  and  C_23
REMARK   13  A    between atoms: C_25  and  O_26
REMARK                            x       y       z     vdW  Elec       q    Type
REMARK                         _______ _______ _______ _____ _____    ______ ____
ROOT
ATOM      1  C   UNL     1       3.918   5.213  18.665  0.00  0.00    +0.000 A 
ATOM      2  C   UNL     1       3.393   4.145  19.396  0.00  0.00    +0.000 A 
ATOM      3  C   UNL     1       2.362   4.343  20.312  0.00  0.00    +0.000 A 
ATOM      4  C   UNL     1       1.847   5.619  20.517  0.00  0.00    +0.000 A 
ATOM      5  C   UNL     1       2.378   6.715  19.825  0.00  0.00    +0.000 A 
ATOM      6  C   UNL     1       3.421   6.502  18.902  0.00  0.00    +0.000 A 
ENDROOT
BRANCH   1   9
ATOM      7  C   UNL     1       6.243   4.719  17.932  0.00  0.00    +0.000 C 
ATOM      8  O   UNL     1       6.745   4.541  19.038  0.00  0.00    +0.000 OA
ATOM      9  N   UNL     1       4.920   5.046  17.680  0.00  0.00    +0.000 N 
ATOM     10  H   UNL     1       4.607   5.030  16.717  0.00  0.00    +0.000 HD
BRANCH   7  11
ATOM     11  C   UNL     1       7.083   4.567  16.677  0.00  0.00    +0.000 C 
BRANCH  11  12
ATOM     12  C   UNL     1       6.315   5.034  15.437  0.00  0.00    +0.000 C 
BRANCH  12  13
ATOM     13  C   UNL     1       6.320   3.991  14.315  0.00  0.00    +0.000 C 
BRANCH  13  14
ATOM     14  C   UNL     1       7.076   4.485  13.104  0.00  0.00    +0.000 C 
ATOM     15  O   UNL     1       7.818   5.458  13.082  0.00  0.00    +0.000 OA
BRANCH  14  17
ATOM     16  C   UNL     1       5.464   3.169  12.044  0.00  0.00    +0.000 C 
ATOM     17  O   UNL     1       6.792   3.693  12.031  0.00  0.00    +0.000 OA
ENDBRANCH  14  17
ENDBRANCH  13  14
ENDBRANCH  12  13
ENDBRANCH  11  12
ENDBRANCH   7  11
ENDBRANCH   1   9
BRANCH   5  18
ATOM     18  C   UNL     1       1.781   8.088  20.025  0.00  0.00    +0.000 C 
BRANCH  18  19
ATOM     19  O   UNL     1       0.838   8.002  21.092  0.00  0.00    +0.000 OA
BRANCH  19  20
ATOM     20  C   UNL     1       0.200   9.153  21.460  0.00  0.00    +0.000 A 
ATOM     21  C   UNL     1      -0.226   9.181  22.790  0.00  0.00    +0.000 A 
ATOM     22  C   UNL     1      -0.895  10.295  23.314  0.00  0.00    +0.000 A 
ATOM     23  C   UNL     1      -1.161  11.407  22.504  0.00  0.00    +0.000 A 
ATOM     24  C   UNL     1      -0.731  11.362  21.164  0.00  0.00    +0.000 A 
ATOM     25  C   UNL     1      -0.056  10.251  20.647  0.00  0.00    +0.000 A 
BRANCH  23  26
ATOM     26  C   UNL     1      -1.870  12.624  23.009  0.00  0.00    +0.000 C 
ATOM     27  C   UNL     1      -3.279  12.563  23.543  0.00  0.00    +0.000 C 
ATOM     28  O   UNL     1      -1.265  13.701  22.997  0.00  0.00    +0.000 OA
ENDBRANCH  23  26
BRANCH  24  29
ATOM     29  O   UNL     1      -0.939  12.386  20.275  0.00  0.00    +0.000 OA
ATOM     30  H   UNL     1      -1.902  12.416  20.066  0.00  0.00    +0.000 HD
ENDBRANCH  24  29
ENDBRANCH  19  20
ENDBRANCH  18  19
ENDBRANCH   5  18
TORSDOF 11
ENDMDL
MODEL 4
REMARK VINA RESULT:      -7.3      1.827      2.350
REMARK  Name = 
REMARK  13 active torsions:
REMARK  status: ('A' for Active; 'I' for Inactive)
REMARK    1  A    between atoms: C_1  and  O_2
REMARK    2  A    between atoms: O_2  and  C_3
REMARK    3  A    between atoms: C_3  and  C_5
REMARK    4  A    between atoms: C_5  and  C_6
REMARK    5  A    between atoms: C_6  and  C_7
REMARK    6  A    between atoms: C_7  and  C_8
REMARK    7  A    between atoms: N_10  and  C_11
REMARK    8  A    between atoms: C_15  and  C_16
REMARK    9  A    between atoms: C_16  and  O_17
REMARK   10  A    between atoms: O_17  and  C_18
REMARK   11  A    between atoms: C_21  and  C_22
REMARK   12  A    between atoms: C_22  and  C_23
REMARK   13  A    between atoms: C_25  and  O_26
REMARK                            x       y       z     vdW  Elec       q    Type
REMARK                         _______ _______ _______ _____ _____    ______ ____
ROOT
ATOM      1  C   UNL     1       2.941   3.857  17.996  0.00  0.00    +0.000 A 
ATOM      2  C   UNL     1       2.135   2.721  18.087  0.00  0.00    +0.000 A 
ATOM      3  C   UNL     1       1.134   2.629  19.052  0.00  0.00    +0.000 A 
ATOM      4  C   UNL     1       0.931   3.675  19.947  0.00  0.00    +0.000 A 
ATOM      5  C   UNL     1       1.747   4.812  19.902  0.00  0.00    +0.000 A 
ATOM      6  C   UNL     1       2.757   4.892  18.923  0.00  0.00    +0.000 A 
ENDROOT
BRANCH   1   9
ATOM      7  C   UNL     1       5.295   4.008  17.206  0.00  0.00    +0.000 C 
ATOM      8  O   UNL     1       5.855   3.875  18.290  0.00  0.00    +0.000 OA
ATOM      9  N   UNL     1       3.926   4.017  16.992  0.00  0.00    +0.000 N 
ATOM     10  H   UNL     1       3.599   3.998  16.033  0.00  0.00    +0.000 HD
BRANCH   7  11
ATOM     11  C   UNL     1       6.112   4.163  15.936  0.00  0.00    +0.000 C 
BRANCH  11  12
ATOM     12  C   UNL     1       6.607   5.603  15.769  0.00  0.00    +0.000 C 
BRANCH  12  13
ATOM     13  C   UNL     1       6.223   6.497  16.952  0.00  0.00    +0.000 C 
BRANCH  13  14
ATOM     14  C   UNL     1       7.443   6.978  17.702  0.00  0.00    +0.000 C 
ATOM     15  O   UNL     1       7.921   6.440  18.692  0.00  0.00    +0.000 OA
BRANCH  14  17
ATOM     16  C   UNL     1       8.221   9.151  18.055  0.00  0.00    +0.000 C 
ATOM     17  O   UNL     1       7.920   8.115  17.121  0.00  0.00    +0.000 OA
ENDBRANCH  14  17
ENDBRANCH  13  14
ENDBRANCH  12  13
ENDBRANCH  11  12
ENDBRANCH   7  11
ENDBRANCH   1   9
BRANCH   5  18
ATOM     18  C   UNL     1       1.488   5.958  20.852  0.00  0.00    +0.000 C 
BRANCH  18  19
ATOM     19  O   UNL     1       1.856   7.166  20.188  0.00  0.00    +0.000 OA
BRANCH  19  20
ATOM     20  C   UNL     1       1.319   8.330  20.660  0.00  0.00    +0.000 A 
ATOM     21  C   UNL     1       1.126   9.316  19.690  0.00  0.00    +0.000 A 
ATOM     22  C   UNL     1       0.583  10.564  20.021  0.00  0.00    +0.000 A 
ATOM     23  C   UNL     1       0.228  10.852  21.346  0.00  0.00    +0.000 A 
ATOM     24  C   UNL     1       0.433   9.852  22.314  0.00  0.00    +0.000 A 
ATOM     25  C   UNL     1       0.969   8.604  21.978  0.00  0.00    +0.000 A 
BRANCH  23  26
ATOM     26  C   UNL     1      -0.357  12.166  21.757  0.00  0.00    +0.000 C 
ATOM     27  C   UNL     1      -1.832  12.335  22.026  0.00  0.00    +0.000 C 
ATOM     28  O   UNL     1       0.404  13.129  21.893  0.00  0.00    +0.000 OA
ENDBRANCH  23  26
BRANCH  24  29
ATOM     29  O   UNL     1       0.131  10.019  23.642  0.00  0.00    +0.000 OA
ATOM     30  H   UNL     1       0.754   9.464  24.167  0.00  0.00    +0.000 HD
ENDBRANCH  24  29
ENDBRANCH  19  20
ENDBRANCH  18  19
ENDBRANCH   5  18
TORSDOF 11
ENDMDL
MODEL 5
REMARK VINA RESULT:      -7.3      3.868      7.206
REMARK  Name = 
REMARK  13 active torsions:
REMARK  status: ('A' for Active; 'I' for Inactive)
REMARK    1  A    between atoms: C_1  and  O_2
REMARK    2  A    between atoms: O_2  and  C_3
REMARK    3  A    between atoms: C_3  and  C_5
REMARK    4  A    between atoms: C_5  and  C_6
REMARK    5  A    between atoms: C_6  and  C_7
REMARK    6  A    between atoms: C_7  and  C_8
REMARK    7  A    between atoms: N_10  and  C_11
REMARK    8  A    between atoms: C_15  and  C_16
REMARK    9  A    between atoms: C_16  and  O_17
REMARK   10  A    between atoms: O_17  and  C_18
REMARK   11  A    between atoms: C_21  and  C_22
REMARK   12  A    between atoms: C_22  and  C_23
REMARK   13  A    between atoms: C_25  and  O_26
REMARK                            x       y       z     vdW  Elec       q    Type
REMARK                         _______ _______ _______ _____ _____    ______ ____
ROOT
ATOM      1  C   UNL     1       4.589   5.309  18.256  0.00  0.00    +0.000 A 
ATOM      2  C   UNL     1       4.558   4.609  17.049  0.00  0.00    +0.000 A 
ATOM      3  C   UNL     1       5.561   4.777  16.096  0.00  0.00    +0.000 A 
ATOM      4  C   UNL     1       6.609   5.658  16.337  0.00  0.00    +0.000 A 
ATOM      5  C   UNL     1       6.650   6.401  17.524  0.00  0.00    +0.000 A 
ATOM      6  C   UNL     1       5.629   6.223  18.479  0.00  0.00    +0.000 A 
ENDROOT
BRANCH   1   9
ATOM      7  C   UNL     1       2.633   6.026  19.614  0.00  0.00    +0.000 C 
ATOM      8  O   UNL     1       2.448   7.123  19.095  0.00  0.00    +0.000 OA
ATOM      9  N   UNL     1       3.626   5.121  19.275  0.00  0.00    +0.000 N 
ATOM     10  H   UNL     1       3.582   4.197  19.688  0.00  0.00    +0.000 HD
BRANCH   7  11
ATOM     11  C   UNL     1       1.716   5.539  20.722  0.00  0.00    +0.000 C 
BRANCH  11  12
ATOM     12  C   UNL     1       0.962   4.275  20.300  0.00  0.00    +0.000 C 
BRANCH  12  13
ATOM     13  C   UNL     1       1.395   3.039  21.097  0.00  0.00    +0.000 C 
BRANCH  13  14
ATOM     14  C   UNL     1       2.673   2.448  20.551  0.00  0.00    +0.000 C 
ATOM     15  O   UNL     1       3.715   2.314  21.179  0.00  0.00    +0.000 OA
BRANCH  14  17
ATOM     16  C   UNL     1       3.632   1.457  18.666  0.00  0.00    +0.000 C 
ATOM     17  O   UNL     1       2.498   2.103  19.244  0.00  0.00    +0.000 OA
ENDBRANCH  14  17
ENDBRANCH  13  14
ENDBRANCH  12  13
ENDBRANCH  11  12
ENDBRANCH   7  11
ENDBRANCH   1   9
BRANCH   5  18
ATOM     18  C   UNL     1       7.817   7.322  17.792  0.00  0.00    +0.000 C 
BRANCH  18  19
ATOM     19  O   UNL     1       7.449   8.630  17.355  0.00  0.00    +0.000 OA
BRANCH  19  20
ATOM     20  C   UNL     1       8.157   9.683  17.862  0.00  0.00    +0.000 A 
ATOM     21  C   UNL     1       8.919   9.380  18.992  0.00  0.00    +0.000 A 
ATOM     22  C   UNL     1       9.700  10.357  19.623  0.00  0.00    +0.000 A 
ATOM     23  C   UNL     1       9.723  11.670  19.134  0.00  0.00    +0.000 A 
ATOM     24  C   UNL     1       8.945  11.963  17.998  0.00  0.00    +0.000 A 
ATOM     25  C   UNL     1       8.173  10.982  17.366  0.00  0.00    +0.000 A 
BRANCH  23  26
ATOM     26  C   UNL     1      10.539  12.754  19.767  0.00  0.00    +0.000 C 
ATOM     27  C   UNL     1      12.047  12.733  19.747  0.00  0.00    +0.000 C 
ATOM     28  O   UNL     1       9.946  13.694  20.304  0.00  0.00    +0.000 OA
ENDBRANCH  23  26
BRANCH  24  29
ATOM     29  O   UNL     1       8.882  13.211  17.433  0.00  0.00    +0.000 OA
ATOM     30  H   UNL     1       8.490  13.825  18.096  0.00  0.00    +0.000 HD
ENDBRANCH  24  29
ENDBRANCH  19  20
ENDBRANCH  18  19
ENDBRANCH   5  18
TORSDOF 11
ENDMDL
MODEL 6
REMARK VINA RESULT:      -7.2      2.853      5.405
REMARK  Name = 
REMARK  13 active torsions:
REMARK  status: ('A' for Active; 'I' for Inactive)
REMARK    1  A    between atoms: C_1  and  O_2
REMARK    2  A    between atoms: O_2  and  C_3
REMARK    3  A    between atoms: C_3  and  C_5
REMARK    4  A    between atoms: C_5  and  C_6
REMARK    5  A    between atoms: C_6  and  C_7
REMARK    6  A    between atoms: C_7  and  C_8
REMARK    7  A    between atoms: N_10  and  C_11
REMARK    8  A    between atoms: C_15  and  C_16
REMARK    9  A    between atoms: C_16  and  O_17
REMARK   10  A    between atoms: O_17  and  C_18
REMARK   11  A    between atoms: C_21  and  C_22
REMARK   12  A    between atoms: C_22  and  C_23
REMARK   13  A    between atoms: C_25  and  O_26
REMARK                            x       y       z     vdW  Elec       q    Type
REMARK                         _______ _______ _______ _____ _____    ______ ____
ROOT
ATOM      1  C   UNL     1       2.532   6.833  18.688  0.00  0.00    +0.000 A 
ATOM      2  C   UNL     1       2.551   7.744  17.630  0.00  0.00    +0.000 A 
ATOM      3  C   UNL     1       2.102   9.052  17.802  0.00  0.00    +0.000 A 
ATOM      4  C   UNL     1       1.618   9.465  19.039  0.00  0.00    +0.000 A 
ATOM      5  C   UNL     1       1.554   8.564  20.110  0.00  0.00    +0.000 A 
ATOM      6  C   UNL     1       2.010   7.244  19.923  0.00  0.00    +0.000 A 
ENDROOT
BRANCH   1   9
ATOM      7  C   UNL     1       4.263   5.085  19.052  0.00  0.00    +0.000 C 
ATOM      8  O   UNL     1       5.095   5.777  19.632  0.00  0.00    +0.000 OA
ATOM      9  N   UNL     1       3.037   5.516  18.573  0.00  0.00    +0.000 N 
ATOM     10  H   UNL     1       2.389   4.813  18.237  0.00  0.00    +0.000 HD
BRANCH   7  11
ATOM     11  C   UNL     1       4.523   3.607  18.820  0.00  0.00    +0.000 C 
BRANCH  11  12
ATOM     12  C   UNL     1       3.410   2.975  17.980  0.00  0.00    +0.000 C 
BRANCH  12  13
ATOM     13  C   UNL     1       2.597   1.940  18.764  0.00  0.00    +0.000 C 
BRANCH  13  14
ATOM     14  C   UNL     1       1.203   2.439  19.060  0.00  0.00    +0.000 C 
ATOM     15  O   UNL     1       0.187   2.090  18.473  0.00  0.00    +0.000 OA
BRANCH  14  17
ATOM     16  C   UNL     1       1.511   2.780  21.350  0.00  0.00    +0.000 C 
ATOM     17  O   UNL     1       1.248   3.354  20.069  0.00  0.00    +0.000 OA
ENDBRANCH  14  17
ENDBRANCH  13  14
ENDBRANCH  12  13
ENDBRANCH  11  12
ENDBRANCH   7  11
ENDBRANCH   1   9
BRANCH   5  18
ATOM     18  C   UNL     1       1.067   9.037  21.459  0.00  0.00    +0.000 C 
BRANCH  18  19
ATOM     19  O   UNL     1       1.059  10.464  21.444  0.00  0.00    +0.000 OA
BRANCH  19  20
ATOM     20  C   UNL     1      -0.147  11.087  21.595  0.00  0.00    +0.000 A 
ATOM     21  C   UNL     1      -0.746  10.899  22.843  0.00  0.00    +0.000 A 
ATOM     22  C   UNL     1      -1.985  11.476  23.148  0.00  0.00    +0.000 A 
ATOM     23  C   UNL     1      -2.659  12.252  22.195  0.00  0.00    +0.000 A 
ATOM     24  C   UNL     1      -2.047  12.428  20.939  0.00  0.00    +0.000 A 
ATOM     25  C   UNL     1      -0.805  11.856  20.642  0.00  0.00    +0.000 A 
BRANCH  23  26
ATOM     26  C   UNL     1      -3.983  12.894  22.465  0.00  0.00    +0.000 C 
ATOM     27  C   UNL     1      -4.111  14.136  23.310  0.00  0.00    +0.000 C 
ATOM     28  O   UNL     1      -4.991  12.389  21.961  0.00  0.00    +0.000 OA
ENDBRANCH  23  26
BRANCH  24  29
ATOM     29  O   UNL     1      -2.612  13.160  19.925  0.00  0.00    +0.000 OA
ATOM     30  H   UNL     1      -2.747  12.558  19.157  0.00  0.00    +0.000 HD
ENDBRANCH  24  29
ENDBRANCH  19  20
ENDBRANCH  18  19
ENDBRANCH   5  18
TORSDOF 11
ENDMDL
MODEL 7
REMARK VINA RESULT:      -7.2      2.770      5.203
REMARK  Name = 
REMARK  13 active torsions:
REMARK  status: ('A' for Active; 'I' for Inactive)
REMARK    1  A    between atoms: C_1  and  O_2
REMARK    2  A    between atoms: O_2  and  C_3
REMARK    3  A    between atoms: C_3  and  C_5
REMARK    4  A    between atoms: C_5  and  C_6
REMARK    5  A    between atoms: C_6  and  C_7
REMARK    6  A    between atoms: C_7  and  C_8
REMARK    7  A    between atoms: N_10  and  C_11
REMARK    8  A    between atoms: C_15  and  C_16
REMARK    9  A    between atoms: C_16  and  O_17
REMARK   10  A    between atoms: O_17  and  C_18
REMARK   11  A    between atoms: C_21  and  C_22
REMARK   12  A    between atoms: C_22  and  C_23
REMARK   13  A    between atoms: C_25  and  O_26
REMARK                            x       y       z     vdW  Elec       q    Type
REMARK                         _______ _______ _______ _____ _____    ______ ____
ROOT
ATOM      1  C   UNL     1       2.247   6.803  19.089  0.00  0.00    +0.000 A 
ATOM      2  C   UNL     1       2.054   6.708  20.469  0.00  0.00    +0.000 A 
ATOM      3  C   UNL     1       1.492   7.761  21.188  0.00  0.00    +0.000 A 
ATOM      4  C   UNL     1       1.121   8.931  20.534  0.00  0.00    +0.000 A 
ATOM      5  C   UNL     1       1.335   9.069  19.156  0.00  0.00    +0.000 A 
ATOM      6  C   UNL     1       1.905   7.998  18.441  0.00  0.00    +0.000 A 
ENDROOT
BRANCH   1   9
ATOM      7  C   UNL     1       4.018   5.690  17.743  0.00  0.00    +0.000 C 
ATOM      8  O   UNL     1       4.874   6.568  17.814  0.00  0.00    +0.000 OA
ATOM      9  N   UNL     1       2.756   5.735  18.313  0.00  0.00    +0.000 N 
ATOM     10  H   UNL     1       2.201   4.888  18.294  0.00  0.00    +0.000 HD
BRANCH   7  11
ATOM     11  C   UNL     1       4.305   4.400  16.996  0.00  0.00    +0.000 C 
BRANCH  11  12
ATOM     12  C   UNL     1       3.166   3.393  17.174  0.00  0.00    +0.000 C 
BRANCH  12  13
ATOM     13  C   UNL     1       3.599   2.146  17.951  0.00  0.00    +0.000 C 
BRANCH  13  14
ATOM     14  C   UNL     1       3.746   2.436  19.426  0.00  0.00    +0.000 C 
ATOM     15  O   UNL     1       4.750   2.220  20.092  0.00  0.00    +0.000 OA
BRANCH  14  17
ATOM     16  C   UNL     1       2.521   2.991  21.336  0.00  0.00    +0.000 C 
ATOM     17  O   UNL     1       2.583   2.956  19.910  0.00  0.00    +0.000 OA
ENDBRANCH  14  17
ENDBRANCH  13  14
ENDBRANCH  12  13
ENDBRANCH  11  12
ENDBRANCH   7  11
ENDBRANCH   1   9
BRANCH   5  18
ATOM     18  C   UNL     1       0.888  10.328  18.451  0.00  0.00    +0.000 C 
BRANCH  18  19
ATOM     19  O   UNL     1      -0.133   9.968  17.521  0.00  0.00    +0.000 OA
BRANCH  19  20
ATOM     20  C   UNL     1      -1.394  10.435  17.762  0.00  0.00    +0.000 A 
ATOM     21  C   UNL     1      -2.397   9.810  17.017  0.00  0.00    +0.000 A 
ATOM     22  C   UNL     1      -3.741  10.180  17.155  0.00  0.00    +0.000 A 
ATOM     23  C   UNL     1      -4.106  11.200  18.043  0.00  0.00    +0.000 A 
ATOM     24  C   UNL     1      -3.085  11.826  18.782  0.00  0.00    +0.000 A 
ATOM     25  C   UNL     1      -1.745  11.448  18.647  0.00  0.00    +0.000 A 
BRANCH  23  26
ATOM     26  C   UNL     1      -5.525  11.637  18.232  0.00  0.00    +0.000 C 
ATOM     27  C   UNL     1      -6.618  10.664  18.600  0.00  0.00    +0.000 C 
ATOM     28  O   UNL     1      -5.792  12.835  18.095  0.00  0.00    +0.000 OA
ENDBRANCH  23  26
BRANCH  24  29
ATOM     29  O   UNL     1      -3.319  12.840  19.676  0.00  0.00    +0.000 OA
ATOM     30  H   UNL     1      -2.584  12.842  20.332  0.00  0.00    +0.000 HD
ENDBRANCH  24  29
ENDBRANCH  19  20
ENDBRANCH  18  19
ENDBRANCH   5  18
TORSDOF 11
ENDMDL
MODEL 8
REMARK VINA RESULT:      -7.2      1.677      2.148
REMARK  Name = 
REMARK  13 active torsions:
REMARK  status: ('A' for Active; 'I' for Inactive)
REMARK    1  A    between atoms: C_1  and  O_2
REMARK    2  A    between atoms: O_2  and  C_3
REMARK    3  A    between atoms: C_3  and  C_5
REMARK    4  A    between atoms: C_5  and  C_6
REMARK    5  A    between atoms: C_6  and  C_7
REMARK    6  A    between atoms: C_7  and  C_8
REMARK    7  A    between atoms: N_10  and  C_11
REMARK    8  A    between atoms: C_15  and  C_16
REMARK    9  A    between atoms: C_16  and  O_17
REMARK   10  A    between atoms: O_17  and  C_18
REMARK   11  A    between atoms: C_21  and  C_22
REMARK   12  A    between atoms: C_22  and  C_23
REMARK   13  A    between atoms: C_25  and  O_26
REMARK                            x       y       z     vdW  Elec       q    Type
REMARK                         _______ _______ _______ _____ _____    ______ ____
ROOT
ATOM      1  C   UNL     1       4.252   3.640  19.115  0.00  0.00    +0.000 A 
ATOM      2  C   UNL     1       4.198   2.498  19.917  0.00  0.00    +0.000 A 
ATOM      3  C   UNL     1       3.320   2.420  20.996  0.00  0.00    +0.000 A 
ATOM      4  C   UNL     1       2.486   3.493  21.294  0.00  0.00    +0.000 A 
ATOM      5  C   UNL     1       2.542   4.665  20.529  0.00  0.00    +0.000 A 
ATOM      6  C   UNL     1       3.435   4.732  19.441  0.00  0.00    +0.000 A 
ENDROOT
BRANCH   1   9
ATOM      7  C   UNL     1       4.638   3.784  16.663  0.00  0.00    +0.000 C 
ATOM      8  O   UNL     1       3.467   3.739  16.295  0.00  0.00    +0.000 OA
ATOM      9  N   UNL     1       5.083   3.735  17.974  0.00  0.00    +0.000 N 
ATOM     10  H   UNL     1       6.064   3.918  18.145  0.00  0.00    +0.000 HD
BRANCH   7  11
ATOM     11  C   UNL     1       5.755   3.925  15.644  0.00  0.00    +0.000 C 
BRANCH  11  12
ATOM     12  C   UNL     1       7.014   4.519  16.283  0.00  0.00    +0.000 C 
BRANCH  12  13
ATOM     13  C   UNL     1       6.941   6.043  16.419  0.00  0.00    +0.000 C 
BRANCH  13  14
ATOM     14  C   UNL     1       7.589   6.516  17.699  0.00  0.00    +0.000 C 
ATOM     15  O   UNL     1       7.847   7.682  17.972  0.00  0.00    +0.000 OA
BRANCH  14  17
ATOM     16  C   UNL     1       7.520   5.654  19.868  0.00  0.00    +0.000 C 
ATOM     17  O   UNL     1       7.863   5.447  18.498  0.00  0.00    +0.000 OA
ENDBRANCH  14  17
ENDBRANCH  13  14
ENDBRANCH  12  13
ENDBRANCH  11  12
ENDBRANCH   7  11
ENDBRANCH   1   9
BRANCH   5  18
ATOM     18  C   UNL     1       1.600   5.806  20.836  0.00  0.00    +0.000 C 
BRANCH  18  19
ATOM     19  O   UNL     1       2.040   6.945  20.098  0.00  0.00    +0.000 OA
BRANCH  19  20
ATOM     20  C   UNL     1       1.522   8.159  20.450  0.00  0.00    +0.000 A 
ATOM     21  C   UNL     1       1.387   9.062  19.393  0.00  0.00    +0.000 A 
ATOM     22  C   UNL     1       0.869  10.347  19.598  0.00  0.00    +0.000 A 
ATOM     23  C   UNL     1       0.483  10.758  20.880  0.00  0.00    +0.000 A 
ATOM     24  C   UNL     1       0.630   9.841  21.938  0.00  0.00    +0.000 A 
ATOM     25  C   UNL     1       1.140   8.555  21.727  0.00  0.00    +0.000 A 
BRANCH  23  26
ATOM     26  C   UNL     1      -0.077  12.118  21.158  0.00  0.00    +0.000 C 
ATOM     27  C   UNL     1      -1.501  12.480  20.817  0.00  0.00    +0.000 C 
ATOM     28  O   UNL     1       0.655  12.953  21.698  0.00  0.00    +0.000 OA
ENDBRANCH  23  26
BRANCH  24  29
ATOM     29  O   UNL     1       0.292  10.130  23.235  0.00  0.00    +0.000 OA
ATOM     30  H   UNL     1      -0.649  10.423  23.246  0.00  0.00    +0.000 HD
ENDBRANCH  24  29
ENDBRANCH  19  20
ENDBRANCH  18  19
ENDBRANCH   5  18
TORSDOF 11
ENDMDL
MODEL 9
REMARK VINA RESULT:      -7.2      2.925      5.049
REMARK  Name = 
REMARK  13 active torsions:
REMARK  status: ('A' for Active; 'I' for Inactive)
REMARK    1  A    between atoms: C_1  and  O_2
REMARK    2  A    between atoms: O_2  and  C_3
REMARK    3  A    between atoms: C_3  and  C_5
REMARK    4  A    between atoms: C_5  and  C_6
REMARK    5  A    between atoms: C_6  and  C_7
REMARK    6  A    between atoms: C_7  and  C_8
REMARK    7  A    between atoms: N_10  and  C_11
REMARK    8  A    between atoms: C_15  and  C_16
REMARK    9  A    between atoms: C_16  and  O_17
REMARK   10  A    between atoms: O_17  and  C_18
REMARK   11  A    between atoms: C_21  and  C_22
REMARK   12  A    between atoms: C_22  and  C_23
REMARK   13  A    between atoms: C_25  and  O_26
REMARK                            x       y       z     vdW  Elec       q    Type
REMARK                         _______ _______ _______ _____ _____    ______ ____
ROOT
ATOM      1  C   UNL     1       2.542   7.474  18.792  0.00  0.00    +0.000 A 
ATOM      2  C   UNL     1       2.341   8.354  17.727  0.00  0.00    +0.000 A 
ATOM      3  C   UNL     1       1.592   9.517  17.891  0.00  0.00    +0.000 A 
ATOM      4  C   UNL     1       1.026   9.813  19.127  0.00  0.00    +0.000 A 
ATOM      5  C   UNL     1       1.181   8.932  20.205  0.00  0.00    +0.000 A 
ATOM      6  C   UNL     1       1.939   7.758  20.026  0.00  0.00    +0.000 A 
ENDROOT
BRANCH   1   9
ATOM      7  C   UNL     1       2.946   5.111  18.129  0.00  0.00    +0.000 C 
ATOM      8  O   UNL     1       1.837   4.865  17.662  0.00  0.00    +0.000 OA
ATOM      9  N   UNL     1       3.347   6.315  18.685  0.00  0.00    +0.000 N 
ATOM     10  H   UNL     1       4.329   6.426  18.909  0.00  0.00    +0.000 HD
BRANCH   7  11
ATOM     11  C   UNL     1       4.034   4.053  18.114  0.00  0.00    +0.000 C 
BRANCH  11  12
ATOM     12  C   UNL     1       4.572   3.834  16.697  0.00  0.00    +0.000 C 
BRANCH  12  13
ATOM     13  C   UNL     1       5.201   5.099  16.104  0.00  0.00    +0.000 C 
BRANCH  13  14
ATOM     14  C   UNL     1       6.445   4.779  15.310  0.00  0.00    +0.000 C 
ATOM     15  O   UNL     1       7.463   5.459  15.285  0.00  0.00    +0.000 OA
BRANCH  14  17
ATOM     16  C   UNL     1       6.281   3.810  13.191  0.00  0.00    +0.000 C 
ATOM     17  O   UNL     1       6.257   3.626  14.607  0.00  0.00    +0.000 OA
ENDBRANCH  14  17
ENDBRANCH  13  14
ENDBRANCH  12  13
ENDBRANCH  11  12
ENDBRANCH   7  11
ENDBRANCH   1   9
BRANCH   5  18
ATOM     18  C   UNL     1       0.598   9.286  21.552  0.00  0.00    +0.000 C 
BRANCH  18  19
ATOM     19  O   UNL     1       0.604  10.708  21.669  0.00  0.00    +0.000 OA
BRANCH  19  20
ATOM     20  C   UNL     1      -0.605  11.334  21.783  0.00  0.00    +0.000 A 
ATOM     21  C   UNL     1      -1.200  11.224  23.041  0.00  0.00    +0.000 A 
ATOM     22  C   UNL     1      -2.442  11.814  23.311  0.00  0.00    +0.000 A 
ATOM     23  C   UNL     1      -3.120  12.524  22.311  0.00  0.00    +0.000 A 
ATOM     24  C   UNL     1      -2.512  12.622  21.046  0.00  0.00    +0.000 A 
ATOM     25  C   UNL     1      -1.268  12.037  20.783  0.00  0.00    +0.000 A 
BRANCH  23  26
ATOM     26  C   UNL     1      -4.447  13.176  22.542  0.00  0.00    +0.000 C 
ATOM     27  C   UNL     1      -4.570  14.640  22.884  0.00  0.00    +0.000 C 
ATOM     28  O   UNL     1      -5.466  12.486  22.431  0.00  0.00    +0.000 OA
ENDBRANCH  23  26
BRANCH  24  29
ATOM     29  O   UNL     1      -3.082  13.284  19.988  0.00  0.00    +0.000 OA
ATOM     30  H   UNL     1      -3.758  12.690  19.587  0.00  0.00    +0.000 HD
ENDBRANCH  24  29
ENDBRANCH  19  20
ENDBRANCH  18  19
ENDBRANCH   5  18
TORSDOF 11
ENDMDL
