MODEL 1
REMARK VINA RESULT:      -7.7      0.000      0.000
REMARK  Name = 
REMARK  13 active torsions:
REMARK  status: ('A' for Active; 'I' for Inactive)
REMARK    1  A    between atoms: C_1  and  O_2
REMARK    2  A    between atoms: O_2  and  C_3
REMARK    3  A    between atoms: C_3  and  C_5
REMARK    4  A    between atoms: C_5  and  C_6
REMARK    5  A    between atoms: C_5  and  N_13
REMARK    6  A    between atoms: C_6  and  C_7
REMARK    7  A    between atoms: C_14  and  C_16
REMARK    8  A    between atoms: C_16  and  C_17
REMARK    9  A    between atoms: C_16  and  N_22
REMARK   10  A    between atoms: C_17  and  C_18
REMARK   11  A    between atoms: C_18  and  C_19
REMARK   12  A    between atoms: C_19  and  O_21
REMARK   13  A    between atoms: C_23  and  C_25
REMARK                            x       y       z     vdW  Elec       q    Type
REMARK                         _______ _______ _______ _____ _____    ______ ____
ROOT
ATOM      1  N   UNL     1       4.417   5.073  17.189  0.00  0.00    +0.000 N 
ATOM      2  C   UNL     1       5.082   5.928  16.344  0.00  0.00    +0.000 C 
ATOM      3  O   UNL     1       4.664   7.048  16.060  0.00  0.00    +0.000 OA
ATOM      4  H   UNL     1       4.834   4.183  17.453  0.00  0.00    +0.000 HD
ENDROOT
BRANCH   1   5
ATOM      5  C   UNL     1       3.102   5.381  17.771  0.00  0.00    +0.000 C 
BRANCH   5   6
ATOM      6  C   UNL     1       2.320   4.075  17.970  0.00  0.00    +0.000 C 
ATOM      7  O   UNL     1       1.810   3.442  17.050  0.00  0.00    +0.000 OA
BRANCH   6   9
ATOM      8  C   UNL     1       0.990   3.270  19.725  0.00  0.00    +0.000 C 
ATOM      9  O   UNL     1       2.274   3.713  19.281  0.00  0.00    +0.000 OA
ENDBRANCH   6   9
ENDBRANCH   5   6
BRANCH   5  10
ATOM     10  C   UNL     1       3.173   6.224  19.063  0.00  0.00    +0.000 C 
BRANCH  10  11
ATOM     11  C   UNL     1       2.328   7.483  19.139  0.00  0.00    +0.000 A 
ATOM     12  C   UNL     1       2.099   8.207  17.955  0.00  0.00    +0.000 A 
ATOM     13  C   UNL     1       1.333   9.373  17.967  0.00  0.00    +0.000 A 
ATOM     14  C   UNL     1       0.773   9.829  19.153  0.00  0.00    +0.000 A 
ATOM     15  C   UNL     1       0.958   9.104  20.328  0.00  0.00    +0.000 A 
ATOM     16  C   UNL     1       1.718   7.933  20.314  0.00  0.00    +0.000 A 
ENDBRANCH  10  11
ENDBRANCH   5  10
ENDBRANCH   1   5
BRANCH   2  17
ATOM     17  C   UNL     1       6.436   5.411  15.819  0.00  0.00    +0.000 C 
BRANCH  17  18
ATOM     18  N   UNL     1       6.164   4.487  14.721  0.00  0.00    +0.000 N 
ATOM     19  C   UNL     1       6.787   4.594  13.485  0.00  0.00    +0.000 C 
ATOM     20  O   UNL     1       7.658   5.442  13.281  0.00  0.00    +0.000 OA
ATOM     21  H   UNL     1       5.357   3.872  14.814  0.00  0.00    +0.000 HD
BRANCH  19  22
ATOM     22  C   UNL     1       6.356   3.545  12.432  0.00  0.00    +0.000 C 
ATOM     23  F   UNL     1       7.369   3.244  11.568  0.00  0.00    +0.000 F 
ATOM     24  F   UNL     1       5.958   2.370  12.987  0.00  0.00    +0.000 F 
ATOM     25  F   UNL     1       5.324   3.989  11.664  0.00  0.00    +0.000 F 
ENDBRANCH  19  22
ENDBRANCH  17  18
BRANCH  17  26
ATOM     26  C   UNL     1       7.175   4.696  16.956  0.00  0.00    +0.000 C 
BRANCH  26  27
ATOM     27  C   UNL     1       7.644   5.660  18.048  0.00  0.00    +0.000 C 
BRANCH  27  28
ATOM     28  C   UNL     1       7.236   5.182  19.422  0.00  0.00    +0.000 C 
ATOM     29  O   UNL     1       7.822   5.441  20.459  0.00  0.00    +0.000 OA
BRANCH  28  30
ATOM     30  O   UNL     1       6.123   4.414  19.390  0.00  0.00    +0.000 OA
ATOM     31  H   UNL     1       6.122   3.743  18.680  0.00  0.00    +0.000 HD
ENDBRANCH  28  30
ENDBRANCH  27  28
ENDBRANCH  26  27
ENDBRANCH  17  26
ENDBRANCH   2  17
TORSDOF 12
ENDMDL
MODEL 2
REMARK VINA RESULT:      -7.6      0.780      1.163
REMARK  Name = 
REMARK  13 active torsions:
REMARK  status: ('A' for Active; 'I' for Inactive)
REMARK    1  A    between atoms: C_1  and  O_2
REMARK    2  A    between atoms: O_2  and  C_3
REMARK    3  A    between atoms: C_3  and  C_5
REMARK    4  A    between atoms: C_5  and  C_6
REMARK    5  A    between atoms: C_5  and  N_13
REMARK    6  A    between atoms: C_6  and  C_7
REMARK    7  A    between atoms: C_14  and  C_16
REMARK    8  A    between atoms: C_16  and  C_17
REMARK    9  A    between atoms: C_16  and  N_22
REMARK   10  A    between atoms: C_17  and  C_18
REMARK   11  A    between atoms: C_18  and  C_19
REMARK   12  A    between atoms: C_19  and  O_21
REMARK   13  A    between atoms: C_23  and  C_25
REMARK                            x       y       z     vdW  Elec       q    Type
REMARK                         _______ _______ _______ _____ _____    ______ ____
ROOT
ATOM      1  N   UNL     1       4.037   5.128  17.557  0.00  0.00    +0.000 N 
ATOM      2  C   UNL     1       4.850   5.906  16.770  0.00  0.00    +0.000 C 
ATOM      3  O   UNL     1       4.575   7.063  16.461  0.00  0.00    +0.000 OA
ATOM      4  H   UNL     1       4.338   4.200  17.847  0.00  0.00    +0.000 HD
ENDROOT
BRANCH   1   5
ATOM      5  C   UNL     1       2.721   5.574  18.040  0.00  0.00    +0.000 C 
BRANCH   5   6
ATOM      6  C   UNL     1       1.784   4.362  18.140  0.00  0.00    +0.000 C 
ATOM      7  O   UNL     1       0.943   4.082  17.290  0.00  0.00    +0.000 OA
BRANCH   6   9
ATOM      8  C   UNL     1       0.823   3.211  19.943  0.00  0.00    +0.000 C 
ATOM      9  O   UNL     1       2.009   3.646  19.275  0.00  0.00    +0.000 OA
ENDBRANCH   6   9
ENDBRANCH   5   6
BRANCH   5  10
ATOM     10  C   UNL     1       2.779   6.379  19.356  0.00  0.00    +0.000 C 
BRANCH  10  11
ATOM     11  C   UNL     1       2.076   7.724  19.399  0.00  0.00    +0.000 A 
ATOM     12  C   UNL     1       2.027   8.491  18.221  0.00  0.00    +0.000 A 
ATOM     13  C   UNL     1       1.396   9.736  18.204  0.00  0.00    +0.000 A 
ATOM     14  C   UNL     1       0.794  10.230  19.354  0.00  0.00    +0.000 A 
ATOM     15  C   UNL     1       0.800   9.467  20.520  0.00  0.00    +0.000 A 
ATOM     16  C   UNL     1       1.425   8.218  20.534  0.00  0.00    +0.000 A 
ENDBRANCH  10  11
ENDBRANCH   5  10
ENDBRANCH   1   5
BRANCH   2  17
ATOM     17  C   UNL     1       6.178   5.248  16.346  0.00  0.00    +0.000 C 
BRANCH  17  18
ATOM     18  N   UNL     1       5.941   4.534  15.095  0.00  0.00    +0.000 N 
ATOM     19  C   UNL     1       6.756   4.688  13.981  0.00  0.00    +0.000 C 
ATOM     20  O   UNL     1       7.767   5.392  14.024  0.00  0.00    +0.000 OA
ATOM     21  H   UNL     1       5.045   4.060  14.986  0.00  0.00    +0.000 HD
BRANCH  19  22
ATOM     22  C   UNL     1       6.338   3.873  12.735  0.00  0.00    +0.000 C 
ATOM     23  F   UNL     1       4.998   3.972  12.487  0.00  0.00    +0.000 F 
ATOM     24  F   UNL     1       6.972   4.272  11.601  0.00  0.00    +0.000 F 
ATOM     25  F   UNL     1       6.596   2.544  12.885  0.00  0.00    +0.000 F 
ENDBRANCH  19  22
ENDBRANCH  17  18
BRANCH  17  26
ATOM     26  C   UNL     1       6.631   4.280  17.444  0.00  0.00    +0.000 C 
BRANCH  26  27
ATOM     27  C   UNL     1       7.995   4.652  18.028  0.00  0.00    +0.000 C 
BRANCH  27  28
ATOM     28  C   UNL     1       7.901   5.856  18.935  0.00  0.00    +0.000 C 
ATOM     29  O   UNL     1       8.003   7.017  18.576  0.00  0.00    +0.000 OA
BRANCH  28  30
ATOM     30  O   UNL     1       7.685   5.513  20.225  0.00  0.00    +0.000 OA
ATOM     31  H   UNL     1       6.764   5.251  20.419  0.00  0.00    +0.000 HD
ENDBRANCH  28  30
ENDBRANCH  27  28
ENDBRANCH  26  27
ENDBRANCH  17  26
ENDBRANCH   2  17
TORSDOF 12
ENDMDL
MODEL 3
REMARK VINA RESULT:      -7.2      2.828      4.289
REMARK  Name = 
REMARK  13 active torsions:
REMARK  status: ('A' for Active; 'I' for Inactive)
REMARK    1  A    between atoms: C_1  and  O_2
REMARK    2  A    between atoms: O_2  and  C_3
REMARK    3  A    between atoms: C_3  and  C_5
REMARK    4  A    between atoms: C_5  and  C_6
REMARK    5  A    between atoms: C_5  and  N_13
REMARK    6  A    between atoms: C_6  and  C_7
REMARK    7  A    between atoms: C_14  and  C_16
REMARK    8  A    between atoms: C_16  and  C_17
REMARK    9  A    between atoms: C_16  and  N_22
REMARK   10  A    between atoms: C_17  and  C_18
REMARK   11  A    between atoms: C_18  and  C_19
REMARK   12  A    between atoms: C_19  and  O_21
REMARK   13  A    between atoms: C_23  and  C_25
REMARK                            x       y       z     vdW  Elec       q    Type
REMARK                         _______ _______ _______ _____ _____    ______ ____
ROOT
ATOM      1  N   UNL     1       4.355   4.186  18.657  0.00  0.00    +0.000 N 
ATOM      2  C   UNL     1       4.470   4.023  17.299  0.00  0.00    +0.000 C 
ATOM      3  O   UNL     1       3.500   3.948  16.548  0.00  0.00    +0.000 OA
ATOM      4  H   UNL     1       5.184   4.315  19.232  0.00  0.00    +0.000 HD
ENDROOT
BRANCH   1   5
ATOM      5  C   UNL     1       3.060   4.206  19.356  0.00  0.00    +0.000 C 
BRANCH   5   6
ATOM      6  C   UNL     1       2.861   2.871  20.086  0.00  0.00    +0.000 C 
ATOM      7  O   UNL     1       3.482   2.548  21.095  0.00  0.00    +0.000 OA
BRANCH   6   9
ATOM      8  C   UNL     1       0.971   2.841  18.698  0.00  0.00    +0.000 C 
ATOM      9  O   UNL     1       1.914   2.105  19.479  0.00  0.00    +0.000 OA
ENDBRANCH   6   9
ENDBRANCH   5   6
BRANCH   5  10
ATOM     10  C   UNL     1       2.875   5.419  20.294  0.00  0.00    +0.000 C 
BRANCH  10  11
ATOM     11  C   UNL     1       2.387   6.722  19.685  0.00  0.00    +0.000 A 
ATOM     12  C   UNL     1       1.700   7.629  20.511  0.00  0.00    +0.000 A 
ATOM     13  C   UNL     1       1.228   8.840  20.003  0.00  0.00    +0.000 A 
ATOM     14  C   UNL     1       1.442   9.171  18.672  0.00  0.00    +0.000 A 
ATOM     15  C   UNL     1       2.153   8.301  17.849  0.00  0.00    +0.000 A 
ATOM     16  C   UNL     1       2.634   7.093  18.359  0.00  0.00    +0.000 A 
ENDBRANCH  10  11
ENDBRANCH   5  10
ENDBRANCH   1   5
BRANCH   2  17
ATOM     17  C   UNL     1       5.915   4.004  16.760  0.00  0.00    +0.000 C 
BRANCH  17  18
ATOM     18  N   UNL     1       6.433   5.368  16.828  0.00  0.00    +0.000 N 
ATOM     19  C   UNL     1       7.223   5.814  17.879  0.00  0.00    +0.000 C 
ATOM     20  O   UNL     1       7.583   5.049  18.776  0.00  0.00    +0.000 OA
ATOM     21  H   UNL     1       6.041   6.052  16.182  0.00  0.00    +0.000 HD
BRANCH  19  22
ATOM     22  C   UNL     1       7.659   7.297  17.798  0.00  0.00    +0.000 C 
ATOM     23  F   UNL     1       6.597   8.147  17.924  0.00  0.00    +0.000 F 
ATOM     24  F   UNL     1       8.549   7.642  18.765  0.00  0.00    +0.000 F 
ATOM     25  F   UNL     1       8.239   7.592  16.602  0.00  0.00    +0.000 F 
ENDBRANCH  19  22
ENDBRANCH  17  18
BRANCH  17  26
ATOM     26  C   UNL     1       5.904   3.501  15.313  0.00  0.00    +0.000 C 
BRANCH  26  27
ATOM     27  C   UNL     1       5.793   4.640  14.297  0.00  0.00    +0.000 C 
BRANCH  27  28
ATOM     28  C   UNL     1       7.110   4.893  13.600  0.00  0.00    +0.000 C 
ATOM     29  O   UNL     1       8.032   5.547  14.056  0.00  0.00    +0.000 OA
BRANCH  28  30
ATOM     30  O   UNL     1       7.169   4.305  12.384  0.00  0.00    +0.000 OA
ATOM     31  H   UNL     1       6.763   3.417  12.351  0.00  0.00    +0.000 HD
ENDBRANCH  28  30
ENDBRANCH  27  28
ENDBRANCH  26  27
ENDBRANCH  17  26
ENDBRANCH   2  17
TORSDOF 12
ENDMDL
MODEL 4
REMARK VINA RESULT:      -7.2      2.933      4.516
REMARK  Name = 
REMARK  13 active torsions:
REMARK  status: ('A' for Active; 'I' for Inactive)
REMARK    1  A    between atoms: C_1  and  O_2
REMARK    2  A    between atoms: O_2  and  C_3
REMARK    3  A    between atoms: C_3  and  C_5
REMARK    4  A    between atoms: C_5  and  C_6
REMARK    5  A    between atoms: C_5  and  N_13
REMARK    6  A    between atoms: C_6  and  C_7
REMARK    7  A    between atoms: C_14  and  C_16
REMARK    8  A    between atoms: C_16  and  C_17
REMARK    9  A    between atoms: C_16  and  N_22
REMARK   10  A    between atoms: C_17  and  C_18
REMARK   11  A    between atoms: C_18  and  C_19
REMARK   12  A    between atoms: C_19  and  O_21
REMARK   13  A    between atoms: C_23  and  C_25
REMARK                            x       y       z     vdW  Elec       q    Type
REMARK                         _______ _______ _______ _____ _____    ______ ____
ROOT
ATOM      1  N   UNL     1       4.194   4.457  18.094  0.00  0.00    +0.000 N 
ATOM      2  C   UNL     1       4.193   3.995  16.801  0.00  0.00    +0.000 C 
ATOM      3  O   UNL     1       3.226   3.436  16.290  0.00  0.00    +0.000 OA
ATOM      4  H   UNL     1       4.990   4.979  18.454  0.00  0.00    +0.000 HD
ENDROOT
BRANCH   1   5
ATOM      5  C   UNL     1       3.067   4.256  19.019  0.00  0.00    +0.000 C 
BRANCH   5   6
ATOM      6  C   UNL     1       3.196   2.874  19.676  0.00  0.00    +0.000 C 
ATOM      7  O   UNL     1       3.986   2.623  20.582  0.00  0.00    +0.000 OA
BRANCH   6   9
ATOM      8  C   UNL     1       1.006   2.487  18.932  0.00  0.00    +0.000 C 
ATOM      9  O   UNL     1       2.326   1.979  19.134  0.00  0.00    +0.000 OA
ENDBRANCH   6   9
ENDBRANCH   5   6
BRANCH   5  10
ATOM     10  C   UNL     1       2.902   5.385  20.058  0.00  0.00    +0.000 C 
BRANCH  10  11
ATOM     11  C   UNL     1       2.377   6.726  19.575  0.00  0.00    +0.000 A 
ATOM     12  C   UNL     1       1.697   7.547  20.492  0.00  0.00    +0.000 A 
ATOM     13  C   UNL     1       1.191   8.788  20.102  0.00  0.00    +0.000 A 
ATOM     14  C   UNL     1       1.366   9.235  18.800  0.00  0.00    +0.000 A 
ATOM     15  C   UNL     1       2.071   8.452  17.888  0.00  0.00    +0.000 A 
ATOM     16  C   UNL     1       2.584   7.214  18.281  0.00  0.00    +0.000 A 
ENDBRANCH  10  11
ENDBRANCH   5  10
ENDBRANCH   1   5
BRANCH   2  17
ATOM     17  C   UNL     1       5.478   4.285  16.000  0.00  0.00    +0.000 C 
BRANCH  17  18
ATOM     18  N   UNL     1       6.022   5.554  16.476  0.00  0.00    +0.000 N 
ATOM     19  C   UNL     1       7.206   5.634  17.198  0.00  0.00    +0.000 C 
ATOM     20  O   UNL     1       7.892   4.633  17.411  0.00  0.00    +0.000 OA
ATOM     21  H   UNL     1       5.414   6.371  16.438  0.00  0.00    +0.000 HD
BRANCH  19  22
ATOM     22  C   UNL     1       7.615   7.059  17.644  0.00  0.00    +0.000 C 
ATOM     23  F   UNL     1       8.321   7.713  16.675  0.00  0.00    +0.000 F 
ATOM     24  F   UNL     1       6.550   7.847  17.946  0.00  0.00    +0.000 F 
ATOM     25  F   UNL     1       8.416   7.038  18.745  0.00  0.00    +0.000 F 
ENDBRANCH  19  22
ENDBRANCH  17  18
BRANCH  17  26
ATOM     26  C   UNL     1       5.132   4.371  14.510  0.00  0.00    +0.000 C 
BRANCH  26  27
ATOM     27  C   UNL     1       6.273   3.886  13.613  0.00  0.00    +0.000 C 
BRANCH  27  28
ATOM     28  C   UNL     1       5.750   3.204  12.371  0.00  0.00    +0.000 C 
ATOM     29  O   UNL     1       4.666   3.415  11.856  0.00  0.00    +0.000 OA
BRANCH  28  30
ATOM     30  O   UNL     1       6.629   2.307  11.868  0.00  0.00    +0.000 OA
ATOM     31  H   UNL     1       6.224   1.633  11.288  0.00  0.00    +0.000 HD
ENDBRANCH  28  30
ENDBRANCH  27  28
ENDBRANCH  26  27
ENDBRANCH  17  26
ENDBRANCH   2  17
TORSDOF 12
ENDMDL
MODEL 5
REMARK VINA RESULT:      -7.2      3.548      7.630
REMARK  Name = 
REMARK  13 active torsions:
REMARK  status: ('A' for Active; 'I' for Inactive)
REMARK    1  A    between atoms: C_1  and  O_2
REMARK    2  A    between atoms: O_2  and  C_3
REMARK    3  A    between atoms: C_3  and  C_5
REMARK    4  A    between atoms: C_5  and  C_6
REMARK    5  A    between atoms: C_5  and  N_13
REMARK    6  A    between atoms: C_6  and  C_7
REMARK    7  A    between atoms: C_14  and  C_16
REMARK    8  A    between atoms: C_16  and  C_17
REMARK    9  A    between atoms: C_16  and  N_22
REMARK   10  A    between atoms: C_17  and  C_18
REMARK   11  A    between atoms: C_18  and  C_19
REMARK   12  A    between atoms: C_19  and  O_21
REMARK   13  A    between atoms: C_23  and  C_25
REMARK                            x       y       z     vdW  Elec       q    Type
REMARK                         _______ _______ _______ _____ _____    ______ ____
ROOT
ATOM      1  N   UNL     1       4.688   6.512  17.251  0.00  0.00    +0.000 N 
ATOM      2  C   UNL     1       4.253   5.612  18.193  0.00  0.00    +0.000 C 
ATOM      3  O   UNL     1       4.855   4.574  18.456  0.00  0.00    +0.000 OA
ATOM      4  H   UNL     1       4.197   7.393  17.116  0.00  0.00    +0.000 HD
ENDROOT
BRANCH   1   5
ATOM      5  C   UNL     1       5.872   6.283  16.408  0.00  0.00    +0.000 C 
BRANCH   5   6
ATOM      6  C   UNL     1       7.120   6.784  17.147  0.00  0.00    +0.000 C 
ATOM      7  O   UNL     1       7.445   7.967  17.207  0.00  0.00    +0.000 OA
BRANCH   6   9
ATOM      8  C   UNL     1       7.930   5.860  19.145  0.00  0.00    +0.000 C 
ATOM      9  O   UNL     1       7.805   5.761  17.724  0.00  0.00    +0.000 OA
ENDBRANCH   6   9
ENDBRANCH   5   6
BRANCH   5  10
ATOM     10  C   UNL     1       6.023   4.825  15.925  0.00  0.00    +0.000 C 
BRANCH  10  11
ATOM     11  C   UNL     1       6.421   4.591  14.479  0.00  0.00    +0.000 A 
ATOM     12  C   UNL     1       5.665   3.683  13.715  0.00  0.00    +0.000 A 
ATOM     13  C   UNL     1       5.988   3.428  12.382  0.00  0.00    +0.000 A 
ATOM     14  C   UNL     1       7.058   4.081  11.785  0.00  0.00    +0.000 A 
ATOM     15  C   UNL     1       7.795   5.012  12.515  0.00  0.00    +0.000 A 
ATOM     16  C   UNL     1       7.466   5.273  13.847  0.00  0.00    +0.000 A 
ENDBRANCH  10  11
ENDBRANCH   5  10
ENDBRANCH   1   5
BRANCH   2  17
ATOM     17  C   UNL     1       2.978   6.025  18.956  0.00  0.00    +0.000 C 
BRANCH  17  18
ATOM     18  N   UNL     1       2.175   4.823  19.161  0.00  0.00    +0.000 N 
ATOM     19  C   UNL     1       2.036   4.222  20.406  0.00  0.00    +0.000 C 
ATOM     20  O   UNL     1       2.535   4.724  21.415  0.00  0.00    +0.000 OA
ATOM     21  H   UNL     1       1.871   4.313  18.333  0.00  0.00    +0.000 HD
BRANCH  19  22
ATOM     22  C   UNL     1       1.169   2.941  20.430  0.00  0.00    +0.000 C 
ATOM     23  F   UNL     1       0.773   2.617  21.697  0.00  0.00    +0.000 F 
ATOM     24  F   UNL     1       0.036   3.052  19.687  0.00  0.00    +0.000 F 
ATOM     25  F   UNL     1       1.847   1.858  19.959  0.00  0.00    +0.000 F 
ENDBRANCH  19  22
ENDBRANCH  17  18
BRANCH  17  26
ATOM     26  C   UNL     1       2.207   7.055  18.124  0.00  0.00    +0.000 C 
BRANCH  26  27
ATOM     27  C   UNL     1       2.097   8.411  18.823  0.00  0.00    +0.000 C 
BRANCH  27  28
ATOM     28  C   UNL     1       1.364   9.418  17.969  0.00  0.00    +0.000 C 
ATOM     29  O   UNL     1       0.156   9.458  17.810  0.00  0.00    +0.000 OA
BRANCH  28  30
ATOM     30  O   UNL     1       2.203  10.299  17.378  0.00  0.00    +0.000 OA
ATOM     31  H   UNL     1       3.109   9.958  17.243  0.00  0.00    +0.000 HD
ENDBRANCH  28  30
ENDBRANCH  27  28
ENDBRANCH  26  27
ENDBRANCH  17  26
ENDBRANCH   2  17
TORSDOF 12
ENDMDL
MODEL 6
REMARK VINA RESULT:      -7.1      2.920      4.316
REMARK  Name = 
REMARK  13 active torsions:
REMARK  status: ('A' for Active; 'I' for Inactive)
REMARK    1  A    between atoms: C_1  and  O_2
REMARK    2  A    between atoms: O_2  and  C_3
REMARK    3  A    between atoms: C_3  and  C_5
REMARK    4  A    between atoms: C_5  and  C_6
REMARK    5  A    between atoms: C_5  and  N_13
REMARK    6  A    between atoms: C_6  and  C_7
REMARK    7  A    between atoms: C_14  and  C_16
REMARK    8  A    between atoms: C_16  and  C_17
REMARK    9  A    between atoms: C_16  and  N_22
REMARK   10  A    between atoms: C_17  and  C_18
REMARK   11  A    between atoms: C_18  and  C_19
REMARK   12  A    between atoms: C_19  and  O_21
REMARK   13  A    between atoms: C_23  and  C_25
REMARK                            x       y       z     vdW  Elec       q    Type
REMARK                         _______ _______ _______ _____ _____    ______ ____
ROOT
ATOM      1  N   UNL     1       3.788   4.431  18.034  0.00  0.00    +0.000 N 
ATOM      2  C   UNL     1       5.088   4.309  18.461  0.00  0.00    +0.000 C 
ATOM      3  O   UNL     1       5.390   4.108  19.635  0.00  0.00    +0.000 OA
ATOM      4  H   UNL     1       3.580   4.525  17.042  0.00  0.00    +0.000 HD
ENDROOT
BRANCH   1   5
ATOM      5  C   UNL     1       2.636   4.414  18.949  0.00  0.00    +0.000 C 
BRANCH   5   6
ATOM      6  C   UNL     1       2.545   3.034  19.616  0.00  0.00    +0.000 C 
ATOM      7  O   UNL     1       2.455   1.981  18.990  0.00  0.00    +0.000 OA
BRANCH   6   9
ATOM      8  C   UNL     1       1.415   2.632  21.631  0.00  0.00    +0.000 C 
ATOM      9  O   UNL     1       2.582   3.130  20.973  0.00  0.00    +0.000 OA
ENDBRANCH   6   9
ENDBRANCH   5   6
BRANCH   5  10
ATOM     10  C   UNL     1       2.639   5.563  19.979  0.00  0.00    +0.000 C 
BRANCH  10  11
ATOM     11  C   UNL     1       2.212   6.942  19.508  0.00  0.00    +0.000 A 
ATOM     12  C   UNL     1       1.613   7.811  20.438  0.00  0.00    +0.000 A 
ATOM     13  C   UNL     1       1.199   9.088  20.059  0.00  0.00    +0.000 A 
ATOM     14  C   UNL     1       1.385   9.525  18.754  0.00  0.00    +0.000 A 
ATOM     15  C   UNL     1       2.011   8.692  17.829  0.00  0.00    +0.000 A 
ATOM     16  C   UNL     1       2.433   7.417  18.211  0.00  0.00    +0.000 A 
ENDBRANCH  10  11
ENDBRANCH   5  10
ENDBRANCH   1   5
BRANCH   2  17
ATOM     17  C   UNL     1       6.154   4.377  17.350  0.00  0.00    +0.000 C 
BRANCH  17  18
ATOM     18  N   UNL     1       6.601   5.763  17.247  0.00  0.00    +0.000 N 
ATOM     19  C   UNL     1       7.531   6.314  18.120  0.00  0.00    +0.000 C 
ATOM     20  O   UNL     1       8.076   5.628  18.987  0.00  0.00    +0.000 OA
ATOM     21  H   UNL     1       6.071   6.384  16.638  0.00  0.00    +0.000 HD
BRANCH  19  22
ATOM     22  C   UNL     1       7.866   7.805  17.878  0.00  0.00    +0.000 C 
ATOM     23  F   UNL     1       8.498   7.997  16.682  0.00  0.00    +0.000 F 
ATOM     24  F   UNL     1       6.764   8.601  17.866  0.00  0.00    +0.000 F 
ATOM     25  F   UNL     1       8.702   8.301  18.831  0.00  0.00    +0.000 F 
ENDBRANCH  19  22
ENDBRANCH  17  18
BRANCH  17  26
ATOM     26  C   UNL     1       5.533   3.910  16.029  0.00  0.00    +0.000 C 
BRANCH  26  27
ATOM     27  C   UNL     1       5.641   4.964  14.925  0.00  0.00    +0.000 C 
BRANCH  27  28
ATOM     28  C   UNL     1       6.793   4.673  13.992  0.00  0.00    +0.000 C 
ATOM     29  O   UNL     1       7.804   5.346  13.892  0.00  0.00    +0.000 OA
BRANCH  28  30
ATOM     30  O   UNL     1       6.589   3.558  13.255  0.00  0.00    +0.000 OA
ATOM     31  H   UNL     1       6.726   3.683  12.296  0.00  0.00    +0.000 HD
ENDBRANCH  28  30
ENDBRANCH  27  28
ENDBRANCH  26  27
ENDBRANCH  17  26
ENDBRANCH   2  17
TORSDOF 12
ENDMDL
MODEL 7
REMARK VINA RESULT:      -7.1      1.673      3.588
REMARK  Name = 
REMARK  13 active torsions:
REMARK  status: ('A' for Active; 'I' for Inactive)
REMARK    1  A    between atoms: C_1  and  O_2
REMARK    2  A    between atoms: O_2  and  C_3
REMARK    3  A    between atoms: C_3  and  C_5
REMARK    4  A    between atoms: C_5  and  C_6
REMARK    5  A    between atoms: C_5  and  N_13
REMARK    6  A    between atoms: C_6  and  C_7
REMARK    7  A    between atoms: C_14  and  C_16
REMARK    8  A    between atoms: C_16  and  C_17
REMARK    9  A    between atoms: C_16  and  N_22
REMARK   10  A    between atoms: C_17  and  C_18
REMARK   11  A    between atoms: C_18  and  C_19
REMARK   12  A    between atoms: C_19  and  O_21
REMARK   13  A    between atoms: C_23  and  C_25
REMARK                            x       y       z     vdW  Elec       q    Type
REMARK                         _______ _______ _______ _____ _____    ______ ____
ROOT
ATOM      1  N   UNL     1       4.304   6.520  17.427  0.00  0.00    +0.000 N 
ATOM      2  C   UNL     1       4.883   5.325  17.076  0.00  0.00    +0.000 C 
ATOM      3  O   UNL     1       4.431   4.235  17.419  0.00  0.00    +0.000 OA
ATOM      4  H   UNL     1       4.671   7.396  17.061  0.00  0.00    +0.000 HD
ENDROOT
BRANCH   1   5
ATOM      5  C   UNL     1       3.134   6.616  18.313  0.00  0.00    +0.000 C 
BRANCH   5   6
ATOM      6  C   UNL     1       2.508   8.010  18.170  0.00  0.00    +0.000 C 
ATOM      7  O   UNL     1       2.599   8.696  17.155  0.00  0.00    +0.000 OA
BRANCH   6   9
ATOM      8  C   UNL     1       1.063   9.569  19.162  0.00  0.00    +0.000 C 
ATOM      9  O   UNL     1       1.842   8.378  19.299  0.00  0.00    +0.000 OA
ENDBRANCH   6   9
ENDBRANCH   5   6
BRANCH   5  10
ATOM     10  C   UNL     1       2.101   5.486  18.108  0.00  0.00    +0.000 C 
BRANCH  10  11
ATOM     11  C   UNL     1       1.865   4.521  19.257  0.00  0.00    +0.000 A 
ATOM     12  C   UNL     1       1.155   3.335  18.997  0.00  0.00    +0.000 A 
ATOM     13  C   UNL     1       0.907   2.414  20.016  0.00  0.00    +0.000 A 
ATOM     14  C   UNL     1       1.372   2.652  21.302  0.00  0.00    +0.000 A 
ATOM     15  C   UNL     1       2.109   3.804  21.569  0.00  0.00    +0.000 A 
ATOM     16  C   UNL     1       2.364   4.722  20.547  0.00  0.00    +0.000 A 
ENDBRANCH  10  11
ENDBRANCH   5  10
ENDBRANCH   1   5
BRANCH   2  17
ATOM     17  C   UNL     1       6.117   5.438  16.159  0.00  0.00    +0.000 C 
BRANCH  17  18
ATOM     18  N   UNL     1       5.886   4.585  14.997  0.00  0.00    +0.000 N 
ATOM     19  C   UNL     1       6.627   4.700  13.828  0.00  0.00    +0.000 C 
ATOM     20  O   UNL     1       7.568   5.491  13.744  0.00  0.00    +0.000 OA
ATOM     21  H   UNL     1       5.034   4.025  14.986  0.00  0.00    +0.000 HD
BRANCH  19  22
ATOM     22  C   UNL     1       6.225   3.731  12.690  0.00  0.00    +0.000 C 
ATOM     23  F   UNL     1       6.359   2.424  13.063  0.00  0.00    +0.000 F 
ATOM     24  F   UNL     1       4.936   3.889  12.289  0.00  0.00    +0.000 F 
ATOM     25  F   UNL     1       7.005   3.890  11.586  0.00  0.00    +0.000 F 
ENDBRANCH  19  22
ENDBRANCH  17  18
BRANCH  17  26
ATOM     26  C   UNL     1       7.359   4.977  16.930  0.00  0.00    +0.000 C 
BRANCH  26  27
ATOM     27  C   UNL     1       7.522   5.700  18.268  0.00  0.00    +0.000 C 
BRANCH  27  28
ATOM     28  C   UNL     1       7.848   7.163  18.072  0.00  0.00    +0.000 C 
ATOM     29  O   UNL     1       7.414   7.866  17.175  0.00  0.00    +0.000 OA
BRANCH  28  30
ATOM     30  O   UNL     1       8.694   7.632  19.016  0.00  0.00    +0.000 OA
ATOM     31  H   UNL     1       9.262   6.946  19.419  0.00  0.00    +0.000 HD
ENDBRANCH  28  30
ENDBRANCH  27  28
ENDBRANCH  26  27
ENDBRANCH  17  26
ENDBRANCH   2  17
TORSDOF 12
ENDMDL
MODEL 8
REMARK VINA RESULT:      -7.0      2.893      4.225
REMARK  Name = 
REMARK  13 active torsions:
REMARK  status: ('A' for Active; 'I' for Inactive)
REMARK    1  A    between atoms: C_1  and  O_2
REMARK    2  A    between atoms: O_2  and  C_3
REMARK    3  A    between atoms: C_3  and  C_5
REMARK    4  A    between atoms: C_5  and  C_6
REMARK    5  A    between atoms: C_5  and  N_13
REMARK    6  A    between atoms: C_6  and  C_7
REMARK    7  A    between atoms: C_14  and  C_16
REMARK    8  A    between atoms: C_16  and  C_17
REMARK    9  A    between atoms: C_16  and  N_22
REMARK   10  A    between atoms: C_17  and  C_18
REMARK   11  A    between atoms: C_18  and  C_19
REMARK   12  A    between atoms: C_19  and  O_21
REMARK   13  A    between atoms: C_23  and  C_25
REMARK                            x       y       z     vdW  Elec       q    Type
REMARK                         _______ _______ _______ _____ _____    ______ ____
ROOT
ATOM      1  N   UNL     1       3.198   5.162  18.075  0.00  0.00    +0.000 N 
ATOM      2  C   UNL     1       4.373   4.706  18.621  0.00  0.00    +0.000 C 
ATOM      3  O   UNL     1       4.489   4.407  19.808  0.00  0.00    +0.000 OA
ATOM      4  H   UNL     1       3.128   5.329  17.074  0.00  0.00    +0.000 HD
ENDROOT
BRANCH   1   5
ATOM      5  C   UNL     1       1.987   5.412  18.871  0.00  0.00    +0.000 C 
BRANCH   5   6
ATOM      6  C   UNL     1       1.489   4.085  19.461  0.00  0.00    +0.000 C 
ATOM      7  O   UNL     1       1.244   3.921  20.653  0.00  0.00    +0.000 OA
BRANCH   6   9
ATOM      8  C   UNL     1       1.964   1.879  18.825  0.00  0.00    +0.000 C 
ATOM      9  O   UNL     1       1.353   3.130  18.502  0.00  0.00    +0.000 OA
ENDBRANCH   6   9
ENDBRANCH   5   6
BRANCH   5  10
ATOM     10  C   UNL     1       2.161   6.503  19.949  0.00  0.00    +0.000 C 
BRANCH  10  11
ATOM     11  C   UNL     1       1.791   7.930  19.584  0.00  0.00    +0.000 A 
ATOM     12  C   UNL     1       2.082   8.385  18.285  0.00  0.00    +0.000 A 
ATOM     13  C   UNL     1       1.765   9.688  17.897  0.00  0.00    +0.000 A 
ATOM     14  C   UNL     1       1.144  10.551  18.789  0.00  0.00    +0.000 A 
ATOM     15  C   UNL     1       0.814  10.106  20.067  0.00  0.00    +0.000 A 
ATOM     16  C   UNL     1       1.123   8.799  20.453  0.00  0.00    +0.000 A 
ENDBRANCH  10  11
ENDBRANCH   5  10
ENDBRANCH   1   5
BRANCH   2  17
ATOM     17  C   UNL     1       5.536   4.531  17.624  0.00  0.00    +0.000 C 
BRANCH  17  18
ATOM     18  N   UNL     1       6.188   5.829  17.469  0.00  0.00    +0.000 N 
ATOM     19  C   UNL     1       7.310   6.192  18.202  0.00  0.00    +0.000 C 
ATOM     20  O   UNL     1       7.852   5.399  18.975  0.00  0.00    +0.000 OA
ATOM     21  H   UNL     1       5.687   6.547  16.948  0.00  0.00    +0.000 HD
BRANCH  19  22
ATOM     22  C   UNL     1       7.850   7.616  17.926  0.00  0.00    +0.000 C 
ATOM     23  F   UNL     1       6.855   8.551  17.946  0.00  0.00    +0.000 F 
ATOM     24  F   UNL     1       8.777   8.018  18.834  0.00  0.00    +0.000 F 
ATOM     25  F   UNL     1       8.432   7.711  16.698  0.00  0.00    +0.000 F 
ENDBRANCH  19  22
ENDBRANCH  17  18
BRANCH  17  26
ATOM     26  C   UNL     1       4.978   4.043  16.284  0.00  0.00    +0.000 C 
BRANCH  26  27
ATOM     27  C   UNL     1       5.272   5.013  15.137  0.00  0.00    +0.000 C 
BRANCH  27  28
ATOM     28  C   UNL     1       6.466   4.567  14.325  0.00  0.00    +0.000 C 
ATOM     29  O   UNL     1       6.441   3.726  13.443  0.00  0.00    +0.000 OA
BRANCH  28  30
ATOM     30  O   UNL     1       7.600   5.210  14.683  0.00  0.00    +0.000 OA
ATOM     31  H   UNL     1       7.455   5.977  15.269  0.00  0.00    +0.000 HD
ENDBRANCH  28  30
ENDBRANCH  27  28
ENDBRANCH  26  27
ENDBRANCH  17  26
ENDBRANCH   2  17
TORSDOF 12
ENDMDL
MODEL 9
REMARK VINA RESULT:      -7.0      2.891      4.221
REMARK  Name = 
REMARK  13 active torsions:
REMARK  status: ('A' for Active; 'I' for Inactive)
REMARK    1  A    between atoms: C_1  and  O_2
REMARK    2  A    between atoms: O_2  and  C_3
REMARK    3  A    between atoms: C_3  and  C_5
REMARK    4  A    between atoms: C_5  and  C_6
REMARK    5  A    between atoms: C_5  and  N_13
REMARK    6  A    between atoms: C_6  and  C_7
REMARK    7  A    between atoms: C_14  and  C_16
REMARK    8  A    between atoms: C_16  and  C_17
REMARK    9  A    between atoms: C_16  and  N_22
REMARK   10  A    between atoms: C_17  and  C_18
REMARK   11  A    between atoms: C_18  and  C_19
REMARK   12  A    between atoms: C_19  and  O_21
REMARK   13  A    between atoms: C_23  and  C_25
REMARK                            x       y       z     vdW  Elec       q    Type
REMARK                         _______ _______ _______ _____ _____    ______ ____
ROOT
ATOM      1  N   UNL     1       3.851   5.486  17.572  0.00  0.00    +0.000 N 
ATOM      2  C   UNL     1       4.814   4.707  18.165  0.00  0.00    +0.000 C 
ATOM      3  O   UNL     1       4.623   4.085  19.208  0.00  0.00    +0.000 OA
ATOM      4  H   UNL     1       4.029   5.926  16.671  0.00  0.00    +0.000 HD
ENDROOT
BRANCH   1   5
ATOM      5  C   UNL     1       2.525   5.716  18.165  0.00  0.00    +0.000 C 
BRANCH   5   6
ATOM      6  C   UNL     1       1.766   4.383  18.231  0.00  0.00    +0.000 C 
ATOM      7  O   UNL     1       1.526   3.688  17.248  0.00  0.00    +0.000 OA
BRANCH   6   9
ATOM      8  C   UNL     1       0.812   2.783  19.656  0.00  0.00    +0.000 C 
ATOM      9  O   UNL     1       1.403   4.076  19.506  0.00  0.00    +0.000 OA
ENDBRANCH   6   9
ENDBRANCH   5   6
BRANCH   5  10
ATOM     10  C   UNL     1       2.568   6.434  19.531  0.00  0.00    +0.000 C 
BRANCH  10  11
ATOM     11  C   UNL     1       1.937   7.812  19.631  0.00  0.00    +0.000 A 
ATOM     12  C   UNL     1       1.856   8.596  18.467  0.00  0.00    +0.000 A 
ATOM     13  C   UNL     1       1.288   9.870  18.502  0.00  0.00    +0.000 A 
ATOM     14  C   UNL     1       0.782  10.377  19.691  0.00  0.00    +0.000 A 
ATOM     15  C   UNL     1       0.820   9.599  20.846  0.00  0.00    +0.000 A 
ATOM     16  C   UNL     1       1.381   8.321  20.809  0.00  0.00    +0.000 A 
ENDBRANCH  10  11
ENDBRANCH   5  10
ENDBRANCH   1   5
BRANCH   2  17
ATOM     17  C   UNL     1       6.147   4.610  17.397  0.00  0.00    +0.000 C 
BRANCH  17  18
ATOM     18  N   UNL     1       6.687   5.961  17.273  0.00  0.00    +0.000 N 
ATOM     19  C   UNL     1       7.532   6.517  18.225  0.00  0.00    +0.000 C 
ATOM     20  O   UNL     1       7.921   5.861  19.193  0.00  0.00    +0.000 OA
ATOM     21  H   UNL     1       6.277   6.569  16.566  0.00  0.00    +0.000 HD
BRANCH  19  22
ATOM     22  C   UNL     1       7.985   7.970  17.943  0.00  0.00    +0.000 C 
ATOM     23  F   UNL     1       8.594   8.085  16.726  0.00  0.00    +0.000 F 
ATOM     24  F   UNL     1       6.956   8.857  17.946  0.00  0.00    +0.000 F 
ATOM     25  F   UNL     1       8.889   8.409  18.860  0.00  0.00    +0.000 F 
ENDBRANCH  19  22
ENDBRANCH  17  18
BRANCH  17  26
ATOM     26  C   UNL     1       5.886   4.004  16.014  0.00  0.00    +0.000 C 
BRANCH  26  27
ATOM     27  C   UNL     1       5.887   5.055  14.902  0.00  0.00    +0.000 C 
BRANCH  27  28
ATOM     28  C   UNL     1       6.796   4.657  13.763  0.00  0.00    +0.000 C 
ATOM     29  O   UNL     1       7.716   5.330  13.330  0.00  0.00    +0.000 OA
BRANCH  28  30
ATOM     30  O   UNL     1       6.482   3.445  13.254  0.00  0.00    +0.000 OA
ATOM     31  H   UNL     1       5.633   3.424  12.770  0.00  0.00    +0.000 HD
ENDBRANCH  28  30
ENDBRANCH  27  28
ENDBRANCH  26  27
ENDBRANCH  17  26
ENDBRANCH   2  17
TORSDOF 12
ENDMDL
