MODEL 1
REMARK VINA RESULT:      -8.1      0.000      0.000
REMARK  Name = 
REMARK  11 active torsions:
REMARK  status: ('A' for Active; 'I' for Inactive)
REMARK    1  A    between atoms: C_1  and  N_2
REMARK    2  A    between atoms: N_2  and  C_3
REMARK    3  A    between atoms: N_12  and  C_13
REMARK    4  A    between atoms: C_13  and  C_14
REMARK    5  A    between atoms: C_13  and  C_15
REMARK    6  A    between atoms: C_13  and  C_16
REMARK    7  A    between atoms: N_18  and  C_19
REMARK    8  A    between atoms: C_19  and  C_20
REMARK    9  A    between atoms: C_20  and  C_21
REMARK   10  A    between atoms: C_20  and  C_22
REMARK   11  A    between atoms: C_20  and  C_23
REMARK                            x       y       z     vdW  Elec       q    Type
REMARK                         _______ _______ _______ _____ _____    ______ ____
ROOT
ATOM      1  C   UNL     1       0.312  11.463  18.742  0.00  0.00    +0.000 C 
ATOM      2  N   UNL     1       0.526  10.440  19.750  0.00  0.00    +0.000 N 
ATOM      3  C   UNL     1      -0.156  10.554  21.029  0.00  0.00    +0.000 C 
ATOM      4  C   UNL     1       1.233   9.277  19.473  0.00  0.00    +0.000 A 
ATOM      5  C   UNL     1       1.857   9.103  18.246  0.00  0.00    +0.000 A 
ATOM      6  C   UNL     1       2.511   7.922  18.021  0.00  0.00    +0.000 A 
ATOM      7  N   UNL     1       2.554   6.943  18.922  0.00  0.00    +0.000 NA
ATOM      8  C   UNL     1       1.934   7.165  20.088  0.00  0.00    +0.000 A 
ATOM      9  N   UNL     1       1.913   6.141  21.022  0.00  0.00    +0.000 N 
ATOM     10  C   UNL     1       2.236   4.829  20.833  0.00  0.00    +0.000 C 
ATOM     11  O   UNL     1       2.201   4.053  21.785  0.00  0.00    +0.000 OA
ATOM     12  N   UNL     1       2.514   4.440  19.559  0.00  0.00    +0.000 N 
ATOM     13  N   UNL     1       1.301   8.306  20.411  0.00  0.00    +0.000 NA
ATOM     14  H   UNL     1       1.560   6.390  21.932  0.00  0.00    +0.000 HD
ATOM     15  H   UNL     1       2.614   5.186  18.866  0.00  0.00    +0.000 HD
ENDROOT
BRANCH  12  16
ATOM     16  C   UNL     1       2.799   3.084  19.082  0.00  0.00    +0.000 C 
ATOM     17  C   UNL     1       3.992   2.494  19.841  0.00  0.00    +0.000 C 
ATOM     18  C   UNL     1       1.542   2.212  19.204  0.00  0.00    +0.000 C 
BRANCH  16  19
ATOM     19  C   UNL     1       3.194   3.189  17.564  0.00  0.00    +0.000 C 
ATOM     20  O   UNL     1       2.449   2.818  16.658  0.00  0.00    +0.000 OA
ATOM     21  N   UNL     1       4.444   3.731  17.320  0.00  0.00    +0.000 N 
ATOM     22  H   UNL     1       5.019   4.009  18.102  0.00  0.00    +0.000 HD
BRANCH  21  23
ATOM     23  C   UNL     1       5.011   3.894  15.995  0.00  0.00    +0.000 C 
BRANCH  23  24
ATOM     24  C   UNL     1       6.179   4.912  15.928  0.00  0.00    +0.000 C 
ATOM     25  C   UNL     1       5.675   6.343  16.176  0.00  0.00    +0.000 C 
ATOM     26  C   UNL     1       7.201   4.557  17.025  0.00  0.00    +0.000 C 
ATOM     27  C   UNL     1       6.888   4.850  14.565  0.00  0.00    +0.000 C 
ENDBRANCH  23  24
ENDBRANCH  21  23
ENDBRANCH  16  19
ENDBRANCH  12  16
TORSDOF 4
ENDMDL
MODEL 2
REMARK VINA RESULT:      -7.9      0.665      1.114
REMARK  Name = 
REMARK  11 active torsions:
REMARK  status: ('A' for Active; 'I' for Inactive)
REMARK    1  A    between atoms: C_1  and  N_2
REMARK    2  A    between atoms: N_2  and  C_3
REMARK    3  A    between atoms: N_12  and  C_13
REMARK    4  A    between atoms: C_13  and  C_14
REMARK    5  A    between atoms: C_13  and  C_15
REMARK    6  A    between atoms: C_13  and  C_16
REMARK    7  A    between atoms: N_18  and  C_19
REMARK    8  A    between atoms: C_19  and  C_20
REMARK    9  A    between atoms: C_20  and  C_21
REMARK   10  A    between atoms: C_20  and  C_22
REMARK   11  A    between atoms: C_20  and  C_23
REMARK                            x       y       z     vdW  Elec       q    Type
REMARK                         _______ _______ _______ _____ _____    ______ ____
ROOT
ATOM      1  C   UNL     1       0.016  11.085  19.935  0.00  0.00    +0.000 C 
ATOM      2  N   UNL     1       0.294   9.941  20.784  0.00  0.00    +0.000 N 
ATOM      3  C   UNL     1      -0.386   9.828  22.064  0.00  0.00    +0.000 C 
ATOM      4  C   UNL     1       1.062   8.871  20.341  0.00  0.00    +0.000 A 
ATOM      5  C   UNL     1       1.687   8.913  19.103  0.00  0.00    +0.000 A 
ATOM      6  C   UNL     1       2.404   7.815  18.710  0.00  0.00    +0.000 A 
ATOM      7  N   UNL     1       2.507   6.719  19.459  0.00  0.00    +0.000 NA
ATOM      8  C   UNL     1       1.883   6.735  20.644  0.00  0.00    +0.000 A 
ATOM      9  N   UNL     1       1.926   5.587  21.419  0.00  0.00    +0.000 N 
ATOM     10  C   UNL     1       2.321   4.336  21.042  0.00  0.00    +0.000 C 
ATOM     11  O   UNL     1       2.336   3.430  21.871  0.00  0.00    +0.000 OA
ATOM     12  N   UNL     1       2.611   4.153  19.726  0.00  0.00    +0.000 N 
ATOM     13  N   UNL     1       1.191   7.779  21.128  0.00  0.00    +0.000 NA
ATOM     14  H   UNL     1       1.566   5.681  22.355  0.00  0.00    +0.000 HD
ATOM     15  H   UNL     1       2.665   4.995  19.148  0.00  0.00    +0.000 HD
ENDROOT
BRANCH  12  16
ATOM     16  C   UNL     1       2.968   2.898  19.057  0.00  0.00    +0.000 C 
ATOM     17  C   UNL     1       4.241   2.311  19.675  0.00  0.00    +0.000 C 
ATOM     18  C   UNL     1       1.786   1.920  19.114  0.00  0.00    +0.000 C 
BRANCH  16  19
ATOM     19  C   UNL     1       3.271   3.234  17.551  0.00  0.00    +0.000 C 
ATOM     20  O   UNL     1       2.383   3.403  16.717  0.00  0.00    +0.000 OA
ATOM     21  N   UNL     1       4.615   3.326  17.231  0.00  0.00    +0.000 N 
ATOM     22  H   UNL     1       5.304   3.166  17.952  0.00  0.00    +0.000 HD
BRANCH  21  23
ATOM     23  C   UNL     1       5.112   3.602  15.896  0.00  0.00    +0.000 C 
BRANCH  23  24
ATOM     24  C   UNL     1       6.152   4.750  15.834  0.00  0.00    +0.000 C 
ATOM     25  C   UNL     1       6.838   4.797  14.459  0.00  0.00    +0.000 C 
ATOM     26  C   UNL     1       5.420   6.087  16.061  0.00  0.00    +0.000 C 
ATOM     27  C   UNL     1       7.219   4.589  16.930  0.00  0.00    +0.000 C 
ENDBRANCH  23  24
ENDBRANCH  21  23
ENDBRANCH  16  19
ENDBRANCH  12  16
TORSDOF 4
ENDMDL
MODEL 3
REMARK VINA RESULT:      -7.4      0.650      1.075
REMARK  Name = 
REMARK  11 active torsions:
REMARK  status: ('A' for Active; 'I' for Inactive)
REMARK    1  A    between atoms: C_1  and  N_2
REMARK    2  A    between atoms: N_2  and  C_3
REMARK    3  A    between atoms: N_12  and  C_13
REMARK    4  A    between atoms: C_13  and  C_14
REMARK    5  A    between atoms: C_13  and  C_15
REMARK    6  A    between atoms: C_13  and  C_16
REMARK    7  A    between atoms: N_18  and  C_19
REMARK    8  A    between atoms: C_19  and  C_20
REMARK    9  A    between atoms: C_20  and  C_21
REMARK   10  A    between atoms: C_20  and  C_22
REMARK   11  A    between atoms: C_20  and  C_23
REMARK                            x       y       z     vdW  Elec       q    Type
REMARK                         _______ _______ _______ _____ _____    ______ ____
ROOT
ATOM      1  C   UNL     1       0.142  11.464  18.810  0.00  0.00    +0.000 C 
ATOM      2  N   UNL     1       0.375  10.435  19.808  0.00  0.00    +0.000 N 
ATOM      3  C   UNL     1      -0.338  10.502  21.072  0.00  0.00    +0.000 C 
ATOM      4  C   UNL     1       1.134   9.305  19.529  0.00  0.00    +0.000 A 
ATOM      5  C   UNL     1       1.791   9.175  18.314  0.00  0.00    +0.000 A 
ATOM      6  C   UNL     1       2.496   8.024  18.087  0.00  0.00    +0.000 A 
ATOM      7  N   UNL     1       2.559   7.034  18.975  0.00  0.00    +0.000 NA
ATOM      8  C   UNL     1       1.906   7.214  20.129  0.00  0.00    +0.000 A 
ATOM      9  N   UNL     1       1.906   6.176  21.048  0.00  0.00    +0.000 N 
ATOM     10  C   UNL     1       2.286   4.880  20.848  0.00  0.00    +0.000 C 
ATOM     11  O   UNL     1       2.262   4.090  21.787  0.00  0.00    +0.000 OA
ATOM     12  N   UNL     1       2.606   4.523  19.575  0.00  0.00    +0.000 N 
ATOM     13  N   UNL     1       1.221   8.323  20.455  0.00  0.00    +0.000 NA
ATOM     14  H   UNL     1       1.524   6.397  21.953  0.00  0.00    +0.000 HD
ATOM     15  H   UNL     1       2.691   5.282  18.895  0.00  0.00    +0.000 HD
ENDROOT
BRANCH  12  16
ATOM     16  C   UNL     1       2.956   3.186  19.085  0.00  0.00    +0.000 C 
ATOM     17  C   UNL     1       3.869   2.475  20.089  0.00  0.00    +0.000 C 
ATOM     18  C   UNL     1       1.679   2.387  18.790  0.00  0.00    +0.000 C 
BRANCH  16  19
ATOM     19  C   UNL     1       3.758   3.367  17.745  0.00  0.00    +0.000 C 
ATOM     20  O   UNL     1       3.985   2.434  16.977  0.00  0.00    +0.000 OA
ATOM     21  N   UNL     1       4.190   4.658  17.491  0.00  0.00    +0.000 N 
ATOM     22  H   UNL     1       3.985   5.385  18.162  0.00  0.00    +0.000 HD
BRANCH  21  23
ATOM     23  C   UNL     1       4.967   5.037  16.325  0.00  0.00    +0.000 C 
BRANCH  23  24
ATOM     24  C   UNL     1       6.439   5.405  16.640  0.00  0.00    +0.000 C 
ATOM     25  C   UNL     1       7.329   5.221  15.400  0.00  0.00    +0.000 C 
ATOM     26  C   UNL     1       6.495   6.885  17.066  0.00  0.00    +0.000 C 
ATOM     27  C   UNL     1       6.989   4.547  17.793  0.00  0.00    +0.000 C 
ENDBRANCH  23  24
ENDBRANCH  21  23
ENDBRANCH  16  19
ENDBRANCH  12  16
TORSDOF 4
ENDMDL
MODEL 4
REMARK VINA RESULT:      -7.4      1.128      1.412
REMARK  Name = 
REMARK  11 active torsions:
REMARK  status: ('A' for Active; 'I' for Inactive)
REMARK    1  A    between atoms: C_1  and  N_2
REMARK    2  A    between atoms: N_2  and  C_3
REMARK    3  A    between atoms: N_12  and  C_13
REMARK    4  A    between atoms: C_13  and  C_14
REMARK    5  A    between atoms: C_13  and  C_15
REMARK    6  A    between atoms: C_13  and  C_16
REMARK    7  A    between atoms: N_18  and  C_19
REMARK    8  A    between atoms: C_19  and  C_20
REMARK    9  A    between atoms: C_20  and  C_21
REMARK   10  A    between atoms: C_20  and  C_22
REMARK   11  A    between atoms: C_20  and  C_23
REMARK                            x       y       z     vdW  Elec       q    Type
REMARK                         _______ _______ _______ _____ _____    ______ ____
ROOT
ATOM      1  C   UNL     1      -0.123  11.831  18.854  0.00  0.00    +0.000 C 
ATOM      2  N   UNL     1       0.209  10.791  19.811  0.00  0.00    +0.000 N 
ATOM      3  C   UNL     1      -0.414  10.813  21.124  0.00  0.00    +0.000 C 
ATOM      4  C   UNL     1       0.977   9.689  19.456  0.00  0.00    +0.000 A 
ATOM      5  C   UNL     1       1.548   9.601  18.195  0.00  0.00    +0.000 A 
ATOM      6  C   UNL     1       2.268   8.476  17.894  0.00  0.00    +0.000 A 
ATOM      7  N   UNL     1       2.421   7.472  18.754  0.00  0.00    +0.000 NA
ATOM      8  C   UNL     1       1.847   7.611  19.956  0.00  0.00    +0.000 A 
ATOM      9  N   UNL     1       1.942   6.556  20.851  0.00  0.00    +0.000 N 
ATOM     10  C   UNL     1       2.343   5.276  20.596  0.00  0.00    +0.000 C 
ATOM     11  O   UNL     1       2.408   4.467  21.519  0.00  0.00    +0.000 OA
ATOM     12  N   UNL     1       2.582   4.952  19.297  0.00  0.00    +0.000 N 
ATOM     13  N   UNL     1       1.157   8.693  20.352  0.00  0.00    +0.000 NA
ATOM     14  H   UNL     1       1.620   6.748  21.785  0.00  0.00    +0.000 HD
ATOM     15  H   UNL     1       2.596   5.726  18.629  0.00  0.00    +0.000 HD
ENDROOT
BRANCH  12  16
ATOM     16  C   UNL     1       2.932   3.636  18.755  0.00  0.00    +0.000 C 
ATOM     17  C   UNL     1       2.830   2.568  19.850  0.00  0.00    +0.000 C 
ATOM     18  C   UNL     1       2.045   3.315  17.544  0.00  0.00    +0.000 C 
BRANCH  16  19
ATOM     19  C   UNL     1       4.429   3.702  18.281  0.00  0.00    +0.000 C 
ATOM     20  O   UNL     1       5.364   3.891  19.058  0.00  0.00    +0.000 OA
ATOM     21  N   UNL     1       4.620   3.529  16.920  0.00  0.00    +0.000 N 
ATOM     22  H   UNL     1       3.816   3.388  16.326  0.00  0.00    +0.000 HD
BRANCH  21  23
ATOM     23  C   UNL     1       5.918   3.579  16.273  0.00  0.00    +0.000 C 
BRANCH  23  24
ATOM     24  C   UNL     1       6.019   4.633  15.140  0.00  0.00    +0.000 C 
ATOM     25  C   UNL     1       5.383   4.107  13.843  0.00  0.00    +0.000 C 
ATOM     26  C   UNL     1       5.258   5.899  15.580  0.00  0.00    +0.000 C 
ATOM     27  C   UNL     1       7.484   5.016  14.871  0.00  0.00    +0.000 C 
ENDBRANCH  23  24
ENDBRANCH  21  23
ENDBRANCH  16  19
ENDBRANCH  12  16
TORSDOF 4
ENDMDL
MODEL 5
REMARK VINA RESULT:      -7.4      1.057      1.359
REMARK  Name = 
REMARK  11 active torsions:
REMARK  status: ('A' for Active; 'I' for Inactive)
REMARK    1  A    between atoms: C_1  and  N_2
REMARK    2  A    between atoms: N_2  and  C_3
REMARK    3  A    between atoms: N_12  and  C_13
REMARK    4  A    between atoms: C_13  and  C_14
REMARK    5  A    between atoms: C_13  and  C_15
REMARK    6  A    between atoms: C_13  and  C_16
REMARK    7  A    between atoms: N_18  and  C_19
REMARK    8  A    between atoms: C_19  and  C_20
REMARK    9  A    between atoms: C_20  and  C_21
REMARK   10  A    between atoms: C_20  and  C_22
REMARK   11  A    between atoms: C_20  and  C_23
REMARK                            x       y       z     vdW  Elec       q    Type
REMARK                         _______ _______ _______ _____ _____    ______ ____
ROOT
ATOM      1  C   UNL     1       0.033  11.936  18.800  0.00  0.00    +0.000 C 
ATOM      2  N   UNL     1       0.319  10.899  19.774  0.00  0.00    +0.000 N 
ATOM      3  C   UNL     1      -0.310  10.965  21.083  0.00  0.00    +0.000 C 
ATOM      4  C   UNL     1       1.045   9.762  19.441  0.00  0.00    +0.000 A 
ATOM      5  C   UNL     1       1.620   9.633  18.184  0.00  0.00    +0.000 A 
ATOM      6  C   UNL     1       2.296   8.476  17.906  0.00  0.00    +0.000 A 
ATOM      7  N   UNL     1       2.406   7.480  18.782  0.00  0.00    +0.000 NA
ATOM      8  C   UNL     1       1.831   7.660  19.978  0.00  0.00    +0.000 A 
ATOM      9  N   UNL     1       1.880   6.616  20.889  0.00  0.00    +0.000 N 
ATOM     10  C   UNL     1       2.232   5.317  20.657  0.00  0.00    +0.000 C 
ATOM     11  O   UNL     1       2.260   4.521  21.592  0.00  0.00    +0.000 OA
ATOM     12  N   UNL     1       2.465   4.964  19.364  0.00  0.00    +0.000 N 
ATOM     13  N   UNL     1       1.182   8.774  20.353  0.00  0.00    +0.000 NA
ATOM     14  H   UNL     1       1.560   6.835  21.818  0.00  0.00    +0.000 HD
ATOM     15  H   UNL     1       2.513   5.727  18.684  0.00  0.00    +0.000 HD
ENDROOT
BRANCH  12  16
ATOM     16  C   UNL     1       2.766   3.627  18.845  0.00  0.00    +0.000 C 
ATOM     17  C   UNL     1       2.886   2.625  19.998  0.00  0.00    +0.000 C 
ATOM     18  C   UNL     1       1.702   3.212  17.820  0.00  0.00    +0.000 C 
BRANCH  16  19
ATOM     19  C   UNL     1       4.160   3.703  18.122  0.00  0.00    +0.000 C 
ATOM     20  O   UNL     1       4.447   2.993  17.159  0.00  0.00    +0.000 OA
ATOM     21  N   UNL     1       5.043   4.630  18.648  0.00  0.00    +0.000 N 
ATOM     22  H   UNL     1       4.760   5.180  19.447  0.00  0.00    +0.000 HD
BRANCH  21  23
ATOM     23  C   UNL     1       6.388   4.842  18.146  0.00  0.00    +0.000 C 
BRANCH  23  24
ATOM     24  C   UNL     1       6.479   5.894  17.010  0.00  0.00    +0.000 C 
ATOM     25  C   UNL     1       7.460   7.018  17.379  0.00  0.00    +0.000 C 
ATOM     26  C   UNL     1       6.991   5.196  15.736  0.00  0.00    +0.000 C 
ATOM     27  C   UNL     1       5.098   6.502  16.708  0.00  0.00    +0.000 C 
ENDBRANCH  23  24
ENDBRANCH  21  23
ENDBRANCH  16  19
ENDBRANCH  12  16
TORSDOF 4
ENDMDL
MODEL 6
REMARK VINA RESULT:      -7.4      1.241      1.660
REMARK  Name = 
REMARK  11 active torsions:
REMARK  status: ('A' for Active; 'I' for Inactive)
REMARK    1  A    between atoms: C_1  and  N_2
REMARK    2  A    between atoms: N_2  and  C_3
REMARK    3  A    between atoms: N_12  and  C_13
REMARK    4  A    between atoms: C_13  and  C_14
REMARK    5  A    between atoms: C_13  and  C_15
REMARK    6  A    between atoms: C_13  and  C_16
REMARK    7  A    between atoms: N_18  and  C_19
REMARK    8  A    between atoms: C_19  and  C_20
REMARK    9  A    between atoms: C_20  and  C_21
REMARK   10  A    between atoms: C_20  and  C_22
REMARK   11  A    between atoms: C_20  and  C_23
REMARK                            x       y       z     vdW  Elec       q    Type
REMARK                         _______ _______ _______ _____ _____    ______ ____
ROOT
ATOM      1  C   UNL     1      -0.437  11.764  20.373  0.00  0.00    +0.000 C 
ATOM      2  N   UNL     1      -0.003  10.599  21.122  0.00  0.00    +0.000 N 
ATOM      3  C   UNL     1      -0.487  10.411  22.480  0.00  0.00    +0.000 C 
ATOM      4  C   UNL     1       0.727   9.578  20.528  0.00  0.00    +0.000 A 
ATOM      5  C   UNL     1       1.166   9.692  19.216  0.00  0.00    +0.000 A 
ATOM      6  C   UNL     1       1.854   8.639  18.677  0.00  0.00    +0.000 A 
ATOM      7  N   UNL     1       2.100   7.519  19.355  0.00  0.00    +0.000 NA
ATOM      8  C   UNL     1       1.653   7.465  20.616  0.00  0.00    +0.000 A 
ATOM      9  N   UNL     1       1.844   6.290  21.327  0.00  0.00    +0.000 N 
ATOM     10  C   UNL     1       2.221   5.071  20.842  0.00  0.00    +0.000 C 
ATOM     11  O   UNL     1       2.385   4.134  21.620  0.00  0.00    +0.000 OA
ATOM     12  N   UNL     1       2.325   4.950  19.491  0.00  0.00    +0.000 N 
ATOM     13  N   UNL     1       1.004   8.462  21.240  0.00  0.00    +0.000 NA
ATOM     14  H   UNL     1       1.620   6.334  22.307  0.00  0.00    +0.000 HD
ATOM     15  H   UNL     1       2.267   5.816  18.950  0.00  0.00    +0.000 HD
ENDROOT
BRANCH  12  16
ATOM     16  C   UNL     1       2.622   3.737  18.724  0.00  0.00    +0.000 C 
ATOM     17  C   UNL     1       2.185   2.494  19.506  0.00  0.00    +0.000 C 
ATOM     18  C   UNL     1       1.961   3.818  17.341  0.00  0.00    +0.000 C 
BRANCH  16  19
ATOM     19  C   UNL     1       4.181   3.667  18.533  0.00  0.00    +0.000 C 
ATOM     20  O   UNL     1       4.938   3.251  19.410  0.00  0.00    +0.000 OA
ATOM     21  N   UNL     1       4.642   4.107  17.304  0.00  0.00    +0.000 N 
ATOM     22  H   UNL     1       3.977   4.449  16.625  0.00  0.00    +0.000 HD
BRANCH  21  23
ATOM     23  C   UNL     1       6.044   4.149  16.933  0.00  0.00    +0.000 C 
BRANCH  23  24
ATOM     24  C   UNL     1       6.452   5.425  16.153  0.00  0.00    +0.000 C 
ATOM     25  C   UNL     1       7.189   5.063  14.853  0.00  0.00    +0.000 C 
ATOM     26  C   UNL     1       5.175   6.208  15.790  0.00  0.00    +0.000 C 
ATOM     27  C   UNL     1       7.350   6.334  17.011  0.00  0.00    +0.000 C 
ENDBRANCH  23  24
ENDBRANCH  21  23
ENDBRANCH  16  19
ENDBRANCH  12  16
TORSDOF 4
ENDMDL
MODEL 7
REMARK VINA RESULT:      -7.3      0.771      1.013
REMARK  Name = 
REMARK  11 active torsions:
REMARK  status: ('A' for Active; 'I' for Inactive)
REMARK    1  A    between atoms: C_1  and  N_2
REMARK    2  A    between atoms: N_2  and  C_3
REMARK    3  A    between atoms: N_12  and  C_13
REMARK    4  A    between atoms: C_13  and  C_14
REMARK    5  A    between atoms: C_13  and  C_15
REMARK    6  A    between atoms: C_13  and  C_16
REMARK    7  A    between atoms: N_18  and  C_19
REMARK    8  A    between atoms: C_19  and  C_20
REMARK    9  A    between atoms: C_20  and  C_21
REMARK   10  A    between atoms: C_20  and  C_22
REMARK   11  A    between atoms: C_20  and  C_23
REMARK                            x       y       z     vdW  Elec       q    Type
REMARK                         _______ _______ _______ _____ _____    ______ ____
ROOT
ATOM      1  C   UNL     1       0.685  11.572  18.664  0.00  0.00    +0.000 C 
ATOM      2  N   UNL     1       0.944  10.579  19.691  0.00  0.00    +0.000 N 
ATOM      3  C   UNL     1       0.499  10.835  21.051  0.00  0.00    +0.000 C 
ATOM      4  C   UNL     1       1.456   9.325  19.382  0.00  0.00    +0.000 A 
ATOM      5  C   UNL     1       1.844   9.019  18.086  0.00  0.00    +0.000 A 
ATOM      6  C   UNL     1       2.312   7.756  17.838  0.00  0.00    +0.000 A 
ATOM      7  N   UNL     1       2.390   6.822  18.784  0.00  0.00    +0.000 NA
ATOM      8  C   UNL     1       2.001   7.174  20.016  0.00  0.00    +0.000 A 
ATOM      9  N   UNL     1       2.018   6.204  21.007  0.00  0.00    +0.000 N 
ATOM     10  C   UNL     1       2.153   4.855  20.856  0.00  0.00    +0.000 C 
ATOM     11  O   UNL     1       2.187   4.134  21.850  0.00  0.00    +0.000 OA
ATOM     12  N   UNL     1       2.170   4.376  19.583  0.00  0.00    +0.000 N 
ATOM     13  N   UNL     1       1.566   8.397  20.360  0.00  0.00    +0.000 NA
ATOM     14  H   UNL     1       1.852   6.537  21.943  0.00  0.00    +0.000 HD
ATOM     15  H   UNL     1       2.238   5.071  18.835  0.00  0.00    +0.000 HD
ENDROOT
BRANCH  12  16
ATOM     16  C   UNL     1       2.214   2.974  19.156  0.00  0.00    +0.000 C 
ATOM     17  C   UNL     1       2.746   2.092  20.290  0.00  0.00    +0.000 C 
ATOM     18  C   UNL     1       0.826   2.530  18.675  0.00  0.00    +0.000 C 
BRANCH  16  19
ATOM     19  C   UNL     1       3.220   2.876  17.953  0.00  0.00    +0.000 C 
ATOM     20  O   UNL     1       3.518   1.807  17.422  0.00  0.00    +0.000 OA
ATOM     21  N   UNL     1       3.748   4.085  17.531  0.00  0.00    +0.000 N 
ATOM     22  H   UNL     1       3.477   4.932  18.009  0.00  0.00    +0.000 HD
BRANCH  21  23
ATOM     23  C   UNL     1       4.711   4.215  16.453  0.00  0.00    +0.000 C 
BRANCH  23  24
ATOM     24  C   UNL     1       5.695   5.400  16.627  0.00  0.00    +0.000 C 
ATOM     25  C   UNL     1       6.059   5.601  18.107  0.00  0.00    +0.000 C 
ATOM     26  C   UNL     1       6.985   5.086  15.845  0.00  0.00    +0.000 C 
ATOM     27  C   UNL     1       5.095   6.703  16.069  0.00  0.00    +0.000 C 
ENDBRANCH  23  24
ENDBRANCH  21  23
ENDBRANCH  16  19
ENDBRANCH  12  16
TORSDOF 4
ENDMDL
MODEL 8
REMARK VINA RESULT:      -7.3      1.243      1.453
REMARK  Name = 
REMARK  11 active torsions:
REMARK  status: ('A' for Active; 'I' for Inactive)
REMARK    1  A    between atoms: C_1  and  N_2
REMARK    2  A    between atoms: N_2  and  C_3
REMARK    3  A    between atoms: N_12  and  C_13
REMARK    4  A    between atoms: C_13  and  C_14
REMARK    5  A    between atoms: C_13  and  C_15
REMARK    6  A    between atoms: C_13  and  C_16
REMARK    7  A    between atoms: N_18  and  C_19
REMARK    8  A    between atoms: C_19  and  C_20
REMARK    9  A    between atoms: C_20  and  C_21
REMARK   10  A    between atoms: C_20  and  C_22
REMARK   11  A    between atoms: C_20  and  C_23
REMARK                            x       y       z     vdW  Elec       q    Type
REMARK                         _______ _______ _______ _____ _____    ______ ____
ROOT
ATOM      1  C   UNL     1      -0.220  12.273  19.041  0.00  0.00    +0.000 C 
ATOM      2  N   UNL     1       0.140  11.225  19.979  0.00  0.00    +0.000 N 
ATOM      3  C   UNL     1      -0.363  11.291  21.341  0.00  0.00    +0.000 C 
ATOM      4  C   UNL     1       0.813  10.080  19.572  0.00  0.00    +0.000 A 
ATOM      5  C   UNL     1       1.266   9.951  18.267  0.00  0.00    +0.000 A 
ATOM      6  C   UNL     1       1.896   8.787  17.919  0.00  0.00    +0.000 A 
ATOM      7  N   UNL     1       2.071   7.782  18.775  0.00  0.00    +0.000 NA
ATOM      8  C   UNL     1       1.613   7.962  20.020  0.00  0.00    +0.000 A 
ATOM      9  N   UNL     1       1.730   6.911  20.917  0.00  0.00    +0.000 N 
ATOM     10  C   UNL     1       2.038   5.609  20.645  0.00  0.00    +0.000 C 
ATOM     11  O   UNL     1       2.142   4.806  21.568  0.00  0.00    +0.000 OA
ATOM     12  N   UNL     1       2.144   5.262  19.334  0.00  0.00    +0.000 N 
ATOM     13  N   UNL     1       1.019   9.083  20.462  0.00  0.00    +0.000 NA
ATOM     14  H   UNL     1       1.502   7.128  21.873  0.00  0.00    +0.000 HD
ATOM     15  H   UNL     1       2.141   6.029  18.657  0.00  0.00    +0.000 HD
ENDROOT
BRANCH  12  16
ATOM     16  C   UNL     1       2.375   3.925  18.781  0.00  0.00    +0.000 C 
ATOM     17  C   UNL     1       1.926   2.853  19.780  0.00  0.00    +0.000 C 
ATOM     18  C   UNL     1       1.668   3.790  17.425  0.00  0.00    +0.000 C 
BRANCH  16  19
ATOM     19  C   UNL     1       3.923   3.763  18.560  0.00  0.00    +0.000 C 
ATOM     20  O   UNL     1       4.479   2.666  18.538  0.00  0.00    +0.000 OA
ATOM     21  N   UNL     1       4.617   4.949  18.391  0.00  0.00    +0.000 N 
ATOM     22  H   UNL     1       4.112   5.823  18.429  0.00  0.00    +0.000 HD
BRANCH  21  23
ATOM     23  C   UNL     1       6.054   5.026  18.199  0.00  0.00    +0.000 C 
BRANCH  23  24
ATOM     24  C   UNL     1       6.479   5.792  16.920  0.00  0.00    +0.000 C 
ATOM     25  C   UNL     1       5.270   6.478  16.262  0.00  0.00    +0.000 C 
ATOM     26  C   UNL     1       7.501   6.875  17.314  0.00  0.00    +0.000 C 
ATOM     27  C   UNL     1       7.142   4.845  15.904  0.00  0.00    +0.000 C 
ENDBRANCH  23  24
ENDBRANCH  21  23
ENDBRANCH  16  19
ENDBRANCH  12  16
TORSDOF 4
ENDMDL
MODEL 9
REMARK VINA RESULT:      -7.2      1.501      1.971
REMARK  Name = 
REMARK  11 active torsions:
REMARK  status: ('A' for Active; 'I' for Inactive)
REMARK    1  A    between atoms: C_1  and  N_2
REMARK    2  A    between atoms: N_2  and  C_3
REMARK    3  A    between atoms: N_12  and  C_13
REMARK    4  A    between atoms: C_13  and  C_14
REMARK    5  A    between atoms: C_13  and  C_15
REMARK    6  A    between atoms: C_13  and  C_16
REMARK    7  A    between atoms: N_18  and  C_19
REMARK    8  A    between atoms: C_19  and  C_20
REMARK    9  A    between atoms: C_20  and  C_21
REMARK   10  A    between atoms: C_20  and  C_22
REMARK   11  A    between atoms: C_20  and  C_23
REMARK                            x       y       z     vdW  Elec       q    Type
REMARK                         _______ _______ _______ _____ _____    ______ ____
ROOT
ATOM      1  C   UNL     1      -0.688  11.843  21.165  0.00  0.00    +0.000 C 
ATOM      2  N   UNL     1      -0.182  10.610  21.741  0.00  0.00    +0.000 N 
ATOM      3  C   UNL     1      -0.583  10.242  23.089  0.00  0.00    +0.000 C 
ATOM      4  C   UNL     1       0.540   9.693  20.987  0.00  0.00    +0.000 A 
ATOM      5  C   UNL     1       0.900   9.980  19.679  0.00  0.00    +0.000 A 
ATOM      6  C   UNL     1       1.584   9.024  18.978  0.00  0.00    +0.000 A 
ATOM      7  N   UNL     1       1.897   7.839  19.498  0.00  0.00    +0.000 NA
ATOM      8  C   UNL     1       1.524   7.617  20.765  0.00  0.00    +0.000 A 
ATOM      9  N   UNL     1       1.785   6.371  21.313  0.00  0.00    +0.000 N 
ATOM     10  C   UNL     1       2.165   5.232  20.663  0.00  0.00    +0.000 C 
ATOM     11  O   UNL     1       2.397   4.214  21.309  0.00  0.00    +0.000 OA
ATOM     12  N   UNL     1       2.196   5.281  19.304  0.00  0.00    +0.000 N 
ATOM     13  N   UNL     1       0.885   8.508  21.541  0.00  0.00    +0.000 NA
ATOM     14  H   UNL     1       1.616   6.287  22.302  0.00  0.00    +0.000 HD
ATOM     15  H   UNL     1       2.085   6.204  18.877  0.00  0.00    +0.000 HD
ENDROOT
BRANCH  12  16
ATOM     16  C   UNL     1       2.480   4.181  18.377  0.00  0.00    +0.000 C 
ATOM     17  C   UNL     1       2.884   2.924  19.155  0.00  0.00    +0.000 C 
ATOM     18  C   UNL     1       1.269   3.939  17.465  0.00  0.00    +0.000 C 
BRANCH  16  19
ATOM     19  C   UNL     1       3.702   4.614  17.488  0.00  0.00    +0.000 C 
ATOM     20  O   UNL     1       4.119   3.930  16.555  0.00  0.00    +0.000 OA
ATOM     21  N   UNL     1       4.276   5.827  17.832  0.00  0.00    +0.000 N 
ATOM     22  H   UNL     1       3.900   6.343  18.614  0.00  0.00    +0.000 HD
BRANCH  21  23
ATOM     23  C   UNL     1       5.427   6.398  17.157  0.00  0.00    +0.000 C 
BRANCH  23  24
ATOM     24  C   UNL     1       6.784   6.049  17.820  0.00  0.00    +0.000 C 
ATOM     25  C   UNL     1       6.581   5.561  19.264  0.00  0.00    +0.000 C 
ATOM     26  C   UNL     1       7.450   4.920  17.011  0.00  0.00    +0.000 C 
ATOM     27  C   UNL     1       7.726   7.266  17.822  0.00  0.00    +0.000 C 
ENDBRANCH  23  24
ENDBRANCH  21  23
ENDBRANCH  16  19
ENDBRANCH  12  16
TORSDOF 4
ENDMDL
