MODEL 1
REMARK VINA RESULT:      -7.5      0.000      0.000
REMARK  Name = 
REMARK  5 active torsions:
REMARK  status: ('A' for Active; 'I' for Inactive)
REMARK    1  A    between atoms: C_1  and  O_2
REMARK    2  A    between atoms: O_2  and  C_3
REMARK    3  A    between atoms: C_3  and  C_4
REMARK    4  A    between atoms: C_11  and  N_12
REMARK    5  A    between atoms: C_13  and  C_15
REMARK                            x       y       z     vdW  Elec       q    Type
REMARK                         _______ _______ _______ _____ _____    ______ ____
ROOT
ATOM      1  C   UNL     1       1.563   4.487  20.217  0.00  0.00    +0.000 A 
ATOM      2  C   UNL     1       1.313   5.636  20.876  0.00  0.00    +0.000 A 
ATOM      3  C   UNL     1       1.869   6.939  20.455  0.00  0.00    +0.000 A 
ATOM      4  O   UNL     1       1.612   7.962  21.076  0.00  0.00    +0.000 OA
ATOM      5  N   UNL     1       2.660   6.929  19.347  0.00  0.00    +0.000 N 
ATOM      6  C   UNL     1       2.956   5.772  18.618  0.00  0.00    +0.000 A 
ATOM      7  C   UNL     1       3.785   5.897  17.498  0.00  0.00    +0.000 A 
ATOM      8  C   UNL     1       4.119   4.781  16.734  0.00  0.00    +0.000 A 
ATOM      9  C   UNL     1       3.601   3.539  17.114  0.00  0.00    +0.000 A 
ATOM     10  C   UNL     1       2.764   3.415  18.239  0.00  0.00    +0.000 A 
ATOM     11  C   UNL     1       2.429   4.534  19.013  0.00  0.00    +0.000 A 
ATOM     12  H   UNL     1       3.041   7.822  19.063  0.00  0.00    +0.000 HD
ENDROOT
BRANCH   8  13
ATOM     13  N   UNL     1       4.960   4.844  15.603  0.00  0.00    +0.000 N 
ATOM     14  C   UNL     1       6.325   4.591  15.555  0.00  0.00    +0.000 C 
ATOM     15  O   UNL     1       7.026   4.300  16.520  0.00  0.00    +0.000 OA
ATOM     16  H   UNL     1       4.539   5.095  14.715  0.00  0.00    +0.000 HD
BRANCH  14  17
ATOM     17  C   UNL     1       6.896   4.701  14.227  0.00  0.00    +0.000 A 
ATOM     18  C   UNL     1       6.585   4.021  13.065  0.00  0.00    +0.000 A 
ATOM     19  C   UNL     1       7.433   4.529  12.056  0.00  0.00    +0.000 A 
ATOM     20  C   UNL     1       8.217   5.484  12.663  0.00  0.00    +0.000 A 
ATOM     21  O   UNL     1       7.903   5.597  13.980  0.00  0.00    +0.000 OA
ENDBRANCH  14  17
ENDBRANCH   8  13
BRANCH   1  22
ATOM     22  C   UNL     1       0.944   3.201  20.688  0.00  0.00    +0.000 C 
BRANCH  22  24
ATOM     23  C   UNL     1       2.892   2.301  21.656  0.00  0.00    +0.000 C 
ATOM     24  O   UNL     1       1.575   2.777  21.894  0.00  0.00    +0.000 OA
ENDBRANCH  22  24
ENDBRANCH   1  22
TORSDOF 4
ENDMDL
MODEL 2
REMARK VINA RESULT:      -7.1      3.206      4.829
REMARK  Name = 
REMARK  5 active torsions:
REMARK  status: ('A' for Active; 'I' for Inactive)
REMARK    1  A    between atoms: C_1  and  O_2
REMARK    2  A    between atoms: O_2  and  C_3
REMARK    3  A    between atoms: C_3  and  C_4
REMARK    4  A    between atoms: C_11  and  N_12
REMARK    5  A    between atoms: C_13  and  C_15
REMARK                            x       y       z     vdW  Elec       q    Type
REMARK                         _______ _______ _______ _____ _____    ______ ____
ROOT
ATOM      1  C   UNL     1       0.380   9.871  20.737  0.00  0.00    +0.000 A 
ATOM      2  C   UNL     1      -0.067  11.026  20.207  0.00  0.00    +0.000 A 
ATOM      3  C   UNL     1       0.232  11.441  18.821  0.00  0.00    +0.000 A 
ATOM      4  O   UNL     1      -0.200  12.496  18.373  0.00  0.00    +0.000 OA
ATOM      5  N   UNL     1       0.995  10.587  18.086  0.00  0.00    +0.000 N 
ATOM      6  C   UNL     1       1.490   9.374  18.576  0.00  0.00    +0.000 A 
ATOM      7  C   UNL     1       2.265   8.587  17.718  0.00  0.00    +0.000 A 
ATOM      8  C   UNL     1       2.788   7.370  18.150  0.00  0.00    +0.000 A 
ATOM      9  C   UNL     1       2.514   6.957  19.457  0.00  0.00    +0.000 A 
ATOM     10  C   UNL     1       1.730   7.748  20.318  0.00  0.00    +0.000 A 
ATOM     11  C   UNL     1       1.205   8.974  19.891  0.00  0.00    +0.000 A 
ATOM     12  H   UNL     1       1.202  10.876  17.138  0.00  0.00    +0.000 HD
ENDROOT
BRANCH   8  13
ATOM     13  N   UNL     1       3.587   6.540  17.333  0.00  0.00    +0.000 N 
ATOM     14  C   UNL     1       4.941   6.683  17.061  0.00  0.00    +0.000 C 
ATOM     15  O   UNL     1       5.656   7.593  17.474  0.00  0.00    +0.000 OA
ATOM     16  H   UNL     1       3.142   5.743  16.892  0.00  0.00    +0.000 HD
BRANCH  14  17
ATOM     17  C   UNL     1       5.483   5.638  16.215  0.00  0.00    +0.000 A 
ATOM     18  C   UNL     1       5.110   4.313  16.086  0.00  0.00    +0.000 A 
ATOM     19  C   UNL     1       5.956   3.745  15.108  0.00  0.00    +0.000 A 
ATOM     20  C   UNL     1       6.799   4.753  14.702  0.00  0.00    +0.000 A 
ATOM     21  O   UNL     1       6.525   5.907  15.367  0.00  0.00    +0.000 OA
ENDBRANCH  14  17
ENDBRANCH   8  13
BRANCH   1  22
ATOM     22  C   UNL     1       0.017   9.500  22.148  0.00  0.00    +0.000 C 
BRANCH  22  24
ATOM     23  C   UNL     1      -1.406  11.012  23.258  0.00  0.00    +0.000 C 
ATOM     24  O   UNL     1      -0.060  10.676  22.950  0.00  0.00    +0.000 OA
ENDBRANCH  22  24
ENDBRANCH   1  22
TORSDOF 4
ENDMDL
MODEL 3
REMARK VINA RESULT:      -7.0      3.100      8.437
REMARK  Name = 
REMARK  5 active torsions:
REMARK  status: ('A' for Active; 'I' for Inactive)
REMARK    1  A    between atoms: C_1  and  O_2
REMARK    2  A    between atoms: O_2  and  C_3
REMARK    3  A    between atoms: C_3  and  C_4
REMARK    4  A    between atoms: C_11  and  N_12
REMARK    5  A    between atoms: C_13  and  C_15
REMARK                            x       y       z     vdW  Elec       q    Type
REMARK                         _______ _______ _______ _____ _____    ______ ____
ROOT
ATOM      1  C   UNL     1       4.406   5.594  17.513  0.00  0.00    +0.000 A 
ATOM      2  C   UNL     1       4.692   4.407  18.082  0.00  0.00    +0.000 A 
ATOM      3  C   UNL     1       4.125   3.982  19.378  0.00  0.00    +0.000 A 
ATOM      4  O   UNL     1       4.404   2.890  19.859  0.00  0.00    +0.000 OA
ATOM      5  N   UNL     1       3.281   4.860  19.985  0.00  0.00    +0.000 N 
ATOM      6  C   UNL     1       2.942   6.106  19.447  0.00  0.00    +0.000 A 
ATOM      7  C   UNL     1       2.063   6.916  20.173  0.00  0.00    +0.000 A 
ATOM      8  C   UNL     1       1.691   8.170  19.691  0.00  0.00    +0.000 A 
ATOM      9  C   UNL     1       2.215   8.590  18.465  0.00  0.00    +0.000 A 
ATOM     10  C   UNL     1       3.095   7.771  17.733  0.00  0.00    +0.000 A 
ATOM     11  C   UNL     1       3.476   6.512  18.216  0.00  0.00    +0.000 A 
ATOM     12  H   UNL     1       2.896   4.567  20.875  0.00  0.00    +0.000 HD
ENDROOT
BRANCH   8  13
ATOM     13  N   UNL     1       0.819   9.035  20.386  0.00  0.00    +0.000 N 
ATOM     14  C   UNL     1       0.990   9.552  21.664  0.00  0.00    +0.000 C 
ATOM     15  O   UNL     1       1.932   9.300  22.410  0.00  0.00    +0.000 OA
ATOM     16  H   UNL     1      -0.029   9.329  19.914  0.00  0.00    +0.000 HD
BRANCH  14  17
ATOM     17  C   UNL     1      -0.069  10.451  22.079  0.00  0.00    +0.000 A 
ATOM     18  C   UNL     1      -0.963  10.350  23.129  0.00  0.00    +0.000 A 
ATOM     19  C   UNL     1      -1.768  11.510  23.092  0.00  0.00    +0.000 A 
ATOM     20  C   UNL     1      -1.323  12.247  22.019  0.00  0.00    +0.000 A 
ATOM     21  O   UNL     1      -0.294  11.616  21.394  0.00  0.00    +0.000 OA
ENDBRANCH  14  17
ENDBRANCH   8  13
BRANCH   1  22
ATOM     22  C   UNL     1       5.000   5.952  16.179  0.00  0.00    +0.000 C 
BRANCH  22  24
ATOM     23  C   UNL     1       6.704   4.797  15.037  0.00  0.00    +0.000 C 
ATOM     24  O   UNL     1       5.353   4.764  15.475  0.00  0.00    +0.000 OA
ENDBRANCH  22  24
ENDBRANCH   1  22
TORSDOF 4
ENDMDL
MODEL 4
REMARK VINA RESULT:      -6.9      1.262      2.931
REMARK  Name = 
REMARK  5 active torsions:
REMARK  status: ('A' for Active; 'I' for Inactive)
REMARK    1  A    between atoms: C_1  and  O_2
REMARK    2  A    between atoms: O_2  and  C_3
REMARK    3  A    between atoms: C_3  and  C_4
REMARK    4  A    between atoms: C_11  and  N_12
REMARK    5  A    between atoms: C_13  and  C_15
REMARK                            x       y       z     vdW  Elec       q    Type
REMARK                         _______ _______ _______ _____ _____    ______ ____
ROOT
ATOM      1  C   UNL     1       1.895   6.321  20.307  0.00  0.00    +0.000 A 
ATOM      2  C   UNL     1       1.343   5.221  20.853  0.00  0.00    +0.000 A 
ATOM      3  C   UNL     1       1.559   3.863  20.312  0.00  0.00    +0.000 A 
ATOM      4  O   UNL     1       1.045   2.885  20.842  0.00  0.00    +0.000 OA
ATOM      5  N   UNL     1       2.359   3.770  19.215  0.00  0.00    +0.000 N 
ATOM      6  C   UNL     1       2.964   4.872  18.602  0.00  0.00    +0.000 A 
ATOM      7  C   UNL     1       3.763   4.642  17.478  0.00  0.00    +0.000 A 
ATOM      8  C   UNL     1       4.389   5.700  16.822  0.00  0.00    +0.000 A 
ATOM      9  C   UNL     1       4.199   6.993  17.320  0.00  0.00    +0.000 A 
ATOM     10  C   UNL     1       3.398   7.223  18.454  0.00  0.00    +0.000 A 
ATOM     11  C   UNL     1       2.763   6.163  19.114  0.00  0.00    +0.000 A 
ATOM     12  H   UNL     1       2.503   2.839  18.845  0.00  0.00    +0.000 HD
ENDROOT
BRANCH   8  13
ATOM     13  N   UNL     1       5.196   5.529  15.677  0.00  0.00    +0.000 N 
ATOM     14  C   UNL     1       5.898   4.388  15.307  0.00  0.00    +0.000 C 
ATOM     15  O   UNL     1       5.949   3.346  15.954  0.00  0.00    +0.000 OA
ATOM     16  H   UNL     1       5.280   6.311  15.037  0.00  0.00    +0.000 HD
BRANCH  14  17
ATOM     17  C   UNL     1       6.602   4.517  14.047  0.00  0.00    +0.000 A 
ATOM     18  C   UNL     1       6.423   3.843  12.853  0.00  0.00    +0.000 A 
ATOM     19  C   UNL     1       7.365   4.370  11.941  0.00  0.00    +0.000 A 
ATOM     20  C   UNL     1       8.067   5.330  12.633  0.00  0.00    +0.000 A 
ATOM     21  O   UNL     1       7.616   5.428  13.912  0.00  0.00    +0.000 OA
ENDBRANCH  14  17
ENDBRANCH   8  13
BRANCH   1  22
ATOM     22  C   UNL     1       1.652   7.670  20.925  0.00  0.00    +0.000 C 
BRANCH  22  24
ATOM     23  C   UNL     1      -0.006   9.046  21.874  0.00  0.00    +0.000 C 
ATOM     24  O   UNL     1       0.256   7.850  21.153  0.00  0.00    +0.000 OA
ENDBRANCH  22  24
ENDBRANCH   1  22
TORSDOF 4
ENDMDL
MODEL 5
REMARK VINA RESULT:      -6.9      3.316      7.256
REMARK  Name = 
REMARK  5 active torsions:
REMARK  status: ('A' for Active; 'I' for Inactive)
REMARK    1  A    between atoms: C_1  and  O_2
REMARK    2  A    between atoms: O_2  and  C_3
REMARK    3  A    between atoms: C_3  and  C_4
REMARK    4  A    between atoms: C_11  and  N_12
REMARK    5  A    between atoms: C_13  and  C_15
REMARK                            x       y       z     vdW  Elec       q    Type
REMARK                         _______ _______ _______ _____ _____    ______ ____
ROOT
ATOM      1  C   UNL     1       5.255   4.597  18.320  0.00  0.00    +0.000 A 
ATOM      2  C   UNL     1       4.938   3.535  19.084  0.00  0.00    +0.000 A 
ATOM      3  C   UNL     1       3.659   3.427  19.816  0.00  0.00    +0.000 A 
ATOM      4  O   UNL     1       3.404   2.440  20.495  0.00  0.00    +0.000 OA
ATOM      5  N   UNL     1       2.795   4.470  19.681  0.00  0.00    +0.000 N 
ATOM      6  C   UNL     1       3.063   5.600  18.902  0.00  0.00    +0.000 A 
ATOM      7  C   UNL     1       2.091   6.605  18.847  0.00  0.00    +0.000 A 
ATOM      8  C   UNL     1       2.302   7.756  18.091  0.00  0.00    +0.000 A 
ATOM      9  C   UNL     1       3.505   7.877  17.389  0.00  0.00    +0.000 A 
ATOM     10  C   UNL     1       4.480   6.863  17.441  0.00  0.00    +0.000 A 
ATOM     11  C   UNL     1       4.275   5.706  18.203  0.00  0.00    +0.000 A 
ATOM     12  H   UNL     1       1.921   4.394  20.186  0.00  0.00    +0.000 HD
ENDROOT
BRANCH   8  13
ATOM     13  N   UNL     1       1.363   8.807  18.009  0.00  0.00    +0.000 N 
ATOM     14  C   UNL     1       0.900   9.603  19.049  0.00  0.00    +0.000 C 
ATOM     15  O   UNL     1       1.221   9.486  20.229  0.00  0.00    +0.000 OA
ATOM     16  H   UNL     1       0.977   9.025  17.098  0.00  0.00    +0.000 HD
BRANCH  14  17
ATOM     17  C   UNL     1      -0.034  10.630  18.631  0.00  0.00    +0.000 A 
ATOM     18  C   UNL     1      -1.252  10.518  17.987  0.00  0.00    +0.000 A 
ATOM     19  C   UNL     1      -1.755  11.829  17.836  0.00  0.00    +0.000 A 
ATOM     20  C   UNL     1      -0.813  12.664  18.390  0.00  0.00    +0.000 A 
ATOM     21  O   UNL     1       0.237  11.951  18.875  0.00  0.00    +0.000 OA
ENDBRANCH  14  17
ENDBRANCH   8  13
BRANCH   1  22
ATOM     22  C   UNL     1       6.565   4.630  17.583  0.00  0.00    +0.000 C 
BRANCH  22  24
ATOM     23  C   UNL     1       7.890   5.865  19.087  0.00  0.00    +0.000 C 
ATOM     24  O   UNL     1       7.642   4.587  18.515  0.00  0.00    +0.000 OA
ENDBRANCH  22  24
ENDBRANCH   1  22
TORSDOF 4
ENDMDL
MODEL 6
REMARK VINA RESULT:      -6.8      2.644      8.068
REMARK  Name = 
REMARK  5 active torsions:
REMARK  status: ('A' for Active; 'I' for Inactive)
REMARK    1  A    between atoms: C_1  and  O_2
REMARK    2  A    between atoms: O_2  and  C_3
REMARK    3  A    between atoms: C_3  and  C_4
REMARK    4  A    between atoms: C_11  and  N_12
REMARK    5  A    between atoms: C_13  and  C_15
REMARK                            x       y       z     vdW  Elec       q    Type
REMARK                         _______ _______ _______ _____ _____    ______ ____
ROOT
ATOM      1  C   UNL     1       4.324   4.358  17.091  0.00  0.00    +0.000 A 
ATOM      2  C   UNL     1       4.308   3.053  17.421  0.00  0.00    +0.000 A 
ATOM      3  C   UNL     1       3.599   2.535  18.610  0.00  0.00    +0.000 A 
ATOM      4  O   UNL     1       3.601   1.339  18.872  0.00  0.00    +0.000 OA
ATOM      5  N   UNL     1       2.947   3.455  19.373  0.00  0.00    +0.000 N 
ATOM      6  C   UNL     1       2.924   4.824  19.084  0.00  0.00    +0.000 A 
ATOM      7  C   UNL     1       2.219   5.665  19.950  0.00  0.00    +0.000 A 
ATOM      8  C   UNL     1       2.163   7.038  19.718  0.00  0.00    +0.000 A 
ATOM      9  C   UNL     1       2.825   7.547  18.597  0.00  0.00    +0.000 A 
ATOM     10  C   UNL     1       3.531   6.699  17.723  0.00  0.00    +0.000 A 
ATOM     11  C   UNL     1       3.594   5.318  17.955  0.00  0.00    +0.000 A 
ATOM     12  H   UNL     1       2.465   3.098  20.188  0.00  0.00    +0.000 HD
ENDROOT
BRANCH   8  13
ATOM     13  N   UNL     1       1.477   7.936  20.564  0.00  0.00    +0.000 N 
ATOM     14  C   UNL     1       0.829   9.108  20.196  0.00  0.00    +0.000 C 
ATOM     15  O   UNL     1       0.783   9.565  19.057  0.00  0.00    +0.000 OA
ATOM     16  H   UNL     1       1.437   7.715  21.552  0.00  0.00    +0.000 HD
BRANCH  14  17
ATOM     17  C   UNL     1       0.180   9.790  21.298  0.00  0.00    +0.000 A 
ATOM     18  C   UNL     1      -0.338   9.286  22.476  0.00  0.00    +0.000 A 
ATOM     19  C   UNL     1      -0.838  10.388  23.206  0.00  0.00    +0.000 A 
ATOM     20  C   UNL     1      -0.602  11.498  22.428  0.00  0.00    +0.000 A 
ATOM     21  O   UNL     1       0.013  11.150  21.267  0.00  0.00    +0.000 OA
ENDBRANCH  14  17
ENDBRANCH   8  13
BRANCH   1  22
ATOM     22  C   UNL     1       5.046   4.812  15.853  0.00  0.00    +0.000 C 
BRANCH  22  24
ATOM     23  C   UNL     1       7.166   4.891  14.832  0.00  0.00    +0.000 C 
ATOM     24  O   UNL     1       6.453   4.691  16.045  0.00  0.00    +0.000 OA
ENDBRANCH  22  24
ENDBRANCH   1  22
TORSDOF 4
ENDMDL
MODEL 7
REMARK VINA RESULT:      -6.8      3.239      8.538
REMARK  Name = 
REMARK  5 active torsions:
REMARK  status: ('A' for Active; 'I' for Inactive)
REMARK    1  A    between atoms: C_1  and  O_2
REMARK    2  A    between atoms: O_2  and  C_3
REMARK    3  A    between atoms: C_3  and  C_4
REMARK    4  A    between atoms: C_11  and  N_12
REMARK    5  A    between atoms: C_13  and  C_15
REMARK                            x       y       z     vdW  Elec       q    Type
REMARK                         _______ _______ _______ _____ _____    ______ ____
ROOT
ATOM      1  C   UNL     1       4.302   5.673  17.612  0.00  0.00    +0.000 A 
ATOM      2  C   UNL     1       4.531   4.470  18.172  0.00  0.00    +0.000 A 
ATOM      3  C   UNL     1       3.916   4.049  19.449  0.00  0.00    +0.000 A 
ATOM      4  O   UNL     1       4.143   2.942  19.922  0.00  0.00    +0.000 OA
ATOM      5  N   UNL     1       3.089   4.950  20.047  0.00  0.00    +0.000 N 
ATOM      6  C   UNL     1       2.809   6.214  19.517  0.00  0.00    +0.000 A 
ATOM      7  C   UNL     1       1.943   7.047  20.232  0.00  0.00    +0.000 A 
ATOM      8  C   UNL     1       1.628   8.319  19.757  0.00  0.00    +0.000 A 
ATOM      9  C   UNL     1       2.197   8.735  18.550  0.00  0.00    +0.000 A 
ATOM     10  C   UNL     1       3.066   7.894  17.830  0.00  0.00    +0.000 A 
ATOM     11  C   UNL     1       3.388   6.616  18.305  0.00  0.00    +0.000 A 
ATOM     12  H   UNL     1       2.672   4.660  20.922  0.00  0.00    +0.000 HD
ENDROOT
BRANCH   8  13
ATOM     13  N   UNL     1       0.771   9.207  20.442  0.00  0.00    +0.000 N 
ATOM     14  C   UNL     1       0.919   9.687  21.737  0.00  0.00    +0.000 C 
ATOM     15  O   UNL     1       1.822   9.377  22.509  0.00  0.00    +0.000 OA
ATOM     16  H   UNL     1      -0.046   9.549  19.949  0.00  0.00    +0.000 HD
BRANCH  14  17
ATOM     17  C   UNL     1      -0.113  10.623  22.137  0.00  0.00    +0.000 A 
ATOM     18  C   UNL     1      -0.385  11.899  21.681  0.00  0.00    +0.000 A 
ATOM     19  C   UNL     1      -1.513  12.357  22.398  0.00  0.00    +0.000 A 
ATOM     20  C   UNL     1      -1.859  11.337  23.253  0.00  0.00    +0.000 A 
ATOM     21  O   UNL     1      -1.018  10.280  23.108  0.00  0.00    +0.000 OA
ENDBRANCH  14  17
ENDBRANCH   8  13
BRANCH   1  22
ATOM     22  C   UNL     1       4.942   6.026  16.299  0.00  0.00    +0.000 C 
BRANCH  22  24
ATOM     23  C   UNL     1       7.154   6.329  17.042  0.00  0.00    +0.000 C 
ATOM     24  O   UNL     1       5.996   6.960  16.513  0.00  0.00    +0.000 OA
ENDBRANCH  22  24
ENDBRANCH   1  22
TORSDOF 4
ENDMDL
MODEL 8
REMARK VINA RESULT:      -6.8      3.548      5.823
REMARK  Name = 
REMARK  5 active torsions:
REMARK  status: ('A' for Active; 'I' for Inactive)
REMARK    1  A    between atoms: C_1  and  O_2
REMARK    2  A    between atoms: O_2  and  C_3
REMARK    3  A    between atoms: C_3  and  C_4
REMARK    4  A    between atoms: C_11  and  N_12
REMARK    5  A    between atoms: C_13  and  C_15
REMARK                            x       y       z     vdW  Elec       q    Type
REMARK                         _______ _______ _______ _____ _____    ______ ____
ROOT
ATOM      1  C   UNL     1      -0.515  10.694  20.484  0.00  0.00    +0.000 A 
ATOM      2  C   UNL     1      -0.588  10.601  21.826  0.00  0.00    +0.000 A 
ATOM      3  C   UNL     1       0.233   9.655  22.610  0.00  0.00    +0.000 A 
ATOM      4  O   UNL     1       0.143   9.606  23.831  0.00  0.00    +0.000 OA
ATOM      5  N   UNL     1       1.087   8.865  21.903  0.00  0.00    +0.000 N 
ATOM      6  C   UNL     1       1.212   8.914  20.510  0.00  0.00    +0.000 A 
ATOM      7  C   UNL     1       2.126   8.047  19.903  0.00  0.00    +0.000 A 
ATOM      8  C   UNL     1       2.293   8.046  18.520  0.00  0.00    +0.000 A 
ATOM      9  C   UNL     1       1.527   8.935  17.760  0.00  0.00    +0.000 A 
ATOM     10  C   UNL     1       0.611   9.810  18.372  0.00  0.00    +0.000 A 
ATOM     11  C   UNL     1       0.436   9.812  19.763  0.00  0.00    +0.000 A 
ATOM     12  H   UNL     1       1.646   8.216  22.442  0.00  0.00    +0.000 HD
ENDROOT
BRANCH   8  13
ATOM     13  N   UNL     1       3.190   7.185  17.852  0.00  0.00    +0.000 N 
ATOM     14  C   UNL     1       3.181   5.796  17.855  0.00  0.00    +0.000 C 
ATOM     15  O   UNL     1       2.393   5.093  18.481  0.00  0.00    +0.000 OA
ATOM     16  H   UNL     1       3.926   7.608  17.298  0.00  0.00    +0.000 HD
BRANCH  14  17
ATOM     17  C   UNL     1       4.216   5.201  17.032  0.00  0.00    +0.000 A 
ATOM     18  C   UNL     1       4.533   3.873  16.821  0.00  0.00    +0.000 A 
ATOM     19  C   UNL     1       5.615   3.851  15.912  0.00  0.00    +0.000 A 
ATOM     20  C   UNL     1       5.898   5.167  15.627  0.00  0.00    +0.000 A 
ATOM     21  O   UNL     1       5.059   5.997  16.300  0.00  0.00    +0.000 OA
ENDBRANCH  14  17
ENDBRANCH   8  13
BRANCH   1  22
ATOM     22  C   UNL     1      -1.362  11.696  19.752  0.00  0.00    +0.000 C 
BRANCH  22  24
ATOM     23  C   UNL     1      -0.341  13.817  19.792  0.00  0.00    +0.000 C 
ATOM     24  O   UNL     1      -1.290  12.959  20.410  0.00  0.00    +0.000 OA
ENDBRANCH  22  24
ENDBRANCH   1  22
TORSDOF 4
ENDMDL
MODEL 9
REMARK VINA RESULT:      -6.8      3.599      5.852
REMARK  Name = 
REMARK  5 active torsions:
REMARK  status: ('A' for Active; 'I' for Inactive)
REMARK    1  A    between atoms: C_1  and  O_2
REMARK    2  A    between atoms: O_2  and  C_3
REMARK    3  A    between atoms: C_3  and  C_4
REMARK    4  A    between atoms: C_11  and  N_12
REMARK    5  A    between atoms: C_13  and  C_15
REMARK                            x       y       z     vdW  Elec       q    Type
REMARK                         _______ _______ _______ _____ _____    ______ ____
ROOT
ATOM      1  C   UNL     1      -0.562  10.859  20.418  0.00  0.00    +0.000 A 
ATOM      2  C   UNL     1      -0.704  10.751  21.753  0.00  0.00    +0.000 A 
ATOM      3  C   UNL     1       0.048   9.770  22.562  0.00  0.00    +0.000 A 
ATOM      4  O   UNL     1      -0.103   9.708  23.776  0.00  0.00    +0.000 OA
ATOM      5  N   UNL     1       0.911   8.963  21.886  0.00  0.00    +0.000 N 
ATOM      6  C   UNL     1       1.105   9.026  20.502  0.00  0.00    +0.000 A 
ATOM      7  C   UNL     1       2.021   8.138  19.927  0.00  0.00    +0.000 A 
ATOM      8  C   UNL     1       2.255   8.150  18.554  0.00  0.00    +0.000 A 
ATOM      9  C   UNL     1       1.555   9.073  17.770  0.00  0.00    +0.000 A 
ATOM     10  C   UNL     1       0.637   9.968  18.350  0.00  0.00    +0.000 A 
ATOM     11  C   UNL     1       0.395   9.958  19.730  0.00  0.00    +0.000 A 
ATOM     12  H   UNL     1       1.422   8.290  22.442  0.00  0.00    +0.000 HD
ENDROOT
BRANCH   8  13
ATOM     13  N   UNL     1       3.157   7.270  17.918  0.00  0.00    +0.000 N 
ATOM     14  C   UNL     1       3.076   5.885  17.856  0.00  0.00    +0.000 C 
ATOM     15  O   UNL     1       2.206   5.201  18.386  0.00  0.00    +0.000 OA
ATOM     16  H   UNL     1       3.955   7.675  17.442  0.00  0.00    +0.000 HD
BRANCH  14  17
ATOM     17  C   UNL     1       4.141   5.269  17.088  0.00  0.00    +0.000 A 
ATOM     18  C   UNL     1       5.085   5.841  16.256  0.00  0.00    +0.000 A 
ATOM     19  C   UNL     1       5.896   4.789  15.775  0.00  0.00    +0.000 A 
ATOM     20  C   UNL     1       5.395   3.637  16.336  0.00  0.00    +0.000 A 
ATOM     21  O   UNL     1       4.329   3.913  17.132  0.00  0.00    +0.000 OA
ENDBRANCH  14  17
ENDBRANCH   8  13
BRANCH   1  22
ATOM     22  C   UNL     1      -1.342  11.897  19.660  0.00  0.00    +0.000 C 
BRANCH  22  24
ATOM     23  C   UNL     1      -2.596  11.522  17.704  0.00  0.00    +0.000 C 
ATOM     24  O   UNL     1      -2.516  11.308  19.106  0.00  0.00    +0.000 OA
ENDBRANCH  22  24
ENDBRANCH   1  22
TORSDOF 4
ENDMDL
