MODEL 1
REMARK VINA RESULT:      -7.6      0.000      0.000
REMARK  Name = 
REMARK  5 active torsions:
REMARK  status: ('A' for Active; 'I' for Inactive)
REMARK    1  A    between atoms: C_1  and  O_2
REMARK    2  A    between atoms: O_2  and  C_3
REMARK    3  A    between atoms: C_7  and  C_8
REMARK    4  A    between atoms: C_8  and  C_9
REMARK    5  A    between atoms: C_9  and  N_10
REMARK                            x       y       z     vdW  Elec       q    Type
REMARK                         _______ _______ _______ _____ _____    ______ ____
ROOT
ATOM      1  N   UNL     1       4.633   2.948  17.575  0.00  0.00    +0.000 N 
ATOM      2  C   UNL     1       5.521   3.975  17.825  0.00  0.00    +0.000 A 
ATOM      3  N   UNL     1       5.703   4.405  19.058  0.00  0.00    +0.000 NA
ATOM      4  C   UNL     1       6.583   5.448  19.290  0.00  0.00    +0.000 A 
ATOM      5  C   UNL     1       7.274   6.074  18.327  0.00  0.00    +0.000 A 
ATOM      6  N   UNL     1       7.103   5.649  17.027  0.00  0.00    +0.000 N 
ATOM      7  N   UNL     1       7.624   6.072  15.855  0.00  0.00    +0.000 NA
ATOM      8  N   UNL     1       7.078   5.302  14.918  0.00  0.00    +0.000 NA
ATOM      9  N   UNL     1       6.210   4.383  15.463  0.00  0.00    +0.000 NA
ATOM     10  C   UNL     1       6.252   4.612  16.755  0.00  0.00    +0.000 A 
ATOM     11  H   UNL     1       4.440   2.816  16.584  0.00  0.00    +0.000 HD
ENDROOT
BRANCH   1  12
ATOM     12  C   UNL     1       3.453   2.766  18.416  0.00  0.00    +0.000 C 
BRANCH  12  13
ATOM     13  C   UNL     1       2.272   3.629  17.951  0.00  0.00    +0.000 C 
BRANCH  13  18
ATOM     14  C   UNL     1       2.479   7.236  18.672  0.00  0.00    +0.000 A 
ATOM     15  C   UNL     1       2.066   7.367  19.984  0.00  0.00    +0.000 A 
ATOM     16  C   UNL     1       1.710   6.211  20.674  0.00  0.00    +0.000 A 
ATOM     17  C   UNL     1       1.777   4.976  20.029  0.00  0.00    +0.000 A 
ATOM     18  C   UNL     1       2.199   4.936  18.704  0.00  0.00    +0.000 A 
ATOM     19  N   UNL     1       2.548   6.054  18.031  0.00  0.00    +0.000 NA
BRANCH  14  21
ATOM     20  C   UNL     1       1.714   9.282  17.860  0.00  0.00    +0.000 C 
ATOM     21  O   UNL     1       2.818   8.386  17.991  0.00  0.00    +0.000 OA
ENDBRANCH  14  21
ENDBRANCH  13  18
ENDBRANCH  12  13
ENDBRANCH   1  12
TORSDOF 4
ENDMDL
MODEL 2
REMARK VINA RESULT:      -7.4      2.765      5.956
REMARK  Name = 
REMARK  5 active torsions:
REMARK  status: ('A' for Active; 'I' for Inactive)
REMARK    1  A    between atoms: C_1  and  O_2
REMARK    2  A    between atoms: O_2  and  C_3
REMARK    3  A    between atoms: C_7  and  C_8
REMARK    4  A    between atoms: C_8  and  C_9
REMARK    5  A    between atoms: C_9  and  N_10
REMARK                            x       y       z     vdW  Elec       q    Type
REMARK                         _______ _______ _______ _____ _____    ______ ____
ROOT
ATOM      1  N   UNL     1       3.206   5.841  18.989  0.00  0.00    +0.000 N 
ATOM      2  C   UNL     1       2.772   4.529  18.985  0.00  0.00    +0.000 A 
ATOM      3  N   UNL     1       2.620   3.888  17.844  0.00  0.00    +0.000 NA
ATOM      4  C   UNL     1       2.167   2.580  17.856  0.00  0.00    +0.000 A 
ATOM      5  C   UNL     1       1.855   1.905  18.972  0.00  0.00    +0.000 A 
ATOM      6  N   UNL     1       2.001   2.551  20.181  0.00  0.00    +0.000 N 
ATOM      7  N   UNL     1       1.760   2.166  21.453  0.00  0.00    +0.000 NA
ATOM      8  N   UNL     1       2.062   3.216  22.211  0.00  0.00    +0.000 NA
ATOM      9  N   UNL     1       2.498   4.278  21.451  0.00  0.00    +0.000 NA
ATOM     10  C   UNL     1       2.458   3.840  20.215  0.00  0.00    +0.000 A 
ATOM     11  H   UNL     1       3.120   6.290  19.898  0.00  0.00    +0.000 HD
ENDROOT
BRANCH   1  12
ATOM     12  C   UNL     1       2.881   6.732  17.878  0.00  0.00    +0.000 C 
BRANCH  12  13
ATOM     13  C   UNL     1       4.129   7.407  17.294  0.00  0.00    +0.000 C 
BRANCH  13  18
ATOM     14  C   UNL     1       6.975   5.076  17.500  0.00  0.00    +0.000 A 
ATOM     15  C   UNL     1       7.090   4.534  16.235  0.00  0.00    +0.000 A 
ATOM     16  C   UNL     1       6.195   4.960  15.258  0.00  0.00    +0.000 A 
ATOM     17  C   UNL     1       5.221   5.906  15.582  0.00  0.00    +0.000 A 
ATOM     18  C   UNL     1       5.174   6.397  16.883  0.00  0.00    +0.000 A 
ATOM     19  N   UNL     1       6.042   5.988  17.834  0.00  0.00    +0.000 NA
BRANCH  14  21
ATOM     20  C   UNL     1       7.981   5.568  19.544  0.00  0.00    +0.000 C 
ATOM     21  O   UNL     1       7.858   4.639  18.466  0.00  0.00    +0.000 OA
ENDBRANCH  14  21
ENDBRANCH  13  18
ENDBRANCH  12  13
ENDBRANCH   1  12
TORSDOF 4
ENDMDL
MODEL 3
REMARK VINA RESULT:      -7.2      2.368      5.493
REMARK  Name = 
REMARK  5 active torsions:
REMARK  status: ('A' for Active; 'I' for Inactive)
REMARK    1  A    between atoms: C_1  and  O_2
REMARK    2  A    between atoms: O_2  and  C_3
REMARK    3  A    between atoms: C_7  and  C_8
REMARK    4  A    between atoms: C_8  and  C_9
REMARK    5  A    between atoms: C_9  and  N_10
REMARK                            x       y       z     vdW  Elec       q    Type
REMARK                         _______ _______ _______ _____ _____    ______ ____
ROOT
ATOM      1  N   UNL     1       4.381   4.753  17.312  0.00  0.00    +0.000 N 
ATOM      2  C   UNL     1       3.622   3.885  18.072  0.00  0.00    +0.000 A 
ATOM      3  N   UNL     1       3.723   2.584  17.887  0.00  0.00    +0.000 NA
ATOM      4  C   UNL     1       2.942   1.727  18.644  0.00  0.00    +0.000 A 
ATOM      5  C   UNL     1       2.061   2.137  19.567  0.00  0.00    +0.000 A 
ATOM      6  N   UNL     1       1.929   3.492  19.781  0.00  0.00    +0.000 N 
ATOM      7  N   UNL     1       1.136   4.210  20.605  0.00  0.00    +0.000 NA
ATOM      8  N   UNL     1       1.426   5.486  20.364  0.00  0.00    +0.000 NA
ATOM      9  N   UNL     1       2.397   5.608  19.395  0.00  0.00    +0.000 NA
ATOM     10  C   UNL     1       2.692   4.373  19.064  0.00  0.00    +0.000 A 
ATOM     11  H   UNL     1       4.099   5.726  17.411  0.00  0.00    +0.000 HD
ENDROOT
BRANCH   1  12
ATOM     12  C   UNL     1       4.761   4.404  15.946  0.00  0.00    +0.000 C 
BRANCH  12  13
ATOM     13  C   UNL     1       6.277   4.493  15.726  0.00  0.00    +0.000 C 
BRANCH  13  18
ATOM     14  C   UNL     1       7.573   7.434  17.528  0.00  0.00    +0.000 A 
ATOM     15  C   UNL     1       8.129   6.930  18.688  0.00  0.00    +0.000 A 
ATOM     16  C   UNL     1       8.086   5.553  18.888  0.00  0.00    +0.000 A 
ATOM     17  C   UNL     1       7.491   4.736  17.927  0.00  0.00    +0.000 A 
ATOM     18  C   UNL     1       6.951   5.327  16.789  0.00  0.00    +0.000 A 
ATOM     19  N   UNL     1       6.991   6.663  16.590  0.00  0.00    +0.000 NA
BRANCH  14  21
ATOM     20  C   UNL     1       8.489   9.447  18.259  0.00  0.00    +0.000 C 
ATOM     21  O   UNL     1       7.607   8.800  17.342  0.00  0.00    +0.000 OA
ENDBRANCH  14  21
ENDBRANCH  13  18
ENDBRANCH  12  13
ENDBRANCH   1  12
TORSDOF 4
ENDMDL
MODEL 4
REMARK VINA RESULT:      -7.1      2.195      3.797
REMARK  Name = 
REMARK  5 active torsions:
REMARK  status: ('A' for Active; 'I' for Inactive)
REMARK    1  A    between atoms: C_1  and  O_2
REMARK    2  A    between atoms: O_2  and  C_3
REMARK    3  A    between atoms: C_7  and  C_8
REMARK    4  A    between atoms: C_8  and  C_9
REMARK    5  A    between atoms: C_9  and  N_10
REMARK                            x       y       z     vdW  Elec       q    Type
REMARK                         _______ _______ _______ _____ _____    ______ ____
ROOT
ATOM      1  N   UNL     1       4.491   6.842  18.114  0.00  0.00    +0.000 N 
ATOM      2  C   UNL     1       5.228   5.965  17.344  0.00  0.00    +0.000 A 
ATOM      3  N   UNL     1       4.781   5.586  16.163  0.00  0.00    +0.000 NA
ATOM      4  C   UNL     1       5.522   4.692  15.411  0.00  0.00    +0.000 A 
ATOM      5  C   UNL     1       6.687   4.162  15.811  0.00  0.00    +0.000 A 
ATOM      6  N   UNL     1       7.179   4.535  17.043  0.00  0.00    +0.000 N 
ATOM      7  N   UNL     1       8.287   4.176  17.727  0.00  0.00    +0.000 NA
ATOM      8  N   UNL     1       8.231   4.840  18.878  0.00  0.00    +0.000 NA
ATOM      9  N   UNL     1       7.104   5.628  18.953  0.00  0.00    +0.000 NA
ATOM     10  C   UNL     1       6.484   5.427  17.813  0.00  0.00    +0.000 A 
ATOM     11  H   UNL     1       4.837   6.928  19.068  0.00  0.00    +0.000 HD
ENDROOT
BRANCH   1  12
ATOM     12  C   UNL     1       3.033   6.858  18.031  0.00  0.00    +0.000 C 
BRANCH  12  13
ATOM     13  C   UNL     1       2.373   6.686  19.406  0.00  0.00    +0.000 C 
BRANCH  13  18
ATOM     14  C   UNL     1       3.105   3.084  19.670  0.00  0.00    +0.000 A 
ATOM     15  C   UNL     1       2.094   2.566  20.456  0.00  0.00    +0.000 A 
ATOM     16  C   UNL     1       1.114   3.441  20.918  0.00  0.00    +0.000 A 
ATOM     17  C   UNL     1       1.183   4.793  20.580  0.00  0.00    +0.000 A 
ATOM     18  C   UNL     1       2.238   5.230  19.786  0.00  0.00    +0.000 A 
ATOM     19  N   UNL     1       3.190   4.385  19.334  0.00  0.00    +0.000 NA
BRANCH  14  21
ATOM     20  C   UNL     1       3.783   1.685  17.934  0.00  0.00    +0.000 C 
ATOM     21  O   UNL     1       4.079   2.214  19.226  0.00  0.00    +0.000 OA
ENDBRANCH  14  21
ENDBRANCH  13  18
ENDBRANCH  12  13
ENDBRANCH   1  12
TORSDOF 4
ENDMDL
MODEL 5
REMARK VINA RESULT:      -7.1      2.865      4.132
REMARK  Name = 
REMARK  5 active torsions:
REMARK  status: ('A' for Active; 'I' for Inactive)
REMARK    1  A    between atoms: C_1  and  O_2
REMARK    2  A    between atoms: O_2  and  C_3
REMARK    3  A    between atoms: C_7  and  C_8
REMARK    4  A    between atoms: C_8  and  C_9
REMARK    5  A    between atoms: C_9  and  N_10
REMARK                            x       y       z     vdW  Elec       q    Type
REMARK                         _______ _______ _______ _____ _____    ______ ____
ROOT
ATOM      1  N   UNL     1       3.425   4.893  17.654  0.00  0.00    +0.000 N 
ATOM      2  C   UNL     1       4.747   4.771  17.275  0.00  0.00    +0.000 A 
ATOM      3  N   UNL     1       5.050   4.437  16.037  0.00  0.00    +0.000 NA
ATOM      4  C   UNL     1       6.380   4.300  15.677  0.00  0.00    +0.000 A 
ATOM      5  C   UNL     1       7.407   4.477  16.521  0.00  0.00    +0.000 A 
ATOM      6  N   UNL     1       7.121   4.824  17.824  0.00  0.00    +0.000 N 
ATOM      7  N   UNL     1       7.908   5.050  18.898  0.00  0.00    +0.000 NA
ATOM      8  N   UNL     1       7.078   5.325  19.901  0.00  0.00    +0.000 NA
ATOM      9  N   UNL     1       5.763   5.282  19.494  0.00  0.00    +0.000 NA
ATOM     10  C   UNL     1       5.821   4.982  18.218  0.00  0.00    +0.000 A 
ATOM     11  H   UNL     1       3.302   4.980  18.661  0.00  0.00    +0.000 HD
ENDROOT
BRANCH   1  12
ATOM     12  C   UNL     1       2.393   4.077  17.021  0.00  0.00    +0.000 C 
BRANCH  12  13
ATOM     13  C   UNL     1       1.316   3.629  18.018  0.00  0.00    +0.000 C 
BRANCH  13  18
ATOM     14  C   UNL     1       3.741   2.239  20.419  0.00  0.00    +0.000 A 
ATOM     15  C   UNL     1       3.109   2.298  21.646  0.00  0.00    +0.000 A 
ATOM     16  C   UNL     1       1.815   2.812  21.689  0.00  0.00    +0.000 A 
ATOM     17  C   UNL     1       1.207   3.247  20.512  0.00  0.00    +0.000 A 
ATOM     18  C   UNL     1       1.918   3.155  19.320  0.00  0.00    +0.000 A 
ATOM     19  N   UNL     1       3.172   2.656  19.272  0.00  0.00    +0.000 NA
BRANCH  14  21
ATOM     20  C   UNL     1       5.340   0.975  21.548  0.00  0.00    +0.000 C 
ATOM     21  O   UNL     1       5.027   1.741  20.385  0.00  0.00    +0.000 OA
ENDBRANCH  14  21
ENDBRANCH  13  18
ENDBRANCH  12  13
ENDBRANCH   1  12
TORSDOF 4
ENDMDL
MODEL 6
REMARK VINA RESULT:      -7.1      2.449      4.012
REMARK  Name = 
REMARK  5 active torsions:
REMARK  status: ('A' for Active; 'I' for Inactive)
REMARK    1  A    between atoms: C_1  and  O_2
REMARK    2  A    between atoms: O_2  and  C_3
REMARK    3  A    between atoms: C_7  and  C_8
REMARK    4  A    between atoms: C_8  and  C_9
REMARK    5  A    between atoms: C_9  and  N_10
REMARK                            x       y       z     vdW  Elec       q    Type
REMARK                         _______ _______ _______ _____ _____    ______ ____
ROOT
ATOM      1  N   UNL     1       4.149   6.457  18.367  0.00  0.00    +0.000 N 
ATOM      2  C   UNL     1       4.996   6.027  17.365  0.00  0.00    +0.000 A 
ATOM      3  N   UNL     1       4.665   6.202  16.101  0.00  0.00    +0.000 NA
ATOM      4  C   UNL     1       5.516   5.749  15.108  0.00  0.00    +0.000 A 
ATOM      5  C   UNL     1       6.676   5.120  15.345  0.00  0.00    +0.000 A 
ATOM      6  N   UNL     1       7.048   4.919  16.656  0.00  0.00    +0.000 N 
ATOM      7  N   UNL     1       8.119   4.318  17.216  0.00  0.00    +0.000 NA
ATOM      8  N   UNL     1       7.934   4.402  18.531  0.00  0.00    +0.000 NA
ATOM      9  N   UNL     1       6.758   5.051  18.835  0.00  0.00    +0.000 NA
ATOM     10  C   UNL     1       6.242   5.364  17.669  0.00  0.00    +0.000 A 
ATOM     11  H   UNL     1       4.414   6.119  19.290  0.00  0.00    +0.000 HD
ENDROOT
BRANCH   1  12
ATOM     12  C   UNL     1       2.703   6.478  18.160  0.00  0.00    +0.000 C 
BRANCH  12  13
ATOM     13  C   UNL     1       2.127   5.070  17.958  0.00  0.00    +0.000 C 
BRANCH  13  18
ATOM     14  C   UNL     1       3.759   2.607  20.160  0.00  0.00    +0.000 A 
ATOM     15  C   UNL     1       2.965   2.550  21.289  0.00  0.00    +0.000 A 
ATOM     16  C   UNL     1       1.829   3.354  21.329  0.00  0.00    +0.000 A 
ATOM     17  C   UNL     1       1.532   4.182  20.246  0.00  0.00    +0.000 A 
ATOM     18  C   UNL     1       2.389   4.180  19.149  0.00  0.00    +0.000 A 
ATOM     19  N   UNL     1       3.491   3.400  19.105  0.00  0.00    +0.000 NA
BRANCH  14  21
ATOM     20  C   UNL     1       5.163   1.222  21.401  0.00  0.00    +0.000 C 
ATOM     21  O   UNL     1       4.889   1.817  20.132  0.00  0.00    +0.000 OA
ENDBRANCH  14  21
ENDBRANCH  13  18
ENDBRANCH  12  13
ENDBRANCH   1  12
TORSDOF 4
ENDMDL
MODEL 7
REMARK VINA RESULT:      -7.1      2.641      5.632
REMARK  Name = 
REMARK  5 active torsions:
REMARK  status: ('A' for Active; 'I' for Inactive)
REMARK    1  A    between atoms: C_1  and  O_2
REMARK    2  A    between atoms: O_2  and  C_3
REMARK    3  A    between atoms: C_7  and  C_8
REMARK    4  A    between atoms: C_8  and  C_9
REMARK    5  A    between atoms: C_9  and  N_10
REMARK                            x       y       z     vdW  Elec       q    Type
REMARK                         _______ _______ _______ _____ _____    ______ ____
ROOT
ATOM      1  N   UNL     1       3.274   4.863  18.296  0.00  0.00    +0.000 N 
ATOM      2  C   UNL     1       2.774   4.170  19.381  0.00  0.00    +0.000 A 
ATOM      3  N   UNL     1       1.559   4.424  19.824  0.00  0.00    +0.000 NA
ATOM      4  C   UNL     1       1.079   3.734  20.923  0.00  0.00    +0.000 A 
ATOM      5  C   UNL     1       1.783   2.809  21.593  0.00  0.00    +0.000 A 
ATOM      6  N   UNL     1       3.058   2.524  21.156  0.00  0.00    +0.000 N 
ATOM      7  N   UNL     1       4.009   1.680  21.611  0.00  0.00    +0.000 NA
ATOM      8  N   UNL     1       5.054   1.844  20.805  0.00  0.00    +0.000 NA
ATOM      9  N   UNL     1       4.797   2.782  19.830  0.00  0.00    +0.000 NA
ATOM     10  C   UNL     1       3.567   3.174  20.064  0.00  0.00    +0.000 A 
ATOM     11  H   UNL     1       4.271   4.717  18.150  0.00  0.00    +0.000 HD
ENDROOT
BRANCH   1  12
ATOM     12  C   UNL     1       2.854   6.238  18.036  0.00  0.00    +0.000 C 
BRANCH  12  13
ATOM     13  C   UNL     1       3.922   7.035  17.276  0.00  0.00    +0.000 C 
BRANCH  13  18
ATOM     14  C   UNL     1       6.255   4.534  15.906  0.00  0.00    +0.000 A 
ATOM     15  C   UNL     1       7.440   4.732  16.590  0.00  0.00    +0.000 A 
ATOM     16  C   UNL     1       7.474   5.732  17.558  0.00  0.00    +0.000 A 
ATOM     17  C   UNL     1       6.332   6.494  17.803  0.00  0.00    +0.000 A 
ATOM     18  C   UNL     1       5.182   6.229  17.066  0.00  0.00    +0.000 A 
ATOM     19  N   UNL     1       5.142   5.259  16.127  0.00  0.00    +0.000 NA
BRANCH  14  21
ATOM     20  C   UNL     1       6.344   4.086  13.621  0.00  0.00    +0.000 C 
ATOM     21  O   UNL     1       6.231   3.550  14.940  0.00  0.00    +0.000 OA
ENDBRANCH  14  21
ENDBRANCH  13  18
ENDBRANCH  12  13
ENDBRANCH   1  12
TORSDOF 4
ENDMDL
MODEL 8
REMARK VINA RESULT:      -7.0      1.385      1.755
REMARK  Name = 
REMARK  5 active torsions:
REMARK  status: ('A' for Active; 'I' for Inactive)
REMARK    1  A    between atoms: C_1  and  O_2
REMARK    2  A    between atoms: O_2  and  C_3
REMARK    3  A    between atoms: C_7  and  C_8
REMARK    4  A    between atoms: C_8  and  C_9
REMARK    5  A    between atoms: C_9  and  N_10
REMARK                            x       y       z     vdW  Elec       q    Type
REMARK                         _______ _______ _______ _____ _____    ______ ____
ROOT
ATOM      1  N   UNL     1       4.767   3.282  18.556  0.00  0.00    +0.000 N 
ATOM      2  C   UNL     1       5.730   4.241  18.309  0.00  0.00    +0.000 A 
ATOM      3  N   UNL     1       6.223   4.952  19.304  0.00  0.00    +0.000 NA
ATOM      4  C   UNL     1       7.174   5.921  19.039  0.00  0.00    +0.000 A 
ATOM      5  C   UNL     1       7.635   6.203  17.811  0.00  0.00    +0.000 A 
ATOM      6  N   UNL     1       7.136   5.479  16.750  0.00  0.00    +0.000 N 
ATOM      7  N   UNL     1       7.373   5.530  15.422  0.00  0.00    +0.000 NA
ATOM      8  N   UNL     1       6.585   4.606  14.878  0.00  0.00    +0.000 NA
ATOM      9  N   UNL     1       5.840   3.953  15.835  0.00  0.00    +0.000 NA
ATOM     10  C   UNL     1       6.204   4.501  16.970  0.00  0.00    +0.000 A 
ATOM     11  H   UNL     1       4.334   2.920  17.708  0.00  0.00    +0.000 HD
ENDROOT
BRANCH   1  12
ATOM     12  C   UNL     1       3.820   3.446  19.656  0.00  0.00    +0.000 C 
BRANCH  12  13
ATOM     13  C   UNL     1       2.436   3.892  19.166  0.00  0.00    +0.000 C 
BRANCH  13  18
ATOM     14  C   UNL     1       1.812   7.349  20.281  0.00  0.00    +0.000 A 
ATOM     15  C   UNL     1       2.084   8.138  19.180  0.00  0.00    +0.000 A 
ATOM     16  C   UNL     1       2.484   7.505  18.007  0.00  0.00    +0.000 A 
ATOM     17  C   UNL     1       2.600   6.116  17.979  0.00  0.00    +0.000 A 
ATOM     18  C   UNL     1       2.309   5.397  19.134  0.00  0.00    +0.000 A 
ATOM     19  N   UNL     1       1.919   6.006  20.275  0.00  0.00    +0.000 NA
BRANCH  14  21
ATOM     20  C   UNL     1       0.398   8.946  21.219  0.00  0.00    +0.000 C 
ATOM     21  O   UNL     1       1.428   7.983  21.444  0.00  0.00    +0.000 OA
ENDBRANCH  14  21
ENDBRANCH  13  18
ENDBRANCH  12  13
ENDBRANCH   1  12
TORSDOF 4
ENDMDL
MODEL 9
REMARK VINA RESULT:      -6.9      1.814      2.916
REMARK  Name = 
REMARK  5 active torsions:
REMARK  status: ('A' for Active; 'I' for Inactive)
REMARK    1  A    between atoms: C_1  and  O_2
REMARK    2  A    between atoms: O_2  and  C_3
REMARK    3  A    between atoms: C_7  and  C_8
REMARK    4  A    between atoms: C_8  and  C_9
REMARK    5  A    between atoms: C_9  and  N_10
REMARK                            x       y       z     vdW  Elec       q    Type
REMARK                         _______ _______ _______ _____ _____    ______ ____
ROOT
ATOM      1  N   UNL     1       3.649   4.034  17.595  0.00  0.00    +0.000 N 
ATOM      2  C   UNL     1       4.955   4.240  17.195  0.00  0.00    +0.000 A 
ATOM      3  N   UNL     1       5.305   4.016  15.945  0.00  0.00    +0.000 NA
ATOM      4  C   UNL     1       6.622   4.210  15.563  0.00  0.00    +0.000 A 
ATOM      5  C   UNL     1       7.592   4.610  16.398  0.00  0.00    +0.000 A 
ATOM      6  N   UNL     1       7.257   4.850  17.713  0.00  0.00    +0.000 N 
ATOM      7  N   UNL     1       7.986   5.235  18.782  0.00  0.00    +0.000 NA
ATOM      8  N   UNL     1       7.135   5.282  19.803  0.00  0.00    +0.000 NA
ATOM      9  N   UNL     1       5.861   4.934  19.413  0.00  0.00    +0.000 NA
ATOM     10  C   UNL     1       5.964   4.683  18.129  0.00  0.00    +0.000 A 
ATOM     11  H   UNL     1       3.528   4.067  18.605  0.00  0.00    +0.000 HD
ENDROOT
BRANCH   1  12
ATOM     12  C   UNL     1       2.830   3.008  16.954  0.00  0.00    +0.000 C 
BRANCH  12  13
ATOM     13  C   UNL     1       1.698   2.518  17.867  0.00  0.00    +0.000 C 
BRANCH  13  18
ATOM     14  C   UNL     1       1.766   4.872  20.701  0.00  0.00    +0.000 A 
ATOM     15  C   UNL     1       2.050   4.097  21.808  0.00  0.00    +0.000 A 
ATOM     16  C   UNL     1       2.238   2.731  21.617  0.00  0.00    +0.000 A 
ATOM     17  C   UNL     1       2.134   2.194  20.334  0.00  0.00    +0.000 A 
ATOM     18  C   UNL     1       1.842   3.047  19.274  0.00  0.00    +0.000 A 
ATOM     19  N   UNL     1       1.660   4.374  19.454  0.00  0.00    +0.000 NA
BRANCH  14  21
ATOM     20  C   UNL     1       2.173   7.013  19.875  0.00  0.00    +0.000 C 
ATOM     21  O   UNL     1       1.568   6.223  20.899  0.00  0.00    +0.000 OA
ENDBRANCH  14  21
ENDBRANCH  13  18
ENDBRANCH  12  13
ENDBRANCH   1  12
TORSDOF 4
ENDMDL
