MODEL 1
REMARK VINA RESULT:      -8.9      0.000      0.000
REMARK  Name = 
REMARK  10 active torsions:
REMARK  status: ('A' for Active; 'I' for Inactive)
REMARK    1  A    between atoms: C_1  and  O_2
REMARK    2  A    between atoms: O_2  and  C_3
REMARK    3  A    between atoms: C_8  and  C_9
REMARK    4  A    between atoms: C_9  and  C_11
REMARK    5  A    between atoms: C_14  and  C_15
REMARK    6  A    between atoms: C_16  and  C_17
REMARK    7  A    between atoms: N_20  and  C_21
REMARK    8  A    between atoms: C_21  and  C_22
REMARK    9  A    between atoms: C_31  and  O_32
REMARK   10  A    between atoms: O_32  and  C_33
REMARK                            x       y       z     vdW  Elec       q    Type
REMARK                         _______ _______ _______ _____ _____    ______ ____
ROOT
ATOM      1  C   UNL     1       2.740   4.157  20.567  0.00  0.00    +0.000 A 
ATOM      2  C   UNL     1       2.146   5.405  20.703  0.00  0.00    +0.000 A 
ATOM      3  C   UNL     1       2.298   6.377  19.708  0.00  0.00    +0.000 A 
ATOM      4  C   UNL     1       1.657   7.692  19.936  0.00  0.00    +0.000 A 
ATOM      5  O   UNL     1       1.048   7.895  20.981  0.00  0.00    +0.000 OA
ATOM      6  C   UNL     1       1.797   8.725  18.890  0.00  0.00    +0.000 A 
ATOM      7  C   UNL     1       2.527   8.388  17.813  0.00  0.00    +0.000 A 
ATOM      8  N   UNL     1       3.144   7.160  17.561  0.00  0.00    +0.000 N 
ATOM      9  C   UNL     1       3.038   6.138  18.538  0.00  0.00    +0.000 A 
ATOM     10  C   UNL     1       3.635   4.868  18.421  0.00  0.00    +0.000 A 
ATOM     11  C   UNL     1       3.523   3.897  19.436  0.00  0.00    +0.000 A 
ENDROOT
BRANCH   1  13
ATOM     12  C   UNL     1       1.343   2.577  21.638  0.00  0.00    +0.000 C 
ATOM     13  O   UNL     1       2.634   3.168  21.512  0.00  0.00    +0.000 OA
ENDBRANCH   1  13
BRANCH   6  14
ATOM     14  C   UNL     1       1.282  10.121  19.007  0.00  0.00    +0.000 C 
ATOM     15  O   UNL     1       2.037  11.040  19.326  0.00  0.00    +0.000 OA
BRANCH  14  16
ATOM     16  C   UNL     1      -0.150  10.426  18.734  0.00  0.00    +0.000 A 
ATOM     17  C   UNL     1      -0.836   9.855  17.660  0.00  0.00    +0.000 A 
ATOM     18  C   UNL     1      -2.168  10.195  17.418  0.00  0.00    +0.000 A 
ATOM     19  C   UNL     1      -2.835  11.138  18.216  0.00  0.00    +0.000 A 
ATOM     20  C   UNL     1      -4.260  11.489  17.881  0.00  0.00    +0.000 C 
ATOM     21  C   UNL     1      -2.144  11.737  19.286  0.00  0.00    +0.000 A 
ATOM     22  C   UNL     1      -2.777  12.764  20.191  0.00  0.00    +0.000 C 
ATOM     23  C   UNL     1      -0.807  11.371  19.535  0.00  0.00    +0.000 A 
ENDBRANCH  14  16
ENDBRANCH   6  14
BRANCH  11  24
ATOM     24  O   UNL     1       4.098   2.652  19.355  0.00  0.00    +0.000 OA
ATOM     25  C   UNL     1       3.519   1.748  18.421  0.00  0.00    +0.000 C 
ENDBRANCH  11  24
BRANCH   8  26
ATOM     26  C   UNL     1       4.053   6.984  16.405  0.00  0.00    +0.000 C 
BRANCH  26  27
ATOM     27  C   UNL     1       5.329   6.259  16.796  0.00  0.00    +0.000 A 
ATOM     28  C   UNL     1       5.689   5.045  16.184  0.00  0.00    +0.000 A 
ATOM     29  C   UNL     1       6.812   4.339  16.618  0.00  0.00    +0.000 A 
ATOM     30  C   UNL     1       7.594   4.856  17.643  0.00  0.00    +0.000 A 
ATOM     31  F   UNL     1       8.658   4.166  18.073  0.00  0.00    +0.000 F 
ATOM     32  C   UNL     1       7.288   6.076  18.228  0.00  0.00    +0.000 A 
ATOM     33  C   UNL     1       6.161   6.779  17.803  0.00  0.00    +0.000 A 
ENDBRANCH  26  27
ENDBRANCH   8  26
TORSDOF 6
ENDMDL
MODEL 2
REMARK VINA RESULT:      -8.9      0.412      1.506
REMARK  Name = 
REMARK  10 active torsions:
REMARK  status: ('A' for Active; 'I' for Inactive)
REMARK    1  A    between atoms: C_1  and  O_2
REMARK    2  A    between atoms: O_2  and  C_3
REMARK    3  A    between atoms: C_8  and  C_9
REMARK    4  A    between atoms: C_9  and  C_11
REMARK    5  A    between atoms: C_14  and  C_15
REMARK    6  A    between atoms: C_16  and  C_17
REMARK    7  A    between atoms: N_20  and  C_21
REMARK    8  A    between atoms: C_21  and  C_22
REMARK    9  A    between atoms: C_31  and  O_32
REMARK   10  A    between atoms: O_32  and  C_33
REMARK                            x       y       z     vdW  Elec       q    Type
REMARK                         _______ _______ _______ _____ _____    ______ ____
ROOT
ATOM      1  C   UNL     1       2.496   4.528  20.748  0.00  0.00    +0.000 A 
ATOM      2  C   UNL     1       1.940   5.799  20.810  0.00  0.00    +0.000 A 
ATOM      3  C   UNL     1       2.144   6.714  19.771  0.00  0.00    +0.000 A 
ATOM      4  C   UNL     1       1.541   8.058  19.920  0.00  0.00    +0.000 A 
ATOM      5  O   UNL     1       0.918   8.333  20.939  0.00  0.00    +0.000 OA
ATOM      6  C   UNL     1       1.735   9.033  18.827  0.00  0.00    +0.000 A 
ATOM      7  C   UNL     1       2.476   8.619  17.784  0.00  0.00    +0.000 A 
ATOM      8  N   UNL     1       3.058   7.362  17.607  0.00  0.00    +0.000 N 
ATOM      9  C   UNL     1       2.900   6.394  18.630  0.00  0.00    +0.000 A 
ATOM     10  C   UNL     1       3.457   5.101  18.590  0.00  0.00    +0.000 A 
ATOM     11  C   UNL     1       3.294   4.187  19.649  0.00  0.00    +0.000 A 
ENDROOT
BRANCH   1  13
ATOM     12  C   UNL     1       1.237   2.703  21.573  0.00  0.00    +0.000 C 
ATOM     13  O   UNL     1       2.339   3.591  21.739  0.00  0.00    +0.000 OA
ENDBRANCH   1  13
BRANCH   6  14
ATOM     14  C   UNL     1       1.264  10.448  18.864  0.00  0.00    +0.000 C 
ATOM     15  O   UNL     1       2.061  11.367  19.052  0.00  0.00    +0.000 OA
BRANCH  14  16
ATOM     16  C   UNL     1      -0.177  10.772  18.666  0.00  0.00    +0.000 A 
ATOM     17  C   UNL     1      -0.873  11.611  19.539  0.00  0.00    +0.000 A 
ATOM     18  C   UNL     1      -2.232  11.860  19.338  0.00  0.00    +0.000 A 
ATOM     19  C   UNL     1      -2.935  11.251  18.287  0.00  0.00    +0.000 A 
ATOM     20  C   UNL     1      -4.407  11.533  18.146  0.00  0.00    +0.000 C 
ATOM     21  C   UNL     1      -2.248  10.385  17.416  0.00  0.00    +0.000 A 
ATOM     22  C   UNL     1      -2.923   9.683  16.266  0.00  0.00    +0.000 C 
ATOM     23  C   UNL     1      -0.873  10.157  17.615  0.00  0.00    +0.000 A 
ENDBRANCH  14  16
ENDBRANCH   6  14
BRANCH  11  24
ATOM     24  O   UNL     1       3.830   2.922  19.642  0.00  0.00    +0.000 OA
ATOM     25  C   UNL     1       3.524   2.112  18.513  0.00  0.00    +0.000 C 
ENDBRANCH  11  24
BRANCH   8  26
ATOM     26  C   UNL     1       3.984   7.100  16.481  0.00  0.00    +0.000 C 
BRANCH  26  27
ATOM     27  C   UNL     1       5.185   6.279  16.918  0.00  0.00    +0.000 A 
ATOM     28  C   UNL     1       6.135   6.804  17.811  0.00  0.00    +0.000 A 
ATOM     29  C   UNL     1       7.284   6.077  18.131  0.00  0.00    +0.000 A 
ATOM     30  C   UNL     1       7.472   4.815  17.583  0.00  0.00    +0.000 A 
ATOM     31  F   UNL     1       8.585   4.130  17.872  0.00  0.00    +0.000 F 
ATOM     32  C   UNL     1       6.524   4.255  16.738  0.00  0.00    +0.000 A 
ATOM     33  C   UNL     1       5.381   4.982  16.410  0.00  0.00    +0.000 A 
ENDBRANCH  26  27
ENDBRANCH   8  26
TORSDOF 6
ENDMDL
MODEL 3
REMARK VINA RESULT:      -8.4      4.694      9.520
REMARK  Name = 
REMARK  10 active torsions:
REMARK  status: ('A' for Active; 'I' for Inactive)
REMARK    1  A    between atoms: C_1  and  O_2
REMARK    2  A    between atoms: O_2  and  C_3
REMARK    3  A    between atoms: C_8  and  C_9
REMARK    4  A    between atoms: C_9  and  C_11
REMARK    5  A    between atoms: C_14  and  C_15
REMARK    6  A    between atoms: C_16  and  C_17
REMARK    7  A    between atoms: N_20  and  C_21
REMARK    8  A    between atoms: C_21  and  C_22
REMARK    9  A    between atoms: C_31  and  O_32
REMARK   10  A    between atoms: O_32  and  C_33
REMARK                            x       y       z     vdW  Elec       q    Type
REMARK                         _______ _______ _______ _____ _____    ______ ____
ROOT
ATOM      1  C   UNL     1      -3.520  13.748  23.638  0.00  0.00    +0.000 A 
ATOM      2  C   UNL     1      -2.258  13.616  23.075  0.00  0.00    +0.000 A 
ATOM      3  C   UNL     1      -2.108  13.109  21.780  0.00  0.00    +0.000 A 
ATOM      4  C   UNL     1      -0.729  12.975  21.257  0.00  0.00    +0.000 A 
ATOM      5  O   UNL     1       0.221  13.279  21.969  0.00  0.00    +0.000 OA
ATOM      6  C   UNL     1      -0.552  12.452  19.886  0.00  0.00    +0.000 A 
ATOM      7  C   UNL     1      -1.675  12.114  19.228  0.00  0.00    +0.000 A 
ATOM      8  N   UNL     1      -2.989  12.227  19.686  0.00  0.00    +0.000 N 
ATOM      9  C   UNL     1      -3.208  12.722  20.996  0.00  0.00    +0.000 A 
ATOM     10  C   UNL     1      -4.478  12.861  21.588  0.00  0.00    +0.000 A 
ATOM     11  C   UNL     1      -4.638  13.331  22.906  0.00  0.00    +0.000 A 
ENDROOT
BRANCH   1  13
ATOM     12  C   UNL     1      -2.642  14.956  25.472  0.00  0.00    +0.000 C 
ATOM     13  O   UNL     1      -3.730  14.230  24.906  0.00  0.00    +0.000 OA
ENDBRANCH   1  13
BRANCH   6  14
ATOM     14  C   UNL     1       0.769  12.181  19.249  0.00  0.00    +0.000 C 
ATOM     15  O   UNL     1       1.479  13.110  18.864  0.00  0.00    +0.000 OA
BRANCH  14  16
ATOM     16  C   UNL     1       1.255  10.783  19.076  0.00  0.00    +0.000 A 
ATOM     17  C   UNL     1       1.816  10.338  17.878  0.00  0.00    +0.000 A 
ATOM     18  C   UNL     1       2.226   9.010  17.745  0.00  0.00    +0.000 A 
ATOM     19  C   UNL     1       2.052   8.087  18.789  0.00  0.00    +0.000 A 
ATOM     20  C   UNL     1       2.481   6.661  18.572  0.00  0.00    +0.000 C 
ATOM     21  C   UNL     1       1.465   8.521  19.993  0.00  0.00    +0.000 A 
ATOM     22  C   UNL     1       1.234   7.600  21.164  0.00  0.00    +0.000 C 
ATOM     23  C   UNL     1       1.074   9.868  20.124  0.00  0.00    +0.000 A 
ENDBRANCH  14  16
ENDBRANCH   6  14
BRANCH  11  24
ATOM     24  O   UNL     1      -5.863  13.470  23.513  0.00  0.00    +0.000 OA
ATOM     25  C   UNL     1      -6.846  14.204  22.792  0.00  0.00    +0.000 C 
ENDBRANCH  11  24
BRANCH   8  26
ATOM     26  C   UNL     1      -4.120  11.664  18.912  0.00  0.00    +0.000 C 
BRANCH  26  27
ATOM     27  C   UNL     1      -3.667  11.120  17.568  0.00  0.00    +0.000 A 
ATOM     28  C   UNL     1      -4.242  11.579  16.370  0.00  0.00    +0.000 A 
ATOM     29  C   UNL     1      -3.886  11.004  15.148  0.00  0.00    +0.000 A 
ATOM     30  C   UNL     1      -2.937   9.991  15.117  0.00  0.00    +0.000 A 
ATOM     31  F   UNL     1      -2.615   9.426  13.947  0.00  0.00    +0.000 F 
ATOM     32  C   UNL     1      -2.319   9.556  16.280  0.00  0.00    +0.000 A 
ATOM     33  C   UNL     1      -2.679  10.122  17.503  0.00  0.00    +0.000 A 
ENDBRANCH  26  27
ENDBRANCH   8  26
TORSDOF 6
ENDMDL
MODEL 4
REMARK VINA RESULT:      -8.3      4.451      9.479
REMARK  Name = 
REMARK  10 active torsions:
REMARK  status: ('A' for Active; 'I' for Inactive)
REMARK    1  A    between atoms: C_1  and  O_2
REMARK    2  A    between atoms: O_2  and  C_3
REMARK    3  A    between atoms: C_8  and  C_9
REMARK    4  A    between atoms: C_9  and  C_11
REMARK    5  A    between atoms: C_14  and  C_15
REMARK    6  A    between atoms: C_16  and  C_17
REMARK    7  A    between atoms: N_20  and  C_21
REMARK    8  A    between atoms: C_21  and  C_22
REMARK    9  A    between atoms: C_31  and  O_32
REMARK   10  A    between atoms: O_32  and  C_33
REMARK                            x       y       z     vdW  Elec       q    Type
REMARK                         _______ _______ _______ _____ _____    ______ ____
ROOT
ATOM      1  C   UNL     1      -3.567  13.265  20.414  0.00  0.00    +0.000 A 
ATOM      2  C   UNL     1      -2.872  12.219  19.821  0.00  0.00    +0.000 A 
ATOM      3  C   UNL     1      -1.473  12.204  19.825  0.00  0.00    +0.000 A 
ATOM      4  C   UNL     1      -0.802  11.068  19.151  0.00  0.00    +0.000 A 
ATOM      5  O   UNL     1      -1.478  10.208  18.598  0.00  0.00    +0.000 OA
ATOM      6  C   UNL     1       0.675  11.030  19.155  0.00  0.00    +0.000 A 
ATOM      7  C   UNL     1       1.295  12.058  19.759  0.00  0.00    +0.000 A 
ATOM      8  N   UNL     1       0.699  13.144  20.405  0.00  0.00    +0.000 N 
ATOM      9  C   UNL     1      -0.715  13.224  20.425  0.00  0.00    +0.000 A 
ATOM     10  C   UNL     1      -1.440  14.276  21.017  0.00  0.00    +0.000 A 
ATOM     11  C   UNL     1      -2.848  14.323  20.982  0.00  0.00    +0.000 A 
ENDROOT
BRANCH   1  13
ATOM     12  C   UNL     1      -5.620  12.160  20.017  0.00  0.00    +0.000 C 
ATOM     13  O   UNL     1      -4.937  13.339  20.434  0.00  0.00    +0.000 OA
ENDBRANCH   1  13
BRANCH   6  14
ATOM     14  C   UNL     1       1.495  10.002  18.452  0.00  0.00    +0.000 C 
ATOM     15  O   UNL     1       2.041  10.265  17.380  0.00  0.00    +0.000 OA
BRANCH  14  16
ATOM     16  C   UNL     1       1.672   8.643  19.037  0.00  0.00    +0.000 A 
ATOM     17  C   UNL     1       1.356   8.364  20.368  0.00  0.00    +0.000 A 
ATOM     18  C   UNL     1       1.570   7.085  20.887  0.00  0.00    +0.000 A 
ATOM     19  C   UNL     1       2.139   6.069  20.103  0.00  0.00    +0.000 A 
ATOM     20  C   UNL     1       2.378   4.722  20.732  0.00  0.00    +0.000 C 
ATOM     21  C   UNL     1       2.484   6.347  18.767  0.00  0.00    +0.000 A 
ATOM     22  C   UNL     1       3.104   5.320  17.855  0.00  0.00    +0.000 C 
ATOM     23  C   UNL     1       2.244   7.634  18.248  0.00  0.00    +0.000 A 
ENDBRANCH  14  16
ENDBRANCH   6  14
BRANCH  11  24
ATOM     24  O   UNL     1      -3.582  15.338  21.545  0.00  0.00    +0.000 OA
ATOM     25  C   UNL     1      -3.567  15.418  22.965  0.00  0.00    +0.000 C 
ENDBRANCH  11  24
BRANCH   8  26
ATOM     26  C   UNL     1       1.510  14.287  20.886  0.00  0.00    +0.000 C 
BRANCH  26  27
ATOM     27  C   UNL     1       1.913  15.209  19.748  0.00  0.00    +0.000 A 
ATOM     28  C   UNL     1       1.054  16.229  19.302  0.00  0.00    +0.000 A 
ATOM     29  C   UNL     1       1.394  17.008  18.195  0.00  0.00    +0.000 A 
ATOM     30  C   UNL     1       2.604  16.790  17.548  0.00  0.00    +0.000 A 
ATOM     31  F   UNL     1       2.917  17.522  16.472  0.00  0.00    +0.000 F 
ATOM     32  C   UNL     1       3.491  15.823  17.999  0.00  0.00    +0.000 A 
ATOM     33  C   UNL     1       3.150  15.038  19.100  0.00  0.00    +0.000 A 
ENDBRANCH  26  27
ENDBRANCH   8  26
TORSDOF 6
ENDMDL
MODEL 5
REMARK VINA RESULT:      -8.3      4.065      6.803
REMARK  Name = 
REMARK  10 active torsions:
REMARK  status: ('A' for Active; 'I' for Inactive)
REMARK    1  A    between atoms: C_1  and  O_2
REMARK    2  A    between atoms: O_2  and  C_3
REMARK    3  A    between atoms: C_8  and  C_9
REMARK    4  A    between atoms: C_9  and  C_11
REMARK    5  A    between atoms: C_14  and  C_15
REMARK    6  A    between atoms: C_16  and  C_17
REMARK    7  A    between atoms: N_20  and  C_21
REMARK    8  A    between atoms: C_21  and  C_22
REMARK    9  A    between atoms: C_31  and  O_32
REMARK   10  A    between atoms: O_32  and  C_33
REMARK                            x       y       z     vdW  Elec       q    Type
REMARK                         _______ _______ _______ _____ _____    ______ ____
ROOT
ATOM      1  C   UNL     1       1.538   7.811  20.642  0.00  0.00    +0.000 A 
ATOM      2  C   UNL     1       0.875   8.553  21.611  0.00  0.00    +0.000 A 
ATOM      3  C   UNL     1       0.300   9.787  21.289  0.00  0.00    +0.000 A 
ATOM      4  C   UNL     1      -0.369  10.532  22.380  0.00  0.00    +0.000 A 
ATOM      5  O   UNL     1      -0.374  10.068  23.515  0.00  0.00    +0.000 OA
ATOM      6  C   UNL     1      -0.992  11.832  22.056  0.00  0.00    +0.000 A 
ATOM      7  C   UNL     1      -0.875  12.247  20.782  0.00  0.00    +0.000 A 
ATOM      8  N   UNL     1      -0.256  11.574  19.727  0.00  0.00    +0.000 N 
ATOM      9  C   UNL     1       0.357  10.323  19.991  0.00  0.00    +0.000 A 
ATOM     10  C   UNL     1       1.038   9.556  19.026  0.00  0.00    +0.000 A 
ATOM     11  C   UNL     1       1.656   8.332  19.348  0.00  0.00    +0.000 A 
ENDROOT
BRANCH   1  13
ATOM     12  C   UNL     1       1.304   5.457  20.682  0.00  0.00    +0.000 C 
ATOM     13  O   UNL     1       2.129   6.599  20.899  0.00  0.00    +0.000 OA
ENDBRANCH   1  13
BRANCH   6  14
ATOM     14  C   UNL     1      -1.627  12.737  23.057  0.00  0.00    +0.000 C 
ATOM     15  O   UNL     1      -0.937  13.484  23.750  0.00  0.00    +0.000 OA
BRANCH  14  16
ATOM     16  C   UNL     1      -3.107  12.757  23.229  0.00  0.00    +0.000 A 
ATOM     17  C   UNL     1      -3.707  12.651  24.485  0.00  0.00    +0.000 A 
ATOM     18  C   UNL     1      -5.099  12.637  24.598  0.00  0.00    +0.000 A 
ATOM     19  C   UNL     1      -5.922  12.691  23.462  0.00  0.00    +0.000 A 
ATOM     20  C   UNL     1      -7.415  12.637  23.649  0.00  0.00    +0.000 C 
ATOM     21  C   UNL     1      -5.326  12.774  22.190  0.00  0.00    +0.000 A 
ATOM     22  C   UNL     1      -6.130  12.830  20.916  0.00  0.00    +0.000 C 
ATOM     23  C   UNL     1      -3.922  12.808  22.088  0.00  0.00    +0.000 A 
ENDBRANCH  14  16
ENDBRANCH   6  14
BRANCH  11  24
ATOM     24  O   UNL     1       2.332   7.565  18.431  0.00  0.00    +0.000 OA
ATOM     25  C   UNL     1       3.198   8.260  17.540  0.00  0.00    +0.000 C 
ENDBRANCH  11  24
BRANCH   8  26
ATOM     26  C   UNL     1      -0.063  12.227  18.411  0.00  0.00    +0.000 C 
BRANCH  26  27
ATOM     27  C   UNL     1       1.014  13.296  18.466  0.00  0.00    +0.000 A 
ATOM     28  C   UNL     1       2.362  12.979  18.224  0.00  0.00    +0.000 A 
ATOM     29  C   UNL     1       3.355  13.950  18.371  0.00  0.00    +0.000 A 
ATOM     30  C   UNL     1       3.002  15.244  18.730  0.00  0.00    +0.000 A 
ATOM     31  F   UNL     1       3.958  16.167  18.893  0.00  0.00    +0.000 F 
ATOM     32  C   UNL     1       1.673  15.594  18.925  0.00  0.00    +0.000 A 
ATOM     33  C   UNL     1       0.680  14.623  18.788  0.00  0.00    +0.000 A 
ENDBRANCH  26  27
ENDBRANCH   8  26
TORSDOF 6
ENDMDL
MODEL 6
REMARK VINA RESULT:      -8.2      4.175      9.505
REMARK  Name = 
REMARK  10 active torsions:
REMARK  status: ('A' for Active; 'I' for Inactive)
REMARK    1  A    between atoms: C_1  and  O_2
REMARK    2  A    between atoms: O_2  and  C_3
REMARK    3  A    between atoms: C_8  and  C_9
REMARK    4  A    between atoms: C_9  and  C_11
REMARK    5  A    between atoms: C_14  and  C_15
REMARK    6  A    between atoms: C_16  and  C_17
REMARK    7  A    between atoms: N_20  and  C_21
REMARK    8  A    between atoms: C_21  and  C_22
REMARK    9  A    between atoms: C_31  and  O_32
REMARK   10  A    between atoms: O_32  and  C_33
REMARK                            x       y       z     vdW  Elec       q    Type
REMARK                         _______ _______ _______ _____ _____    ______ ____
ROOT
ATOM      1  C   UNL     1      -4.441  11.867  18.918  0.00  0.00    +0.000 A 
ATOM      2  C   UNL     1      -3.370  11.170  18.373  0.00  0.00    +0.000 A 
ATOM      3  C   UNL     1      -2.092  11.280  18.934  0.00  0.00    +0.000 A 
ATOM      4  C   UNL     1      -0.996  10.527  18.282  0.00  0.00    +0.000 A 
ATOM      5  O   UNL     1      -1.230   9.867  17.276  0.00  0.00    +0.000 OA
ATOM      6  C   UNL     1       0.357  10.622  18.867  0.00  0.00    +0.000 A 
ATOM      7  C   UNL     1       0.486  11.416  19.944  0.00  0.00    +0.000 A 
ATOM      8  N   UNL     1      -0.522  12.138  20.587  0.00  0.00    +0.000 N 
ATOM      9  C   UNL     1      -1.836  12.079  20.061  0.00  0.00    +0.000 A 
ATOM     10  C   UNL     1      -2.935  12.779  20.595  0.00  0.00    +0.000 A 
ATOM     11  C   UNL     1      -4.217  12.709  20.014  0.00  0.00    +0.000 A 
ENDROOT
BRANCH   1  13
ATOM     12  C   UNL     1      -5.908  12.479  17.167  0.00  0.00    +0.000 C 
ATOM     13  O   UNL     1      -5.713  11.806  18.408  0.00  0.00    +0.000 OA
ENDBRANCH   1  13
BRANCH   6  14
ATOM     14  C   UNL     1       1.576   9.993  18.281  0.00  0.00    +0.000 C 
ATOM     15  O   UNL     1       2.264  10.606  17.464  0.00  0.00    +0.000 OA
BRANCH  14  16
ATOM     16  C   UNL     1       1.986   8.617  18.680  0.00  0.00    +0.000 A 
ATOM     17  C   UNL     1       1.598   8.054  19.897  0.00  0.00    +0.000 A 
ATOM     18  C   UNL     1       2.033   6.774  20.248  0.00  0.00    +0.000 A 
ATOM     19  C   UNL     1       2.893   6.044  19.412  0.00  0.00    +0.000 A 
ATOM     20  C   UNL     1       3.355   4.684  19.863  0.00  0.00    +0.000 C 
ATOM     21  C   UNL     1       3.308   6.613  18.194  0.00  0.00    +0.000 A 
ATOM     22  C   UNL     1       4.234   5.905  17.238  0.00  0.00    +0.000 C 
ATOM     23  C   UNL     1       2.847   7.896  17.840  0.00  0.00    +0.000 A 
ENDBRANCH  14  16
ENDBRANCH   6  14
BRANCH  11  24
ATOM     24  O   UNL     1      -5.306  13.385  20.508  0.00  0.00    +0.000 OA
ATOM     25  C   UNL     1      -5.288  14.801  20.369  0.00  0.00    +0.000 C 
ENDBRANCH  11  24
BRANCH   8  26
ATOM     26  C   UNL     1      -0.203  13.100  21.668  0.00  0.00    +0.000 C 
BRANCH  26  27
ATOM     27  C   UNL     1       0.554  14.307  21.143  0.00  0.00    +0.000 A 
ATOM     28  C   UNL     1      -0.092  15.287  20.370  0.00  0.00    +0.000 A 
ATOM     29  C   UNL     1       0.634  16.342  19.812  0.00  0.00    +0.000 A 
ATOM     30  C   UNL     1       1.999  16.436  20.049  0.00  0.00    +0.000 A 
ATOM     31  F   UNL     1       2.697  17.435  19.495  0.00  0.00    +0.000 F 
ATOM     32  C   UNL     1       2.650  15.509  20.851  0.00  0.00    +0.000 A 
ATOM     33  C   UNL     1       1.929  14.450  21.401  0.00  0.00    +0.000 A 
ENDBRANCH  26  27
ENDBRANCH   8  26
TORSDOF 6
ENDMDL
MODEL 7
REMARK VINA RESULT:      -8.2      4.237      9.512
REMARK  Name = 
REMARK  10 active torsions:
REMARK  status: ('A' for Active; 'I' for Inactive)
REMARK    1  A    between atoms: C_1  and  O_2
REMARK    2  A    between atoms: O_2  and  C_3
REMARK    3  A    between atoms: C_8  and  C_9
REMARK    4  A    between atoms: C_9  and  C_11
REMARK    5  A    between atoms: C_14  and  C_15
REMARK    6  A    between atoms: C_16  and  C_17
REMARK    7  A    between atoms: N_20  and  C_21
REMARK    8  A    between atoms: C_21  and  C_22
REMARK    9  A    between atoms: C_31  and  O_32
REMARK   10  A    between atoms: O_32  and  C_33
REMARK                            x       y       z     vdW  Elec       q    Type
REMARK                         _______ _______ _______ _____ _____    ______ ____
ROOT
ATOM      1  C   UNL     1      -4.596  11.655  18.473  0.00  0.00    +0.000 A 
ATOM      2  C   UNL     1      -3.474  10.959  18.041  0.00  0.00    +0.000 A 
ATOM      3  C   UNL     1      -2.229  11.180  18.639  0.00  0.00    +0.000 A 
ATOM      4  C   UNL     1      -1.074  10.420  18.107  0.00  0.00    +0.000 A 
ATOM      5  O   UNL     1      -1.236   9.658  17.160  0.00  0.00    +0.000 OA
ATOM      6  C   UNL     1       0.247  10.631  18.734  0.00  0.00    +0.000 A 
ATOM      7  C   UNL     1       0.294  11.528  19.734  0.00  0.00    +0.000 A 
ATOM      8  N   UNL     1      -0.770  12.261  20.264  0.00  0.00    +0.000 N 
ATOM      9  C   UNL     1      -2.056  12.093  19.693  0.00  0.00    +0.000 A 
ATOM     10  C   UNL     1      -3.206  12.789  20.113  0.00  0.00    +0.000 A 
ATOM     11  C   UNL     1      -4.456  12.606  19.491  0.00  0.00    +0.000 A 
ENDROOT
BRANCH   1  13
ATOM     12  C   UNL     1      -6.648  10.478  18.522  0.00  0.00    +0.000 C 
ATOM     13  O   UNL     1      -5.841  11.488  17.921  0.00  0.00    +0.000 OA
ENDBRANCH   1  13
BRANCH   6  14
ATOM     14  C   UNL     1       1.516  10.006  18.260  0.00  0.00    +0.000 C 
ATOM     15  O   UNL     1       2.267  10.618  17.501  0.00  0.00    +0.000 OA
BRANCH  14  16
ATOM     16  C   UNL     1       1.898   8.636  18.704  0.00  0.00    +0.000 A 
ATOM     17  C   UNL     1       1.529   8.134  19.954  0.00  0.00    +0.000 A 
ATOM     18  C   UNL     1       1.938   6.858  20.345  0.00  0.00    +0.000 A 
ATOM     19  C   UNL     1       2.753   6.069  19.517  0.00  0.00    +0.000 A 
ATOM     20  C   UNL     1       3.190   4.717  20.012  0.00  0.00    +0.000 C 
ATOM     21  C   UNL     1       3.150   6.577  18.266  0.00  0.00    +0.000 A 
ATOM     22  C   UNL     1       4.028   5.804  17.315  0.00  0.00    +0.000 C 
ATOM     23  C   UNL     1       2.715   7.857  17.872  0.00  0.00    +0.000 A 
ENDBRANCH  14  16
ENDBRANCH   6  14
BRANCH  11  24
ATOM     24  O   UNL     1      -5.594  13.275  19.873  0.00  0.00    +0.000 OA
ATOM     25  C   UNL     1      -5.441  14.245  20.903  0.00  0.00    +0.000 C 
ENDBRANCH  11  24
BRANCH   8  26
ATOM     26  C   UNL     1      -0.539  13.333  21.260  0.00  0.00    +0.000 C 
BRANCH  26  27
ATOM     27  C   UNL     1       0.259  14.484  20.673  0.00  0.00    +0.000 A 
ATOM     28  C   UNL     1       1.646  14.587  20.885  0.00  0.00    +0.000 A 
ATOM     29  C   UNL     1       2.353  15.698  20.422  0.00  0.00    +0.000 A 
ATOM     30  C   UNL     1       1.684  16.695  19.724  0.00  0.00    +0.000 A 
ATOM     31  F   UNL     1       2.360  17.771  19.302  0.00  0.00    +0.000 F 
ATOM     32  C   UNL     1       0.326  16.593  19.459  0.00  0.00    +0.000 A 
ATOM     33  C   UNL     1      -0.385  15.488  19.928  0.00  0.00    +0.000 A 
ENDBRANCH  26  27
ENDBRANCH   8  26
TORSDOF 6
ENDMDL
MODEL 8
REMARK VINA RESULT:      -8.2      3.944      9.659
REMARK  Name = 
REMARK  10 active torsions:
REMARK  status: ('A' for Active; 'I' for Inactive)
REMARK    1  A    between atoms: C_1  and  O_2
REMARK    2  A    between atoms: O_2  and  C_3
REMARK    3  A    between atoms: C_8  and  C_9
REMARK    4  A    between atoms: C_9  and  C_11
REMARK    5  A    between atoms: C_14  and  C_15
REMARK    6  A    between atoms: C_16  and  C_17
REMARK    7  A    between atoms: N_20  and  C_21
REMARK    8  A    between atoms: C_21  and  C_22
REMARK    9  A    between atoms: C_31  and  O_32
REMARK   10  A    between atoms: O_32  and  C_33
REMARK                            x       y       z     vdW  Elec       q    Type
REMARK                         _______ _______ _______ _____ _____    ______ ____
ROOT
ATOM      1  C   UNL     1       1.117  15.579  19.559  0.00  0.00    +0.000 A 
ATOM      2  C   UNL     1       1.625  14.384  20.051  0.00  0.00    +0.000 A 
ATOM      3  C   UNL     1       0.817  13.244  20.121  0.00  0.00    +0.000 A 
ATOM      4  C   UNL     1       1.422  12.014  20.681  0.00  0.00    +0.000 A 
ATOM      5  O   UNL     1       2.579  12.037  21.083  0.00  0.00    +0.000 OA
ATOM      6  C   UNL     1       0.586  10.798  20.752  0.00  0.00    +0.000 A 
ATOM      7  C   UNL     1      -0.681  10.920  20.318  0.00  0.00    +0.000 A 
ATOM      8  N   UNL     1      -1.286  12.060  19.784  0.00  0.00    +0.000 N 
ATOM      9  C   UNL     1      -0.523  13.251  19.697  0.00  0.00    +0.000 A 
ATOM     10  C   UNL     1      -1.018  14.474  19.205  0.00  0.00    +0.000 A 
ATOM     11  C   UNL     1      -0.226  15.638  19.169  0.00  0.00    +0.000 A 
ENDROOT
BRANCH   1  13
ATOM     12  C   UNL     1       2.170  17.353  20.717  0.00  0.00    +0.000 C 
ATOM     13  O   UNL     1       1.858  16.731  19.473  0.00  0.00    +0.000 OA
ENDBRANCH   1  13
BRANCH   6  14
ATOM     14  C   UNL     1       1.021   9.509  21.363  0.00  0.00    +0.000 C 
ATOM     15  O   UNL     1       0.964   9.344  22.582  0.00  0.00    +0.000 OA
BRANCH  14  16
ATOM     16  C   UNL     1       1.525   8.397  20.508  0.00  0.00    +0.000 A 
ATOM     17  C   UNL     1       1.920   8.602  19.185  0.00  0.00    +0.000 A 
ATOM     18  C   UNL     1       2.353   7.526  18.408  0.00  0.00    +0.000 A 
ATOM     19  C   UNL     1       2.366   6.218  18.918  0.00  0.00    +0.000 A 
ATOM     20  C   UNL     1       2.809   5.096  18.018  0.00  0.00    +0.000 C 
ATOM     21  C   UNL     1       1.946   5.998  20.243  0.00  0.00    +0.000 A 
ATOM     22  C   UNL     1       1.920   4.629  20.873  0.00  0.00    +0.000 C 
ATOM     23  C   UNL     1       1.531   7.093  21.026  0.00  0.00    +0.000 A 
ENDBRANCH  14  16
ENDBRANCH   6  14
BRANCH  11  24
ATOM     24  O   UNL     1      -0.682  16.846  18.701  0.00  0.00    +0.000 OA
ATOM     25  C   UNL     1      -1.677  17.493  19.487  0.00  0.00    +0.000 C 
ENDBRANCH  11  24
BRANCH   8  26
ATOM     26  C   UNL     1      -2.739  12.091  19.497  0.00  0.00    +0.000 C 
BRANCH  26  27
ATOM     27  C   UNL     1      -3.051  11.565  18.107  0.00  0.00    +0.000 A 
ATOM     28  C   UNL     1      -4.298  11.803  17.505  0.00  0.00    +0.000 A 
ATOM     29  C   UNL     1      -4.609  11.235  16.268  0.00  0.00    +0.000 A 
ATOM     30  C   UNL     1      -3.665  10.451  15.617  0.00  0.00    +0.000 A 
ATOM     31  F   UNL     1      -3.972   9.888  14.442  0.00  0.00    +0.000 F 
ATOM     32  C   UNL     1      -2.408  10.242  16.167  0.00  0.00    +0.000 A 
ATOM     33  C   UNL     1      -2.099  10.802  17.407  0.00  0.00    +0.000 A 
ENDBRANCH  26  27
ENDBRANCH   8  26
TORSDOF 6
ENDMDL
MODEL 9
REMARK VINA RESULT:      -8.2      4.016      9.172
REMARK  Name = 
REMARK  10 active torsions:
REMARK  status: ('A' for Active; 'I' for Inactive)
REMARK    1  A    between atoms: C_1  and  O_2
REMARK    2  A    between atoms: O_2  and  C_3
REMARK    3  A    between atoms: C_8  and  C_9
REMARK    4  A    between atoms: C_9  and  C_11
REMARK    5  A    between atoms: C_14  and  C_15
REMARK    6  A    between atoms: C_16  and  C_17
REMARK    7  A    between atoms: N_20  and  C_21
REMARK    8  A    between atoms: C_21  and  C_22
REMARK    9  A    between atoms: C_31  and  O_32
REMARK   10  A    between atoms: O_32  and  C_33
REMARK                            x       y       z     vdW  Elec       q    Type
REMARK                         _______ _______ _______ _____ _____    ______ ____
ROOT
ATOM      1  C   UNL     1      -3.954  11.677  18.781  0.00  0.00    +0.000 A 
ATOM      2  C   UNL     1      -2.936  10.897  18.248  0.00  0.00    +0.000 A 
ATOM      3  C   UNL     1      -1.635  10.983  18.755  0.00  0.00    +0.000 A 
ATOM      4  C   UNL     1      -0.599  10.139  18.118  0.00  0.00    +0.000 A 
ATOM      5  O   UNL     1      -0.899   9.426  17.167  0.00  0.00    +0.000 OA
ATOM      6  C   UNL     1       0.778  10.209  18.648  0.00  0.00    +0.000 A 
ATOM      7  C   UNL     1       0.982  11.065  19.665  0.00  0.00    +0.000 A 
ATOM      8  N   UNL     1       0.033  11.874  20.292  0.00  0.00    +0.000 N 
ATOM      9  C   UNL     1      -1.302  11.842  19.816  0.00  0.00    +0.000 A 
ATOM     10  C   UNL     1      -2.348  12.626  20.339  0.00  0.00    +0.000 A 
ATOM     11  C   UNL     1      -3.652  12.578  19.809  0.00  0.00    +0.000 A 
ENDROOT
BRANCH   1  13
ATOM     12  C   UNL     1      -5.447  12.187  17.019  0.00  0.00    +0.000 C 
ATOM     13  O   UNL     1      -5.246  11.643  18.320  0.00  0.00    +0.000 OA
ENDBRANCH   1  13
BRANCH   6  14
ATOM     14  C   UNL     1       1.946   9.487  18.064  0.00  0.00    +0.000 C 
ATOM     15  O   UNL     1       2.654  10.028  17.215  0.00  0.00    +0.000 OA
BRANCH  14  16
ATOM     16  C   UNL     1       2.278   8.102  18.504  0.00  0.00    +0.000 A 
ATOM     17  C   UNL     1       1.833   7.587  19.723  0.00  0.00    +0.000 A 
ATOM     18  C   UNL     1       2.196   6.296  20.113  0.00  0.00    +0.000 A 
ATOM     19  C   UNL     1       3.040   5.506  19.316  0.00  0.00    +0.000 A 
ATOM     20  C   UNL     1       3.424   4.136  19.809  0.00  0.00    +0.000 C 
ATOM     21  C   UNL     1       3.513   6.026  18.097  0.00  0.00    +0.000 A 
ATOM     22  C   UNL     1       4.426   5.252  17.181  0.00  0.00    +0.000 C 
ATOM     23  C   UNL     1       3.123   7.321  17.703  0.00  0.00    +0.000 A 
ENDBRANCH  14  16
ENDBRANCH   6  14
BRANCH  11  24
ATOM     24  O   UNL     1      -4.691  13.335  20.293  0.00  0.00    +0.000 OA
ATOM     25  C   UNL     1      -4.337  14.542  20.959  0.00  0.00    +0.000 C 
ENDBRANCH  11  24
BRANCH   8  26
ATOM     26  C   UNL     1       0.434  12.888  21.294  0.00  0.00    +0.000 C 
BRANCH  26  27
ATOM     27  C   UNL     1       1.321  13.961  20.686  0.00  0.00    +0.000 A 
ATOM     28  C   UNL     1       2.666  14.095  21.071  0.00  0.00    +0.000 A 
ATOM     29  C   UNL     1       3.444  15.143  20.577  0.00  0.00    +0.000 A 
ATOM     30  C   UNL     1       2.890  16.043  19.676  0.00  0.00    +0.000 A 
ATOM     31  F   UNL     1       3.631  17.062  19.222  0.00  0.00    +0.000 F 
ATOM     32  C   UNL     1       1.580  15.904  19.242  0.00  0.00    +0.000 A 
ATOM     33  C   UNL     1       0.798  14.862  19.741  0.00  0.00    +0.000 A 
ENDBRANCH  26  27
ENDBRANCH   8  26
TORSDOF 6
ENDMDL
