MODEL 1
REMARK VINA RESULT:      -8.7      0.000      0.000
REMARK  Name = 
REMARK  7 active torsions:
REMARK  status: ('A' for Active; 'I' for Inactive)
REMARK    1  A    between atoms: C_1  and  C_2
REMARK    2  A    between atoms: C_2  and  C_3
REMARK    3  A    between atoms: C_10  and  S_11
REMARK    4  A    between atoms: S_11  and  C_14
REMARK    5  A    between atoms: C_14  and  C_15
REMARK    6  A    between atoms: C_15  and  C_16
REMARK    7  A    between atoms: C_22  and  C_23
REMARK                            x       y       z     vdW  Elec       q    Type
REMARK                         _______ _______ _______ _____ _____    ______ ____
ROOT
ATOM      1  S   UNL     1       2.062   3.363  20.100  0.00  0.00    +0.000 S 
ATOM      2  O   UNL     1       1.197   2.379  19.463  0.00  0.00    +0.000 OA
ATOM      3  O   UNL     1       2.723   3.055  21.356  0.00  0.00    +0.000 OA
ENDROOT
BRANCH   1  11
ATOM      4  C   UNL     1       6.792   4.822  15.008  0.00  0.00    +0.000 C 
ATOM      5  O   UNL     1       7.854   5.317  14.604  0.00  0.00    +0.000 OA
ATOM      6  N   UNL     1       6.440   4.899  16.343  0.00  0.00    +0.000 N 
ATOM      7  C   UNL     1       7.283   5.694  17.251  0.00  0.00    +0.000 C 
ATOM      8  C   UNL     1       6.725   5.532  18.664  0.00  0.00    +0.000 C 
ATOM      9  C   UNL     1       5.425   4.836  18.402  0.00  0.00    +0.000 A 
ATOM     10  C   UNL     1       4.445   4.533  19.344  0.00  0.00    +0.000 A 
ATOM     11  C   UNL     1       3.329   3.806  18.923  0.00  0.00    +0.000 A 
ATOM     12  C   UNL     1       3.236   3.349  17.600  0.00  0.00    +0.000 A 
ATOM     13  C   UNL     1       4.237   3.664  16.666  0.00  0.00    +0.000 A 
ATOM     14  C   UNL     1       5.324   4.427  17.065  0.00  0.00    +0.000 A 
BRANCH   4  16
ATOM     15  C   UNL     1       6.498   3.791  12.712  0.00  0.00    +0.000 C 
ATOM     16  C   UNL     1       5.843   4.153  14.034  0.00  0.00    +0.000 C 
ENDBRANCH   4  16
ENDBRANCH   1  11
BRANCH   1  17
ATOM     17  C   UNL     1       1.125   4.854  20.318  0.00  0.00    +0.000 C 
BRANCH  17  18
ATOM     18  C   UNL     1       1.879   5.917  21.117  0.00  0.00    +0.000 C 
BRANCH  18  19
ATOM     19  C   UNL     1       1.731   7.256  20.417  0.00  0.00    +0.000 C 
ATOM     20  O   UNL     1       2.291   7.472  19.344  0.00  0.00    +0.000 OA
ATOM     21  N   UNL     1       0.941   8.172  21.088  0.00  0.00    +0.000 N 
ATOM     22  C   UNL     1       0.778   9.466  20.567  0.00  0.00    +0.000 A 
ATOM     23  C   UNL     1       0.353   9.657  19.258  0.00  0.00    +0.000 A 
ATOM     24  C   UNL     1       0.312  10.952  18.744  0.00  0.00    +0.000 A 
ATOM     25  C   UNL     1       0.723  12.017  19.540  0.00  0.00    +0.000 A 
ATOM     26  C   UNL     1       0.815  13.407  18.996  0.00  0.00    +0.000 C 
ATOM     27  C   UNL     1       1.081  11.726  20.855  0.00  0.00    +0.000 A 
ATOM     28  N   UNL     1       1.076  10.483  21.398  0.00  0.00    +0.000 NA
ATOM     29  H   UNL     1       0.978   8.155  22.099  0.00  0.00    +0.000 HD
ENDBRANCH  18  19
ENDBRANCH  17  18
ENDBRANCH   1  17
TORSDOF 5
ENDMDL
MODEL 2
REMARK VINA RESULT:      -8.5      1.384      1.782
REMARK  Name = 
REMARK  7 active torsions:
REMARK  status: ('A' for Active; 'I' for Inactive)
REMARK    1  A    between atoms: C_1  and  C_2
REMARK    2  A    between atoms: C_2  and  C_3
REMARK    3  A    between atoms: C_10  and  S_11
REMARK    4  A    between atoms: S_11  and  C_14
REMARK    5  A    between atoms: C_14  and  C_15
REMARK    6  A    between atoms: C_15  and  C_16
REMARK    7  A    between atoms: C_22  and  C_23
REMARK                            x       y       z     vdW  Elec       q    Type
REMARK                         _______ _______ _______ _____ _____    ______ ____
ROOT
ATOM      1  S   UNL     1       2.411   3.560  20.325  0.00  0.00    +0.000 S 
ATOM      2  O   UNL     1       1.148   3.239  19.674  0.00  0.00    +0.000 OA
ATOM      3  O   UNL     1       3.046   2.599  21.209  0.00  0.00    +0.000 OA
ENDROOT
BRANCH   1  11
ATOM      4  C   UNL     1       6.724   4.903  14.845  0.00  0.00    +0.000 C 
ATOM      5  O   UNL     1       7.769   5.353  14.354  0.00  0.00    +0.000 OA
ATOM      6  N   UNL     1       6.500   4.964  16.209  0.00  0.00    +0.000 N 
ATOM      7  C   UNL     1       7.463   5.694  17.049  0.00  0.00    +0.000 C 
ATOM      8  C   UNL     1       7.029   5.526  18.504  0.00  0.00    +0.000 C 
ATOM      9  C   UNL     1       5.676   4.903  18.351  0.00  0.00    +0.000 A 
ATOM     10  C   UNL     1       4.772   4.627  19.374  0.00  0.00    +0.000 A 
ATOM     11  C   UNL     1       3.586   3.967  19.044  0.00  0.00    +0.000 A 
ATOM     12  C   UNL     1       3.348   3.548  17.727  0.00  0.00    +0.000 A 
ATOM     13  C   UNL     1       4.275   3.834  16.710  0.00  0.00    +0.000 A 
ATOM     14  C   UNL     1       5.432   4.532  17.022  0.00  0.00    +0.000 A 
BRANCH   4  16
ATOM     15  C   UNL     1       6.224   3.541  12.767  0.00  0.00    +0.000 C 
ATOM     16  C   UNL     1       5.656   4.306  13.951  0.00  0.00    +0.000 C 
ENDBRANCH   4  16
ENDBRANCH   1  11
BRANCH   1  17
ATOM     17  C   UNL     1       2.193   5.077  21.219  0.00  0.00    +0.000 C 
BRANCH  17  18
ATOM     18  C   UNL     1       2.111   6.298  20.304  0.00  0.00    +0.000 C 
BRANCH  18  19
ATOM     19  C   UNL     1       1.140   7.299  20.903  0.00  0.00    +0.000 C 
ATOM     20  O   UNL     1      -0.058   7.035  20.999  0.00  0.00    +0.000 OA
ATOM     21  N   UNL     1       1.714   8.491  21.304  0.00  0.00    +0.000 N 
ATOM     22  C   UNL     1       0.906   9.517  21.821  0.00  0.00    +0.000 A 
ATOM     23  C   UNL     1       0.034   9.273  22.875  0.00  0.00    +0.000 A 
ATOM     24  C   UNL     1      -0.830  10.286  23.284  0.00  0.00    +0.000 A 
ATOM     25  C   UNL     1      -0.824  11.504  22.611  0.00  0.00    +0.000 A 
ATOM     26  C   UNL     1      -1.816  12.577  22.929  0.00  0.00    +0.000 C 
ATOM     27  C   UNL     1       0.123  11.667  21.601  0.00  0.00    +0.000 A 
ATOM     28  N   UNL     1       1.015  10.718  21.221  0.00  0.00    +0.000 NA
ATOM     29  H   UNL     1       2.485   8.837  20.749  0.00  0.00    +0.000 HD
ENDBRANCH  18  19
ENDBRANCH  17  18
ENDBRANCH   1  17
TORSDOF 5
ENDMDL
MODEL 3
REMARK VINA RESULT:      -8.3      1.179      1.403
REMARK  Name = 
REMARK  7 active torsions:
REMARK  status: ('A' for Active; 'I' for Inactive)
REMARK    1  A    between atoms: C_1  and  C_2
REMARK    2  A    between atoms: C_2  and  C_3
REMARK    3  A    between atoms: C_10  and  S_11
REMARK    4  A    between atoms: S_11  and  C_14
REMARK    5  A    between atoms: C_14  and  C_15
REMARK    6  A    between atoms: C_15  and  C_16
REMARK    7  A    between atoms: C_22  and  C_23
REMARK                            x       y       z     vdW  Elec       q    Type
REMARK                         _______ _______ _______ _____ _____    ______ ____
ROOT
ATOM      1  S   UNL     1       2.199   3.784  20.224  0.00  0.00    +0.000 S 
ATOM      2  O   UNL     1       1.023   3.265  19.539  0.00  0.00    +0.000 OA
ATOM      3  O   UNL     1       2.838   3.010  21.273  0.00  0.00    +0.000 OA
ENDROOT
BRANCH   1  11
ATOM      4  C   UNL     1       6.762   4.870  14.891  0.00  0.00    +0.000 C 
ATOM      5  O   UNL     1       7.839   5.277  14.433  0.00  0.00    +0.000 OA
ATOM      6  N   UNL     1       6.487   4.970  16.244  0.00  0.00    +0.000 N 
ATOM      7  C   UNL     1       7.438   5.691  17.105  0.00  0.00    +0.000 C 
ATOM      8  C   UNL     1       6.943   5.570  18.545  0.00  0.00    +0.000 C 
ATOM      9  C   UNL     1       5.578   4.983  18.352  0.00  0.00    +0.000 A 
ATOM     10  C   UNL     1       4.627   4.759  19.344  0.00  0.00    +0.000 A 
ATOM     11  C   UNL     1       3.435   4.126  18.982  0.00  0.00    +0.000 A 
ATOM     12  C   UNL     1       3.237   3.683  17.666  0.00  0.00    +0.000 A 
ATOM     13  C   UNL     1       4.211   3.918  16.681  0.00  0.00    +0.000 A 
ATOM     14  C   UNL     1       5.376   4.588  17.023  0.00  0.00    +0.000 A 
BRANCH   4  16
ATOM     15  C   UNL     1       6.303   3.613  12.739  0.00  0.00    +0.000 C 
ATOM     16  C   UNL     1       5.712   4.284  13.969  0.00  0.00    +0.000 C 
ENDBRANCH   4  16
ENDBRANCH   1  11
BRANCH   1  17
ATOM     17  C   UNL     1       1.787   5.378  20.884  0.00  0.00    +0.000 C 
BRANCH  17  18
ATOM     18  C   UNL     1       2.214   6.527  19.970  0.00  0.00    +0.000 C 
BRANCH  18  19
ATOM     19  C   UNL     1       1.427   7.770  20.341  0.00  0.00    +0.000 C 
ATOM     20  O   UNL     1       0.801   7.829  21.398  0.00  0.00    +0.000 OA
ATOM     21  N   UNL     1       1.475   8.784  19.402  0.00  0.00    +0.000 N 
ATOM     22  C   UNL     1       0.738   9.962  19.607  0.00  0.00    +0.000 A 
ATOM     23  C   UNL     1       0.867  10.685  20.787  0.00  0.00    +0.000 A 
ATOM     24  C   UNL     1       0.037  11.784  20.999  0.00  0.00    +0.000 A 
ATOM     25  C   UNL     1      -0.920  12.114  20.043  0.00  0.00    +0.000 A 
ATOM     26  C   UNL     1      -1.915  13.204  20.280  0.00  0.00    +0.000 C 
ATOM     27  C   UNL     1      -0.934  11.358  18.872  0.00  0.00    +0.000 A 
ATOM     28  N   UNL     1      -0.099  10.320  18.615  0.00  0.00    +0.000 NA
ATOM     29  H   UNL     1       1.513   8.507  18.430  0.00  0.00    +0.000 HD
ENDBRANCH  18  19
ENDBRANCH  17  18
ENDBRANCH   1  17
TORSDOF 5
ENDMDL
MODEL 4
REMARK VINA RESULT:      -8.2      1.249      1.309
REMARK  Name = 
REMARK  7 active torsions:
REMARK  status: ('A' for Active; 'I' for Inactive)
REMARK    1  A    between atoms: C_1  and  C_2
REMARK    2  A    between atoms: C_2  and  C_3
REMARK    3  A    between atoms: C_10  and  S_11
REMARK    4  A    between atoms: S_11  and  C_14
REMARK    5  A    between atoms: C_14  and  C_15
REMARK    6  A    between atoms: C_15  and  C_16
REMARK    7  A    between atoms: C_22  and  C_23
REMARK                            x       y       z     vdW  Elec       q    Type
REMARK                         _______ _______ _______ _____ _____    ______ ____
ROOT
ATOM      1  S   UNL     1       1.882   4.552  20.489  0.00  0.00    +0.000 S 
ATOM      2  O   UNL     1       0.802   3.789  19.879  0.00  0.00    +0.000 OA
ATOM      3  O   UNL     1       2.485   4.106  21.732  0.00  0.00    +0.000 OA
ENDROOT
BRANCH   1  11
ATOM      4  C   UNL     1       6.700   4.874  15.282  0.00  0.00    +0.000 C 
ATOM      5  O   UNL     1       7.836   5.119  14.849  0.00  0.00    +0.000 OA
ATOM      6  N   UNL     1       6.404   5.043  16.623  0.00  0.00    +0.000 N 
ATOM      7  C   UNL     1       7.422   5.644  17.500  0.00  0.00    +0.000 C 
ATOM      8  C   UNL     1       6.874   5.626  18.926  0.00  0.00    +0.000 C 
ATOM      9  C   UNL     1       5.447   5.229  18.702  0.00  0.00    +0.000 A 
ATOM     10  C   UNL     1       4.446   5.161  19.667  0.00  0.00    +0.000 A 
ATOM     11  C   UNL     1       3.188   4.691  19.280  0.00  0.00    +0.000 A 
ATOM     12  C   UNL     1       2.968   4.250  17.967  0.00  0.00    +0.000 A 
ATOM     13  C   UNL     1       3.992   4.326  17.008  0.00  0.00    +0.000 A 
ATOM     14  C   UNL     1       5.229   4.836  17.374  0.00  0.00    +0.000 A 
BRANCH   4  16
ATOM     15  C   UNL     1       6.134   3.678  13.121  0.00  0.00    +0.000 C 
ATOM     16  C   UNL     1       5.606   4.419  14.339  0.00  0.00    +0.000 C 
ENDBRANCH   4  16
ENDBRANCH   1  11
BRANCH   1  17
ATOM     17  C   UNL     1       1.314   6.217  20.716  0.00  0.00    +0.000 C 
BRANCH  17  18
ATOM     18  C   UNL     1       2.235   7.251  20.067  0.00  0.00    +0.000 C 
BRANCH  18  19
ATOM     19  C   UNL     1       1.460   8.540  19.861  0.00  0.00    +0.000 C 
ATOM     20  O   UNL     1       1.479   9.122  18.778  0.00  0.00    +0.000 OA
ATOM     21  N   UNL     1       0.765   8.979  20.973  0.00  0.00    +0.000 N 
ATOM     22  C   UNL     1       0.058  10.192  20.921  0.00  0.00    +0.000 A 
ATOM     23  C   UNL     1      -0.872  10.430  19.916  0.00  0.00    +0.000 A 
ATOM     24  C   UNL     1      -1.469  11.686  19.834  0.00  0.00    +0.000 A 
ATOM     25  C   UNL     1      -1.101  12.679  20.737  0.00  0.00    +0.000 A 
ATOM     26  C   UNL     1      -1.619  14.077  20.613  0.00  0.00    +0.000 C 
ATOM     27  C   UNL     1      -0.200  12.325  21.739  0.00  0.00    +0.000 A 
ATOM     28  N   UNL     1       0.353  11.094  21.877  0.00  0.00    +0.000 NA
ATOM     29  H   UNL     1       1.191   8.809  21.875  0.00  0.00    +0.000 HD
ENDBRANCH  18  19
ENDBRANCH  17  18
ENDBRANCH   1  17
TORSDOF 5
ENDMDL
MODEL 5
REMARK VINA RESULT:      -8.1      1.925      8.170
REMARK  Name = 
REMARK  7 active torsions:
REMARK  status: ('A' for Active; 'I' for Inactive)
REMARK    1  A    between atoms: C_1  and  C_2
REMARK    2  A    between atoms: C_2  and  C_3
REMARK    3  A    between atoms: C_10  and  S_11
REMARK    4  A    between atoms: S_11  and  C_14
REMARK    5  A    between atoms: C_14  and  C_15
REMARK    6  A    between atoms: C_15  and  C_16
REMARK    7  A    between atoms: C_22  and  C_23
REMARK                            x       y       z     vdW  Elec       q    Type
REMARK                         _______ _______ _______ _____ _____    ______ ____
ROOT
ATOM      1  S   UNL     1       2.914   4.116  18.822  0.00  0.00    +0.000 S 
ATOM      2  O   UNL     1       2.124   3.175  19.605  0.00  0.00    +0.000 OA
ATOM      3  O   UNL     1       2.930   4.033  17.373  0.00  0.00    +0.000 OA
ENDROOT
BRANCH   1  11
ATOM      4  C   UNL     1       0.612  10.440  21.089  0.00  0.00    +0.000 C 
ATOM      5  O   UNL     1       0.367  11.644  20.923  0.00  0.00    +0.000 OA
ATOM      6  N   UNL     1       1.109   9.672  20.051  0.00  0.00    +0.000 N 
ATOM      7  C   UNL     1       1.468  10.339  18.789  0.00  0.00    +0.000 C 
ATOM      8  C   UNL     1       1.897   9.257  17.799  0.00  0.00    +0.000 C 
ATOM      9  C   UNL     1       1.985   8.050  18.682  0.00  0.00    +0.000 A 
ATOM     10  C   UNL     1       2.441   6.787  18.313  0.00  0.00    +0.000 A 
ATOM     11  C   UNL     1       2.374   5.761  19.258  0.00  0.00    +0.000 A 
ATOM     12  C   UNL     1       1.809   5.993  20.521  0.00  0.00    +0.000 A 
ATOM     13  C   UNL     1       1.352   7.275  20.872  0.00  0.00    +0.000 A 
ATOM     14  C   UNL     1       1.460   8.310  19.955  0.00  0.00    +0.000 A 
BRANCH   4  16
ATOM     15  C   UNL     1      -0.867  10.266  23.139  0.00  0.00    +0.000 C 
ATOM     16  C   UNL     1       0.401   9.798  22.444  0.00  0.00    +0.000 C 
ENDBRANCH   4  16
ENDBRANCH   1  11
BRANCH   1  17
ATOM     17  C   UNL     1       4.589   4.036  19.401  0.00  0.00    +0.000 C 
BRANCH  17  18
ATOM     18  C   UNL     1       5.338   5.358  19.235  0.00  0.00    +0.000 C 
BRANCH  18  19
ATOM     19  C   UNL     1       5.793   5.489  17.793  0.00  0.00    +0.000 C 
ATOM     20  O   UNL     1       5.899   6.593  17.262  0.00  0.00    +0.000 OA
ATOM     21  N   UNL     1       6.057   4.288  17.161  0.00  0.00    +0.000 N 
ATOM     22  C   UNL     1       6.430   4.278  15.807  0.00  0.00    +0.000 A 
ATOM     23  C   UNL     1       7.491   5.055  15.356  0.00  0.00    +0.000 A 
ATOM     24  C   UNL     1       7.758   5.104  13.990  0.00  0.00    +0.000 A 
ATOM     25  C   UNL     1       6.942   4.402  13.107  0.00  0.00    +0.000 A 
ATOM     26  C   UNL     1       7.110   4.522  11.626  0.00  0.00    +0.000 C 
ATOM     27  C   UNL     1       5.938   3.612  13.663  0.00  0.00    +0.000 A 
ATOM     28  N   UNL     1       5.692   3.500  14.993  0.00  0.00    +0.000 NA
ATOM     29  H   UNL     1       5.478   3.499  17.417  0.00  0.00    +0.000 HD
ENDBRANCH  18  19
ENDBRANCH  17  18
ENDBRANCH   1  17
TORSDOF 5
ENDMDL
MODEL 6
REMARK VINA RESULT:      -8.0      2.389      7.194
REMARK  Name = 
REMARK  7 active torsions:
REMARK  status: ('A' for Active; 'I' for Inactive)
REMARK    1  A    between atoms: C_1  and  C_2
REMARK    2  A    between atoms: C_2  and  C_3
REMARK    3  A    between atoms: C_10  and  S_11
REMARK    4  A    between atoms: S_11  and  C_14
REMARK    5  A    between atoms: C_14  and  C_15
REMARK    6  A    between atoms: C_15  and  C_16
REMARK    7  A    between atoms: C_22  and  C_23
REMARK                            x       y       z     vdW  Elec       q    Type
REMARK                         _______ _______ _______ _____ _____    ______ ____
ROOT
ATOM      1  S   UNL     1       2.383   3.546  18.744  0.00  0.00    +0.000 S 
ATOM      2  O   UNL     1       2.924   2.859  19.910  0.00  0.00    +0.000 OA
ATOM      3  O   UNL     1       1.180   3.055  18.096  0.00  0.00    +0.000 OA
ENDROOT
BRANCH   1  11
ATOM      4  C   UNL     1       1.060  10.094  21.152  0.00  0.00    +0.000 C 
ATOM      5  O   UNL     1       0.951  11.320  21.000  0.00  0.00    +0.000 OA
ATOM      6  N   UNL     1       1.375   9.275  20.082  0.00  0.00    +0.000 N 
ATOM      7  C   UNL     1       1.711   9.898  18.792  0.00  0.00    +0.000 C 
ATOM      8  C   UNL     1       1.923   8.776  17.777  0.00  0.00    +0.000 C 
ATOM      9  C   UNL     1       1.933   7.564  18.656  0.00  0.00    +0.000 A 
ATOM     10  C   UNL     1       2.201   6.256  18.259  0.00  0.00    +0.000 A 
ATOM     11  C   UNL     1       2.084   5.242  19.213  0.00  0.00    +0.000 A 
ATOM     12  C   UNL     1       1.655   5.536  20.515  0.00  0.00    +0.000 A 
ATOM     13  C   UNL     1       1.388   6.863  20.895  0.00  0.00    +0.000 A 
ATOM     14  C   UNL     1       1.548   7.881  19.966  0.00  0.00    +0.000 A 
BRANCH   4  16
ATOM     15  C   UNL     1      -0.492   9.734  23.123  0.00  0.00    +0.000 C 
ATOM     16  C   UNL     1       0.881   9.476  22.523  0.00  0.00    +0.000 C 
ENDBRANCH   4  16
ENDBRANCH   1  11
BRANCH   1  17
ATOM     17  C   UNL     1       3.668   3.646  17.526  0.00  0.00    +0.000 C 
BRANCH  17  18
ATOM     18  C   UNL     1       5.042   3.268  18.079  0.00  0.00    +0.000 C 
BRANCH  18  19
ATOM     19  C   UNL     1       5.774   4.533  18.487  0.00  0.00    +0.000 C 
ATOM     20  O   UNL     1       5.652   4.996  19.620  0.00  0.00    +0.000 OA
ATOM     21  N   UNL     1       6.552   5.095  17.491  0.00  0.00    +0.000 N 
ATOM     22  C   UNL     1       7.231   6.301  17.731  0.00  0.00    +0.000 A 
ATOM     23  C   UNL     1       8.068   6.438  18.832  0.00  0.00    +0.000 A 
ATOM     24  C   UNL     1       8.635   7.682  19.098  0.00  0.00    +0.000 A 
ATOM     25  C   UNL     1       8.328   8.763  18.277  0.00  0.00    +0.000 A 
ATOM     26  C   UNL     1       8.809  10.144  18.592  0.00  0.00    +0.000 C 
ATOM     27  C   UNL     1       7.521   8.510  17.170  0.00  0.00    +0.000 A 
ATOM     28  N   UNL     1       7.002   7.297  16.855  0.00  0.00    +0.000 NA
ATOM     29  H   UNL     1       6.208   5.018  16.543  0.00  0.00    +0.000 HD
ENDBRANCH  18  19
ENDBRANCH  17  18
ENDBRANCH   1  17
TORSDOF 5
ENDMDL
MODEL 7
REMARK VINA RESULT:      -7.9      2.221      9.047
REMARK  Name = 
REMARK  7 active torsions:
REMARK  status: ('A' for Active; 'I' for Inactive)
REMARK    1  A    between atoms: C_1  and  C_2
REMARK    2  A    between atoms: C_2  and  C_3
REMARK    3  A    between atoms: C_10  and  S_11
REMARK    4  A    between atoms: S_11  and  C_14
REMARK    5  A    between atoms: C_14  and  C_15
REMARK    6  A    between atoms: C_15  and  C_16
REMARK    7  A    between atoms: C_22  and  C_23
REMARK                            x       y       z     vdW  Elec       q    Type
REMARK                         _______ _______ _______ _____ _____    ______ ____
ROOT
ATOM      1  S   UNL     1       3.289   6.217  18.597  0.00  0.00    +0.000 S 
ATOM      2  O   UNL     1       3.854   5.603  19.792  0.00  0.00    +0.000 OA
ATOM      3  O   UNL     1       2.537   5.418  17.647  0.00  0.00    +0.000 OA
ENDROOT
BRANCH   1  11
ATOM      4  C   UNL     1      -0.916  11.723  20.156  0.00  0.00    +0.000 C 
ATOM      5  O   UNL     1      -1.558  12.425  20.951  0.00  0.00    +0.000 OA
ATOM      6  N   UNL     1      -0.187  10.636  20.603  0.00  0.00    +0.000 N 
ATOM      7  C   UNL     1      -0.295  10.248  22.019  0.00  0.00    +0.000 C 
ATOM      8  C   UNL     1       0.673   9.091  22.258  0.00  0.00    +0.000 C 
ATOM      9  C   UNL     1       1.084   8.741  20.861  0.00  0.00    +0.000 A 
ATOM     10  C   UNL     1       1.889   7.671  20.480  0.00  0.00    +0.000 A 
ATOM     11  C   UNL     1       2.231   7.553  19.130  0.00  0.00    +0.000 A 
ATOM     12  C   UNL     1       1.818   8.522  18.205  0.00  0.00    +0.000 A 
ATOM     13  C   UNL     1       1.008   9.596  18.611  0.00  0.00    +0.000 A 
ATOM     14  C   UNL     1       0.625   9.693  19.940  0.00  0.00    +0.000 A 
BRANCH   4  16
ATOM     15  C   UNL     1      -0.234  13.318  18.309  0.00  0.00    +0.000 C 
ATOM     16  C   UNL     1      -0.949  12.026  18.672  0.00  0.00    +0.000 C 
ENDBRANCH   4  16
ENDBRANCH   1  11
BRANCH   1  17
ATOM     17  C   UNL     1       4.607   7.023  17.723  0.00  0.00    +0.000 C 
BRANCH  17  18
ATOM     18  C   UNL     1       5.926   6.255  17.801  0.00  0.00    +0.000 C 
BRANCH  18  19
ATOM     19  C   UNL     1       6.003   5.287  16.635  0.00  0.00    +0.000 C 
ATOM     20  O   UNL     1       5.915   4.074  16.815  0.00  0.00    +0.000 OA
ATOM     21  N   UNL     1       6.185   5.885  15.401  0.00  0.00    +0.000 N 
ATOM     22  C   UNL     1       6.330   5.089  14.253  0.00  0.00    +0.000 A 
ATOM     23  C   UNL     1       5.389   4.115  13.941  0.00  0.00    +0.000 A 
ATOM     24  C   UNL     1       5.626   3.271  12.858  0.00  0.00    +0.000 A 
ATOM     25  C   UNL     1       6.808   3.402  12.134  0.00  0.00    +0.000 A 
ATOM     26  C   UNL     1       7.166   2.442  11.045  0.00  0.00    +0.000 C 
ATOM     27  C   UNL     1       7.662   4.442  12.495  0.00  0.00    +0.000 A 
ATOM     28  N   UNL     1       7.429   5.314  13.508  0.00  0.00    +0.000 NA
ATOM     29  H   UNL     1       6.756   6.720  15.377  0.00  0.00    +0.000 HD
ENDBRANCH  18  19
ENDBRANCH  17  18
ENDBRANCH   1  17
TORSDOF 5
ENDMDL
MODEL 8
REMARK VINA RESULT:      -7.8      3.777      5.503
REMARK  Name = 
REMARK  7 active torsions:
REMARK  status: ('A' for Active; 'I' for Inactive)
REMARK    1  A    between atoms: C_1  and  C_2
REMARK    2  A    between atoms: C_2  and  C_3
REMARK    3  A    between atoms: C_10  and  S_11
REMARK    4  A    between atoms: S_11  and  C_14
REMARK    5  A    between atoms: C_14  and  C_15
REMARK    6  A    between atoms: C_15  and  C_16
REMARK    7  A    between atoms: C_22  and  C_23
REMARK                            x       y       z     vdW  Elec       q    Type
REMARK                         _______ _______ _______ _____ _____    ______ ____
ROOT
ATOM      1  S   UNL     1       0.815   9.532  20.765  0.00  0.00    +0.000 S 
ATOM      2  O   UNL     1      -0.612   9.296  20.941  0.00  0.00    +0.000 OA
ATOM      3  O   UNL     1       1.627   9.988  21.879  0.00  0.00    +0.000 OA
ENDROOT
BRANCH   1  11
ATOM      4  C   UNL     1       3.854   3.802  17.873  0.00  0.00    +0.000 C 
ATOM      5  O   UNL     1       4.151   2.598  17.871  0.00  0.00    +0.000 OA
ATOM      6  N   UNL     1       3.108   4.344  18.904  0.00  0.00    +0.000 N 
ATOM      7  C   UNL     1       2.788   3.497  20.064  0.00  0.00    +0.000 C 
ATOM      8  C   UNL     1       1.889   4.307  20.997  0.00  0.00    +0.000 C 
ATOM      9  C   UNL     1       1.974   5.675  20.393  0.00  0.00    +0.000 A 
ATOM     10  C   UNL     1       1.421   6.844  20.911  0.00  0.00    +0.000 A 
ATOM     11  C   UNL     1       1.539   8.016  20.161  0.00  0.00    +0.000 A 
ATOM     12  C   UNL     1       2.148   7.994  18.898  0.00  0.00    +0.000 A 
ATOM     13  C   UNL     1       2.698   6.804  18.393  0.00  0.00    +0.000 A 
ATOM     14  C   UNL     1       2.628   5.646  19.153  0.00  0.00    +0.000 A 
BRANCH   4  16
ATOM     15  C   UNL     1       5.757   5.204  16.960  0.00  0.00    +0.000 C 
ATOM     16  C   UNL     1       4.335   4.708  16.758  0.00  0.00    +0.000 C 
ENDBRANCH   4  16
ENDBRANCH   1  11
BRANCH   1  17
ATOM     17  C   UNL     1       1.017  10.679  19.427  0.00  0.00    +0.000 C 
BRANCH  17  18
ATOM     18  C   UNL     1       0.426  12.056  19.731  0.00  0.00    +0.000 C 
BRANCH  18  19
ATOM     19  C   UNL     1      -0.863  12.223  18.947  0.00  0.00    +0.000 C 
ATOM     20  O   UNL     1      -0.874  12.821  17.872  0.00  0.00    +0.000 OA
ATOM     21  N   UNL     1      -1.978  11.664  19.545  0.00  0.00    +0.000 N 
ATOM     22  C   UNL     1      -3.238  11.806  18.941  0.00  0.00    +0.000 A 
ATOM     23  C   UNL     1      -3.437  11.441  17.615  0.00  0.00    +0.000 A 
ATOM     24  C   UNL     1      -4.670  11.700  17.021  0.00  0.00    +0.000 A 
ATOM     25  C   UNL     1      -5.661  12.344  17.756  0.00  0.00    +0.000 A 
ATOM     26  C   UNL     1      -6.954  12.756  17.127  0.00  0.00    +0.000 C 
ATOM     27  C   UNL     1      -5.382  12.622  19.092  0.00  0.00    +0.000 A 
ATOM     28  N   UNL     1      -4.211  12.328  19.712  0.00  0.00    +0.000 NA
ATOM     29  H   UNL     1      -2.019  11.693  20.555  0.00  0.00    +0.000 HD
ENDBRANCH  18  19
ENDBRANCH  17  18
ENDBRANCH   1  17
TORSDOF 5
ENDMDL
MODEL 9
REMARK VINA RESULT:      -7.8      3.787      5.957
REMARK  Name = 
REMARK  7 active torsions:
REMARK  status: ('A' for Active; 'I' for Inactive)
REMARK    1  A    between atoms: C_1  and  C_2
REMARK    2  A    between atoms: C_2  and  C_3
REMARK    3  A    between atoms: C_10  and  S_11
REMARK    4  A    between atoms: S_11  and  C_14
REMARK    5  A    between atoms: C_14  and  C_15
REMARK    6  A    between atoms: C_15  and  C_16
REMARK    7  A    between atoms: C_22  and  C_23
REMARK                            x       y       z     vdW  Elec       q    Type
REMARK                         _______ _______ _______ _____ _____    ______ ____
ROOT
ATOM      1  S   UNL     1       1.398   9.835  18.421  0.00  0.00    +0.000 S 
ATOM      2  O   UNL     1       2.446  10.576  17.731  0.00  0.00    +0.000 OA
ATOM      3  O   UNL     1       0.072   9.727  17.840  0.00  0.00    +0.000 OA
ENDROOT
BRANCH   1  11
ATOM      4  C   UNL     1       3.527   3.250  20.015  0.00  0.00    +0.000 C 
ATOM      5  O   UNL     1       4.154   2.209  19.771  0.00  0.00    +0.000 OA
ATOM      6  N   UNL     1       3.572   4.323  19.142  0.00  0.00    +0.000 N 
ATOM      7  C   UNL     1       4.267   4.155  17.855  0.00  0.00    +0.000 C 
ATOM      8  C   UNL     1       4.245   5.504  17.138  0.00  0.00    +0.000 C 
ATOM      9  C   UNL     1       3.296   6.290  17.990  0.00  0.00    +0.000 A 
ATOM     10  C   UNL     1       2.822   7.574  17.732  0.00  0.00    +0.000 A 
ATOM     11  C   UNL     1       2.002   8.177  18.689  0.00  0.00    +0.000 A 
ATOM     12  C   UNL     1       1.716   7.521  19.895  0.00  0.00    +0.000 A 
ATOM     13  C   UNL     1       2.206   6.226  20.136  0.00  0.00    +0.000 A 
ATOM     14  C   UNL     1       2.981   5.602  19.170  0.00  0.00    +0.000 A 
BRANCH   4  16
ATOM     15  C   UNL     1       1.261   2.820  21.066  0.00  0.00    +0.000 C 
ATOM     16  C   UNL     1       2.672   3.353  21.261  0.00  0.00    +0.000 C 
ENDBRANCH   4  16
ENDBRANCH   1  11
BRANCH   1  17
ATOM     17  C   UNL     1       1.235  10.512  20.052  0.00  0.00    +0.000 C 
BRANCH  17  18
ATOM     18  C   UNL     1       0.657  11.927  20.053  0.00  0.00    +0.000 C 
BRANCH  18  19
ATOM     19  C   UNL     1      -0.851  11.842  20.203  0.00  0.00    +0.000 C 
ATOM     20  O   UNL     1      -1.361  11.502  21.269  0.00  0.00    +0.000 OA
ATOM     21  N   UNL     1      -1.563  12.164  19.061  0.00  0.00    +0.000 N 
ATOM     22  C   UNL     1      -2.964  12.066  19.061  0.00  0.00    +0.000 A 
ATOM     23  C   UNL     1      -3.722  12.704  20.036  0.00  0.00    +0.000 A 
ATOM     24  C   UNL     1      -5.098  12.491  20.068  0.00  0.00    +0.000 A 
ATOM     25  C   UNL     1      -5.678  11.624  19.146  0.00  0.00    +0.000 A 
ATOM     26  C   UNL     1      -7.128  11.265  19.217  0.00  0.00    +0.000 C 
ATOM     27  C   UNL     1      -4.840  11.075  18.177  0.00  0.00    +0.000 A 
ATOM     28  N   UNL     1      -3.507  11.310  18.088  0.00  0.00    +0.000 NA
ATOM     29  H   UNL     1      -1.149  11.906  18.175  0.00  0.00    +0.000 HD
ENDBRANCH  18  19
ENDBRANCH  17  18
ENDBRANCH   1  17
TORSDOF 5
ENDMDL
