MODEL 1
REMARK VINA RESULT:      -7.7      0.000      0.000
REMARK  Name = 
REMARK  8 active torsions:
REMARK  status: ('A' for Active; 'I' for Inactive)
REMARK    1  A    between atoms: C_1  and  C_2
REMARK    2  A    between atoms: C_6  and  C_7
REMARK    3  A    between atoms: C_8  and  N_9
REMARK    4  A    between atoms: C_10  and  C_12
REMARK    5  A    between atoms: C_12  and  N_13
REMARK    6  A    between atoms: C_12  and  C_22
REMARK    7  A    between atoms: N_13  and  S_14
REMARK    8  A    between atoms: S_14  and  C_17
REMARK                            x       y       z     vdW  Elec       q    Type
REMARK                         _______ _______ _______ _____ _____    ______ ____
ROOT
ATOM      1  C   UNL     1       3.215   6.038  18.851  0.00  0.00    +0.000 C 
ENDROOT
BRANCH   1   2
ATOM      2  C   UNL     1       2.271   4.883  19.147  0.00  0.00    +0.000 A 
ATOM      3  C   UNL     1       1.949   4.561  20.477  0.00  0.00    +0.000 A 
ATOM      4  C   UNL     1       1.111   3.482  20.767  0.00  0.00    +0.000 A 
ATOM      5  C   UNL     1       0.576   2.713  19.737  0.00  0.00    +0.000 A 
ATOM      6  C   UNL     1       0.853   3.039  18.415  0.00  0.00    +0.000 A 
ATOM      7  C   UNL     1       1.672   4.127  18.129  0.00  0.00    +0.000 A 
ENDBRANCH   1   2
BRANCH   1   9
ATOM      8  N   UNL     1       1.536   7.726  19.648  0.00  0.00    +0.000 N 
ATOM      9  C   UNL     1       2.649   7.485  18.845  0.00  0.00    +0.000 C 
ATOM     10  O   UNL     1       3.167   8.323  18.099  0.00  0.00    +0.000 OA
ATOM     11  H   UNL     1       1.335   7.057  20.374  0.00  0.00    +0.000 HD
BRANCH   8  19
ATOM     12  C   UNL     1       1.714   8.965  22.323  0.00  0.00    +0.000 C 
ATOM     13  C   UNL     1       0.979   9.567  21.154  0.00  0.00    +0.000 A 
ATOM     14  C   UNL     1       0.360  10.811  21.364  0.00  0.00    +0.000 A 
ATOM     15  C   UNL     1      -0.262  11.479  20.318  0.00  0.00    +0.000 A 
ATOM     16  C   UNL     1      -0.254  10.929  19.039  0.00  0.00    +0.000 A 
ATOM     17  C   UNL     1       0.370   9.697  18.786  0.00  0.00    +0.000 A 
ATOM     18  C   UNL     1       0.311   9.146  17.387  0.00  0.00    +0.000 C 
ATOM     19  C   UNL     1       0.996   9.016  19.846  0.00  0.00    +0.000 A 
ENDBRANCH   8  19
ENDBRANCH   1   9
BRANCH   1  20
ATOM     20  N   UNL     1       4.479   5.998  19.642  0.00  0.00    +0.000 NA
ATOM     21  H   UNL     1       4.262   5.826  20.630  0.00  0.00    +0.000 HD
BRANCH  20  22
ATOM     22  S   UNL     1       5.640   4.841  19.224  0.00  0.00    +0.000 S 
ATOM     23  O   UNL     1       6.917   5.354  19.673  0.00  0.00    +0.000 OA
ATOM     24  O   UNL     1       5.174   3.526  19.604  0.00  0.00    +0.000 OA
BRANCH  22  25
ATOM     25  C   UNL     1       5.751   4.766  17.453  0.00  0.00    +0.000 A 
ATOM     26  C   UNL     1       5.047   4.031  16.516  0.00  0.00    +0.000 A 
ATOM     27  C   UNL     1       5.485   4.282  15.186  0.00  0.00    +0.000 A 
ATOM     28  C   UNL     1       6.527   5.183  15.154  0.00  0.00    +0.000 A 
ATOM     29  S   UNL     1       6.931   5.759  16.715  0.00  0.00    +0.000 S 
ENDBRANCH  22  25
ENDBRANCH  20  22
ENDBRANCH   1  20
TORSDOF 6
ENDMDL
MODEL 2
REMARK VINA RESULT:      -7.6      0.129      1.923
REMARK  Name = 
REMARK  8 active torsions:
REMARK  status: ('A' for Active; 'I' for Inactive)
REMARK    1  A    between atoms: C_1  and  C_2
REMARK    2  A    between atoms: C_6  and  C_7
REMARK    3  A    between atoms: C_8  and  N_9
REMARK    4  A    between atoms: C_10  and  C_12
REMARK    5  A    between atoms: C_12  and  N_13
REMARK    6  A    between atoms: C_12  and  C_22
REMARK    7  A    between atoms: N_13  and  S_14
REMARK    8  A    between atoms: S_14  and  C_17
REMARK                            x       y       z     vdW  Elec       q    Type
REMARK                         _______ _______ _______ _____ _____    ______ ____
ROOT
ATOM      1  C   UNL     1       3.228   6.085  18.824  0.00  0.00    +0.000 C 
ENDROOT
BRANCH   1   2
ATOM      2  C   UNL     1       2.306   4.919  19.146  0.00  0.00    +0.000 A 
ATOM      3  C   UNL     1       1.784   4.129  18.108  0.00  0.00    +0.000 A 
ATOM      4  C   UNL     1       0.909   3.075  18.385  0.00  0.00    +0.000 A 
ATOM      5  C   UNL     1       0.546   2.792  19.699  0.00  0.00    +0.000 A 
ATOM      6  C   UNL     1       1.082   3.539  20.741  0.00  0.00    +0.000 A 
ATOM      7  C   UNL     1       1.970   4.575  20.463  0.00  0.00    +0.000 A 
ENDBRANCH   1   2
BRANCH   1   9
ATOM      8  N   UNL     1       1.518   7.744  19.618  0.00  0.00    +0.000 N 
ATOM      9  C   UNL     1       2.642   7.525  18.823  0.00  0.00    +0.000 C 
ATOM     10  O   UNL     1       3.155   8.375  18.088  0.00  0.00    +0.000 OA
ATOM     11  H   UNL     1       1.320   7.067  20.337  0.00  0.00    +0.000 HD
BRANCH   8  19
ATOM     12  C   UNL     1       0.202   9.112  17.356  0.00  0.00    +0.000 C 
ATOM     13  C   UNL     1       0.427   9.732  18.710  0.00  0.00    +0.000 A 
ATOM     14  C   UNL     1      -0.045  11.042  18.897  0.00  0.00    +0.000 A 
ATOM     15  C   UNL     1       0.040  11.657  20.139  0.00  0.00    +0.000 A 
ATOM     16  C   UNL     1       0.574  10.964  21.222  0.00  0.00    +0.000 A 
ATOM     17  C   UNL     1       1.040   9.647  21.080  0.00  0.00    +0.000 A 
ATOM     18  C   UNL     1       1.636   8.972  22.284  0.00  0.00    +0.000 C 
ATOM     19  C   UNL     1       0.959   9.025  19.820  0.00  0.00    +0.000 A 
ENDBRANCH   8  19
ENDBRANCH   1   9
BRANCH   1  20
ATOM     20  N   UNL     1       4.510   6.067  19.587  0.00  0.00    +0.000 NA
ATOM     21  H   UNL     1       4.313   5.951  20.587  0.00  0.00    +0.000 HD
BRANCH  20  22
ATOM     22  S   UNL     1       5.642   4.870  19.205  0.00  0.00    +0.000 S 
ATOM     23  O   UNL     1       6.926   5.352  19.670  0.00  0.00    +0.000 OA
ATOM     24  O   UNL     1       5.131   3.576  19.594  0.00  0.00    +0.000 OA
BRANCH  22  25
ATOM     25  C   UNL     1       5.783   4.768  17.438  0.00  0.00    +0.000 A 
ATOM     26  C   UNL     1       5.114   3.998  16.503  0.00  0.00    +0.000 A 
ATOM     27  C   UNL     1       5.566   4.238  15.176  0.00  0.00    +0.000 A 
ATOM     28  C   UNL     1       6.582   5.167  15.143  0.00  0.00    +0.000 A 
ATOM     29  S   UNL     1       6.945   5.782  16.699  0.00  0.00    +0.000 S 
ENDBRANCH  22  25
ENDBRANCH  20  22
ENDBRANCH   1  20
TORSDOF 6
ENDMDL
MODEL 3
REMARK VINA RESULT:      -7.4      2.394      4.797
REMARK  Name = 
REMARK  8 active torsions:
REMARK  status: ('A' for Active; 'I' for Inactive)
REMARK    1  A    between atoms: C_1  and  C_2
REMARK    2  A    between atoms: C_6  and  C_7
REMARK    3  A    between atoms: C_8  and  N_9
REMARK    4  A    between atoms: C_10  and  C_12
REMARK    5  A    between atoms: C_12  and  N_13
REMARK    6  A    between atoms: C_12  and  C_22
REMARK    7  A    between atoms: N_13  and  S_14
REMARK    8  A    between atoms: S_14  and  C_17
REMARK                            x       y       z     vdW  Elec       q    Type
REMARK                         _______ _______ _______ _____ _____    ______ ____
ROOT
ATOM      1  C   UNL     1       3.898   5.135  18.344  0.00  0.00    +0.000 C 
ENDROOT
BRANCH   1   2
ATOM      2  C   UNL     1       5.303   5.715  18.302  0.00  0.00    +0.000 A 
ATOM      3  C   UNL     1       6.266   5.292  19.235  0.00  0.00    +0.000 A 
ATOM      4  C   UNL     1       7.551   5.840  19.232  0.00  0.00    +0.000 A 
ATOM      5  C   UNL     1       7.897   6.812  18.296  0.00  0.00    +0.000 A 
ATOM      6  C   UNL     1       6.970   7.215  17.343  0.00  0.00    +0.000 A 
ATOM      7  C   UNL     1       5.696   6.652  17.336  0.00  0.00    +0.000 A 
ENDBRANCH   1   2
BRANCH   1   9
ATOM      8  N   UNL     1       2.813   7.175  19.326  0.00  0.00    +0.000 N 
ATOM      9  C   UNL     1       2.689   6.108  18.439  0.00  0.00    +0.000 C 
ATOM     10  O   UNL     1       1.675   5.861  17.779  0.00  0.00    +0.000 OA
ATOM     11  H   UNL     1       3.740   7.414  19.638  0.00  0.00    +0.000 HD
BRANCH   8  19
ATOM     12  C   UNL     1       2.705   9.232  17.210  0.00  0.00    +0.000 C 
ATOM     13  C   UNL     1       1.875   9.260  18.468  0.00  0.00    +0.000 A 
ATOM     14  C   UNL     1       0.982  10.335  18.616  0.00  0.00    +0.000 A 
ATOM     15  C   UNL     1       0.116  10.393  19.701  0.00  0.00    +0.000 A 
ATOM     16  C   UNL     1       0.109   9.365  20.640  0.00  0.00    +0.000 A 
ATOM     17  C   UNL     1       0.974   8.266  20.516  0.00  0.00    +0.000 A 
ATOM     18  C   UNL     1       0.936   7.210  21.586  0.00  0.00    +0.000 C 
ATOM     19  C   UNL     1       1.855   8.209  19.421  0.00  0.00    +0.000 A 
ENDBRANCH   8  19
ENDBRANCH   1   9
BRANCH   1  20
ATOM     20  N   UNL     1       3.638   4.113  17.289  0.00  0.00    +0.000 NA
ATOM     21  H   UNL     1       4.502   3.929  16.768  0.00  0.00    +0.000 HD
BRANCH  20  22
ATOM     22  S   UNL     1       3.068   2.597  17.776  0.00  0.00    +0.000 S 
ATOM     23  O   UNL     1       1.839   2.363  17.048  0.00  0.00    +0.000 OA
ATOM     24  O   UNL     1       4.153   1.643  17.760  0.00  0.00    +0.000 OA
BRANCH  22  25
ATOM     25  C   UNL     1       2.600   2.693  19.487  0.00  0.00    +0.000 A 
ATOM     26  C   UNL     1       3.335   2.564  20.651  0.00  0.00    +0.000 A 
ATOM     27  C   UNL     1       2.535   2.705  21.819  0.00  0.00    +0.000 A 
ATOM     28  C   UNL     1       1.209   2.913  21.506  0.00  0.00    +0.000 A 
ATOM     29  S   UNL     1       0.949   2.991  19.816  0.00  0.00    +0.000 S 
ENDBRANCH  22  25
ENDBRANCH  20  22
ENDBRANCH   1  20
TORSDOF 6
ENDMDL
MODEL 4
REMARK VINA RESULT:      -7.3      2.379      6.142
REMARK  Name = 
REMARK  8 active torsions:
REMARK  status: ('A' for Active; 'I' for Inactive)
REMARK    1  A    between atoms: C_1  and  C_2
REMARK    2  A    between atoms: C_6  and  C_7
REMARK    3  A    between atoms: C_8  and  N_9
REMARK    4  A    between atoms: C_10  and  C_12
REMARK    5  A    between atoms: C_12  and  N_13
REMARK    6  A    between atoms: C_12  and  C_22
REMARK    7  A    between atoms: N_13  and  S_14
REMARK    8  A    between atoms: S_14  and  C_17
REMARK                            x       y       z     vdW  Elec       q    Type
REMARK                         _______ _______ _______ _____ _____    ______ ____
ROOT
ATOM      1  C   UNL     1       2.347   6.347  19.664  0.00  0.00    +0.000 C 
ENDROOT
BRANCH   1   2
ATOM      2  C   UNL     1       1.783   7.719  19.999  0.00  0.00    +0.000 A 
ATOM      3  C   UNL     1       1.566   8.658  18.976  0.00  0.00    +0.000 A 
ATOM      4  C   UNL     1       1.081   9.935  19.271  0.00  0.00    +0.000 A 
ATOM      5  C   UNL     1       0.801  10.291  20.588  0.00  0.00    +0.000 A 
ATOM      6  C   UNL     1       0.975   9.364  21.608  0.00  0.00    +0.000 A 
ATOM      7  C   UNL     1       1.438   8.086  21.308  0.00  0.00    +0.000 A 
ENDBRANCH   1   2
BRANCH   1   9
ATOM      8  N   UNL     1       4.319   5.127  18.702  0.00  0.00    +0.000 N 
ATOM      9  C   UNL     1       3.489   6.243  18.615  0.00  0.00    +0.000 C 
ATOM     10  O   UNL     1       3.639   7.163  17.805  0.00  0.00    +0.000 OA
ATOM     11  H   UNL     1       3.983   4.340  19.235  0.00  0.00    +0.000 HD
BRANCH   8  19
ATOM     12  C   UNL     1       7.149   5.687  19.334  0.00  0.00    +0.000 C 
ATOM     13  C   UNL     1       6.656   5.201  17.996  0.00  0.00    +0.000 A 
ATOM     14  C   UNL     1       7.625   4.988  17.001  0.00  0.00    +0.000 A 
ATOM     15  C   UNL     1       7.270   4.457  15.768  0.00  0.00    +0.000 A 
ATOM     16  C   UNL     1       5.947   4.105  15.517  0.00  0.00    +0.000 A 
ATOM     17  C   UNL     1       4.953   4.287  16.493  0.00  0.00    +0.000 A 
ATOM     18  C   UNL     1       3.538   3.917  16.142  0.00  0.00    +0.000 C 
ATOM     19  C   UNL     1       5.311   4.830  17.741  0.00  0.00    +0.000 A 
ENDBRANCH   8  19
ENDBRANCH   1   9
BRANCH   1  20
ATOM     20  N   UNL     1       2.693   5.530  20.863  0.00  0.00    +0.000 NA
ATOM     21  H   UNL     1       2.451   6.050  21.714  0.00  0.00    +0.000 HD
BRANCH  20  22
ATOM     22  S   UNL     1       1.957   4.017  21.031  0.00  0.00    +0.000 S 
ATOM     23  O   UNL     1       2.106   3.635  22.419  0.00  0.00    +0.000 OA
ATOM     24  O   UNL     1       0.665   4.030  20.382  0.00  0.00    +0.000 OA
BRANCH  22  25
ATOM     25  C   UNL     1       2.895   2.827  20.105  0.00  0.00    +0.000 A 
ATOM     26  C   UNL     1       4.182   2.346  20.260  0.00  0.00    +0.000 A 
ATOM     27  C   UNL     1       4.532   1.393  19.263  0.00  0.00    +0.000 A 
ATOM     28  C   UNL     1       3.507   1.196  18.365  0.00  0.00    +0.000 A 
ATOM     29  S   UNL     1       2.117   2.115  18.759  0.00  0.00    +0.000 S 
ENDBRANCH  22  25
ENDBRANCH  20  22
ENDBRANCH   1  20
TORSDOF 6
ENDMDL
MODEL 5
REMARK VINA RESULT:      -7.2      2.162      6.051
REMARK  Name = 
REMARK  8 active torsions:
REMARK  status: ('A' for Active; 'I' for Inactive)
REMARK    1  A    between atoms: C_1  and  C_2
REMARK    2  A    between atoms: C_6  and  C_7
REMARK    3  A    between atoms: C_8  and  N_9
REMARK    4  A    between atoms: C_10  and  C_12
REMARK    5  A    between atoms: C_12  and  N_13
REMARK    6  A    between atoms: C_12  and  C_22
REMARK    7  A    between atoms: N_13  and  S_14
REMARK    8  A    between atoms: S_14  and  C_17
REMARK                            x       y       z     vdW  Elec       q    Type
REMARK                         _______ _______ _______ _____ _____    ______ ____
ROOT
ATOM      1  C   UNL     1       2.388   6.377  19.578  0.00  0.00    +0.000 C 
ENDROOT
BRANCH   1   2
ATOM      2  C   UNL     1       1.825   7.746  19.928  0.00  0.00    +0.000 A 
ATOM      3  C   UNL     1       1.521   8.060  21.263  0.00  0.00    +0.000 A 
ATOM      4  C   UNL     1       0.970   9.300  21.597  0.00  0.00    +0.000 A 
ATOM      5  C   UNL     1       0.721  10.246  20.605  0.00  0.00    +0.000 A 
ATOM      6  C   UNL     1       1.049   9.967  19.285  0.00  0.00    +0.000 A 
ATOM      7  C   UNL     1       1.617   8.738  18.958  0.00  0.00    +0.000 A 
ENDBRANCH   1   2
BRANCH   1   9
ATOM      8  N   UNL     1       4.358   5.159  18.608  0.00  0.00    +0.000 N 
ATOM      9  C   UNL     1       3.540   6.285  18.538  0.00  0.00    +0.000 C 
ATOM     10  O   UNL     1       3.706   7.222  17.751  0.00  0.00    +0.000 OA
ATOM     11  H   UNL     1       4.010   4.365  19.120  0.00  0.00    +0.000 HD
BRANCH   8  19
ATOM     12  C   UNL     1       7.181   5.736  19.258  0.00  0.00    +0.000 C 
ATOM     13  C   UNL     1       6.698   5.254  17.915  0.00  0.00    +0.000 A 
ATOM     14  C   UNL     1       7.673   5.053  16.923  0.00  0.00    +0.000 A 
ATOM     15  C   UNL     1       7.328   4.526  15.685  0.00  0.00    +0.000 A 
ATOM     16  C   UNL     1       6.009   4.167  15.426  0.00  0.00    +0.000 A 
ATOM     17  C   UNL     1       5.009   4.336  16.398  0.00  0.00    +0.000 A 
ATOM     18  C   UNL     1       3.598   3.958  16.038  0.00  0.00    +0.000 C 
ATOM     19  C   UNL     1       5.357   4.875  17.650  0.00  0.00    +0.000 A 
ENDBRANCH   8  19
ENDBRANCH   1   9
BRANCH   1  20
ATOM     20  N   UNL     1       2.721   5.542  20.768  0.00  0.00    +0.000 NA
ATOM     21  H   UNL     1       2.540   6.077  21.625  0.00  0.00    +0.000 HD
BRANCH  20  22
ATOM     22  S   UNL     1       1.897   4.078  20.965  0.00  0.00    +0.000 S 
ATOM     23  O   UNL     1       2.207   3.604  22.297  0.00  0.00    +0.000 OA
ATOM     24  O   UNL     1       0.533   4.222  20.508  0.00  0.00    +0.000 OA
BRANCH  22  25
ATOM     25  C   UNL     1       2.601   2.881  19.857  0.00  0.00    +0.000 A 
ATOM     26  C   UNL     1       2.115   2.299  18.700  0.00  0.00    +0.000 A 
ATOM     27  C   UNL     1       3.029   1.368  18.133  0.00  0.00    +0.000 A 
ATOM     28  C   UNL     1       4.173   1.251  18.891  0.00  0.00    +0.000 A 
ATOM     29  S   UNL     1       4.162   2.301  20.243  0.00  0.00    +0.000 S 
ENDBRANCH  22  25
ENDBRANCH  20  22
ENDBRANCH   1  20
TORSDOF 6
ENDMDL
MODEL 6
REMARK VINA RESULT:      -7.2      2.267      4.540
REMARK  Name = 
REMARK  8 active torsions:
REMARK  status: ('A' for Active; 'I' for Inactive)
REMARK    1  A    between atoms: C_1  and  C_2
REMARK    2  A    between atoms: C_6  and  C_7
REMARK    3  A    between atoms: C_8  and  N_9
REMARK    4  A    between atoms: C_10  and  C_12
REMARK    5  A    between atoms: C_12  and  N_13
REMARK    6  A    between atoms: C_12  and  C_22
REMARK    7  A    between atoms: N_13  and  S_14
REMARK    8  A    between atoms: S_14  and  C_17
REMARK                            x       y       z     vdW  Elec       q    Type
REMARK                         _______ _______ _______ _____ _____    ______ ____
ROOT
ATOM      1  C   UNL     1       3.695   5.293  18.343  0.00  0.00    +0.000 C 
ENDROOT
BRANCH   1   2
ATOM      2  C   UNL     1       5.124   5.812  18.297  0.00  0.00    +0.000 A 
ATOM      3  C   UNL     1       5.494   6.767  17.335  0.00  0.00    +0.000 A 
ATOM      4  C   UNL     1       6.811   7.229  17.258  0.00  0.00    +0.000 A 
ATOM      5  C   UNL     1       7.775   6.749  18.141  0.00  0.00    +0.000 A 
ATOM      6  C   UNL     1       7.419   5.832  19.122  0.00  0.00    +0.000 A 
ATOM      7  C   UNL     1       6.101   5.390  19.210  0.00  0.00    +0.000 A 
ENDBRANCH   1   2
BRANCH   1   9
ATOM      8  N   UNL     1       2.676   7.342  19.373  0.00  0.00    +0.000 N 
ATOM      9  C   UNL     1       2.530   6.316  18.442  0.00  0.00    +0.000 C 
ATOM     10  O   UNL     1       1.525   6.142  17.746  0.00  0.00    +0.000 OA
ATOM     11  H   UNL     1       3.604   7.526  19.719  0.00  0.00    +0.000 HD
BRANCH   8  19
ATOM     12  C   UNL     1       0.855   7.454  21.697  0.00  0.00    +0.000 C 
ATOM     13  C   UNL     1       0.813   8.413  20.536  0.00  0.00    +0.000 A 
ATOM     14  C   UNL     1      -0.151   9.433  20.589  0.00  0.00    +0.000 A 
ATOM     15  C   UNL     1      -0.203  10.413  19.605  0.00  0.00    +0.000 A 
ATOM     16  C   UNL     1       0.725  10.405  18.568  0.00  0.00    +0.000 A 
ATOM     17  C   UNL     1       1.715   9.412  18.490  0.00  0.00    +0.000 A 
ATOM     18  C   UNL     1       2.662   9.445  17.322  0.00  0.00    +0.000 C 
ATOM     19  C   UNL     1       1.764   8.416  19.482  0.00  0.00    +0.000 A 
ENDBRANCH   8  19
ENDBRANCH   1   9
BRANCH   1  20
ATOM     20  N   UNL     1       3.388   4.285  17.287  0.00  0.00    +0.000 NA
ATOM     21  H   UNL     1       4.189   4.197  16.651  0.00  0.00    +0.000 HD
BRANCH  20  22
ATOM     22  S   UNL     1       3.023   2.708  17.777  0.00  0.00    +0.000 S 
ATOM     23  O   UNL     1       1.908   2.269  16.965  0.00  0.00    +0.000 OA
ATOM     24  O   UNL     1       4.241   1.936  17.876  0.00  0.00    +0.000 OA
BRANCH  22  25
ATOM     25  C   UNL     1       2.408   2.763  19.443  0.00  0.00    +0.000 A 
ATOM     26  C   UNL     1       1.144   3.001  19.950  0.00  0.00    +0.000 A 
ATOM     27  C   UNL     1       1.111   2.960  21.372  0.00  0.00    +0.000 A 
ATOM     28  C   UNL     1       2.358   2.715  21.904  0.00  0.00    +0.000 A 
ATOM     29  S   UNL     1       3.543   2.483  20.690  0.00  0.00    +0.000 S 
ENDBRANCH  22  25
ENDBRANCH  20  22
ENDBRANCH   1  20
TORSDOF 6
ENDMDL
MODEL 7
REMARK VINA RESULT:      -7.1      2.480      6.704
REMARK  Name = 
REMARK  8 active torsions:
REMARK  status: ('A' for Active; 'I' for Inactive)
REMARK    1  A    between atoms: C_1  and  C_2
REMARK    2  A    between atoms: C_6  and  C_7
REMARK    3  A    between atoms: C_8  and  N_9
REMARK    4  A    between atoms: C_10  and  C_12
REMARK    5  A    between atoms: C_12  and  N_13
REMARK    6  A    between atoms: C_12  and  C_22
REMARK    7  A    between atoms: N_13  and  S_14
REMARK    8  A    between atoms: S_14  and  C_17
REMARK                            x       y       z     vdW  Elec       q    Type
REMARK                         _______ _______ _______ _____ _____    ______ ____
ROOT
ATOM      1  C   UNL     1       2.816   6.409  19.622  0.00  0.00    +0.000 C 
ENDROOT
BRANCH   1   2
ATOM      2  C   UNL     1       2.216   5.117  20.155  0.00  0.00    +0.000 A 
ATOM      3  C   UNL     1       2.610   4.624  21.411  0.00  0.00    +0.000 A 
ATOM      4  C   UNL     1       2.095   3.421  21.899  0.00  0.00    +0.000 A 
ATOM      5  C   UNL     1       1.176   2.695  21.146  0.00  0.00    +0.000 A 
ATOM      6  C   UNL     1       0.747   3.184  19.918  0.00  0.00    +0.000 A 
ATOM      7  C   UNL     1       1.247   4.394  19.444  0.00  0.00    +0.000 A 
ENDBRANCH   1   2
BRANCH   1   9
ATOM      8  N   UNL     1       4.692   5.338  18.343  0.00  0.00    +0.000 N 
ATOM      9  C   UNL     1       3.732   6.348  18.368  0.00  0.00    +0.000 C 
ATOM     10  O   UNL     1       3.607   7.216  17.499  0.00  0.00    +0.000 OA
ATOM     11  H   UNL     1       4.565   4.563  18.973  0.00  0.00    +0.000 HD
BRANCH   8  19
ATOM     12  C   UNL     1       7.289   6.721  18.089  0.00  0.00    +0.000 C 
ATOM     13  C   UNL     1       6.697   5.823  17.034  0.00  0.00    +0.000 A 
ATOM     14  C   UNL     1       7.454   5.628  15.867  0.00  0.00    +0.000 A 
ATOM     15  C   UNL     1       7.026   4.747  14.883  0.00  0.00    +0.000 A 
ATOM     16  C   UNL     1       5.848   4.026  15.059  0.00  0.00    +0.000 A 
ATOM     17  C   UNL     1       5.073   4.181  16.220  0.00  0.00    +0.000 A 
ATOM     18  C   UNL     1       3.794   3.397  16.329  0.00  0.00    +0.000 C 
ATOM     19  C   UNL     1       5.503   5.078  17.216  0.00  0.00    +0.000 A 
ENDBRANCH   8  19
ENDBRANCH   1   9
BRANCH   1  20
ATOM     20  N   UNL     1       1.824   7.511  19.465  0.00  0.00    +0.000 NA
ATOM     21  H   UNL     1       1.016   7.173  18.931  0.00  0.00    +0.000 HD
BRANCH  20  22
ATOM     22  S   UNL     1       1.183   8.208  20.866  0.00  0.00    +0.000 S 
ATOM     23  O   UNL     1       0.001   7.444  21.205  0.00  0.00    +0.000 OA
ATOM     24  O   UNL     1       2.241   8.435  21.824  0.00  0.00    +0.000 OA
BRANCH  22  25
ATOM     25  C   UNL     1       0.599   9.838  20.470  0.00  0.00    +0.000 A 
ATOM     26  C   UNL     1      -0.047  10.796  21.232  0.00  0.00    +0.000 A 
ATOM     27  C   UNL     1      -0.342  11.973  20.490  0.00  0.00    +0.000 A 
ATOM     28  C   UNL     1       0.066  11.865  19.179  0.00  0.00    +0.000 A 
ATOM     29  S   UNL     1       0.850  10.375  18.867  0.00  0.00    +0.000 S 
ENDBRANCH  22  25
ENDBRANCH  20  22
ENDBRANCH   1  20
TORSDOF 6
ENDMDL
MODEL 8
REMARK VINA RESULT:      -7.1      5.322      8.126
REMARK  Name = 
REMARK  8 active torsions:
REMARK  status: ('A' for Active; 'I' for Inactive)
REMARK    1  A    between atoms: C_1  and  C_2
REMARK    2  A    between atoms: C_6  and  C_7
REMARK    3  A    between atoms: C_8  and  N_9
REMARK    4  A    between atoms: C_10  and  C_12
REMARK    5  A    between atoms: C_12  and  N_13
REMARK    6  A    between atoms: C_12  and  C_22
REMARK    7  A    between atoms: N_13  and  S_14
REMARK    8  A    between atoms: S_14  and  C_17
REMARK                            x       y       z     vdW  Elec       q    Type
REMARK                         _______ _______ _______ _____ _____    ______ ____
ROOT
ATOM      1  C   UNL     1       0.729  11.768  19.216  0.00  0.00    +0.000 C 
ENDROOT
BRANCH   1   2
ATOM      2  C   UNL     1       1.186  10.318  19.223  0.00  0.00    +0.000 A 
ATOM      3  C   UNL     1       1.065   9.549  20.394  0.00  0.00    +0.000 A 
ATOM      4  C   UNL     1       1.512   8.226  20.427  0.00  0.00    +0.000 A 
ATOM      5  C   UNL     1       2.078   7.648  19.293  0.00  0.00    +0.000 A 
ATOM      6  C   UNL     1       2.172   8.381  18.117  0.00  0.00    +0.000 A 
ATOM      7  C   UNL     1       1.707   9.693  18.081  0.00  0.00    +0.000 A 
ENDBRANCH   1   2
BRANCH   1   9
ATOM      8  N   UNL     1      -1.694  11.258  18.799  0.00  0.00    +0.000 N 
ATOM      9  C   UNL     1      -0.630  12.122  18.549  0.00  0.00    +0.000 C 
ATOM     10  O   UNL     1      -0.686  13.101  17.798  0.00  0.00    +0.000 OA
ATOM     11  H   UNL     1      -1.610  10.635  19.586  0.00  0.00    +0.000 HD
BRANCH   8  19
ATOM     12  C   UNL     1      -3.507  12.764  20.579  0.00  0.00    +0.000 C 
ATOM     13  C   UNL     1      -3.920  12.145  19.269  0.00  0.00    +0.000 A 
ATOM     14  C   UNL     1      -5.257  12.324  18.875  0.00  0.00    +0.000 A 
ATOM     15  C   UNL     1      -5.701  11.865  17.642  0.00  0.00    +0.000 A 
ATOM     16  C   UNL     1      -4.811  11.244  16.770  0.00  0.00    +0.000 A 
ATOM     17  C   UNL     1      -3.463  11.063  17.121  0.00  0.00    +0.000 A 
ATOM     18  C   UNL     1      -2.566  10.352  16.144  0.00  0.00    +0.000 C 
ATOM     19  C   UNL     1      -3.014  11.522  18.372  0.00  0.00    +0.000 A 
ENDBRANCH   8  19
ENDBRANCH   1   9
BRANCH   1  20
ATOM     20  N   UNL     1       0.822  12.435  20.547  0.00  0.00    +0.000 NA
ATOM     21  H   UNL     1       1.225  11.783  21.230  0.00  0.00    +0.000 HD
BRANCH  20  22
ATOM     22  S   UNL     1       1.746  13.846  20.665  0.00  0.00    +0.000 S 
ATOM     23  O   UNL     1       1.770  14.210  22.066  0.00  0.00    +0.000 OA
ATOM     24  O   UNL     1       2.962  13.696  19.899  0.00  0.00    +0.000 OA
BRANCH  22  25
ATOM     25  C   UNL     1       0.877  15.160  19.845  0.00  0.00    +0.000 A 
ATOM     26  C   UNL     1       1.222  15.967  18.776  0.00  0.00    +0.000 A 
ATOM     27  C   UNL     1       0.208  16.912  18.457  0.00  0.00    +0.000 A 
ATOM     28  C   UNL     1      -0.870  16.811  19.309  0.00  0.00    +0.000 A 
ATOM     29  S   UNL     1      -0.676  15.547  20.448  0.00  0.00    +0.000 S 
ENDBRANCH  22  25
ENDBRANCH  20  22
ENDBRANCH   1  20
TORSDOF 6
ENDMDL
MODEL 9
REMARK VINA RESULT:      -7.1      2.525      6.794
REMARK  Name = 
REMARK  8 active torsions:
REMARK  status: ('A' for Active; 'I' for Inactive)
REMARK    1  A    between atoms: C_1  and  C_2
REMARK    2  A    between atoms: C_6  and  C_7
REMARK    3  A    between atoms: C_8  and  N_9
REMARK    4  A    between atoms: C_10  and  C_12
REMARK    5  A    between atoms: C_12  and  N_13
REMARK    6  A    between atoms: C_12  and  C_22
REMARK    7  A    between atoms: N_13  and  S_14
REMARK    8  A    between atoms: S_14  and  C_17
REMARK                            x       y       z     vdW  Elec       q    Type
REMARK                         _______ _______ _______ _____ _____    ______ ____
ROOT
ATOM      1  C   UNL     1       2.790   6.406  19.616  0.00  0.00    +0.000 C 
ENDROOT
BRANCH   1   2
ATOM      2  C   UNL     1       2.232   5.102  20.164  0.00  0.00    +0.000 A 
ATOM      3  C   UNL     1       1.296   4.369  19.415  0.00  0.00    +0.000 A 
ATOM      4  C   UNL     1       0.748   3.187  19.919  0.00  0.00    +0.000 A 
ATOM      5  C   UNL     1       1.129   2.716  21.173  0.00  0.00    +0.000 A 
ATOM      6  C   UNL     1       2.080   3.408  21.911  0.00  0.00    +0.000 A 
ATOM      7  C   UNL     1       2.640   4.575  21.397  0.00  0.00    +0.000 A 
ENDBRANCH   1   2
BRANCH   1   9
ATOM      8  N   UNL     1       4.668   5.348  18.328  0.00  0.00    +0.000 N 
ATOM      9  C   UNL     1       3.711   6.360  18.364  0.00  0.00    +0.000 C 
ATOM     10  O   UNL     1       3.591   7.239  17.505  0.00  0.00    +0.000 OA
ATOM     11  H   UNL     1       4.537   4.565  18.949  0.00  0.00    +0.000 HD
BRANCH   8  19
ATOM     12  C   UNL     1       7.256   6.750  18.087  0.00  0.00    +0.000 C 
ATOM     13  C   UNL     1       6.671   5.855  17.026  0.00  0.00    +0.000 A 
ATOM     14  C   UNL     1       7.431   5.672  15.859  0.00  0.00    +0.000 A 
ATOM     15  C   UNL     1       7.010   4.795  14.868  0.00  0.00    +0.000 A 
ATOM     16  C   UNL     1       5.836   4.066  15.038  0.00  0.00    +0.000 A 
ATOM     17  C   UNL     1       5.059   4.208  16.199  0.00  0.00    +0.000 A 
ATOM     18  C   UNL     1       3.785   3.414  16.301  0.00  0.00    +0.000 C 
ATOM     19  C   UNL     1       5.482   5.101  17.201  0.00  0.00    +0.000 A 
ENDBRANCH   8  19
ENDBRANCH   1   9
BRANCH   1  20
ATOM     20  N   UNL     1       1.763   7.474  19.443  0.00  0.00    +0.000 NA
ATOM     21  H   UNL     1       0.948   7.091  18.952  0.00  0.00    +0.000 HD
BRANCH  20  22
ATOM     22  S   UNL     1       1.148   8.217  20.832  0.00  0.00    +0.000 S 
ATOM     23  O   UNL     1      -0.063   7.506  21.180  0.00  0.00    +0.000 OA
ATOM     24  O   UNL     1       2.213   8.415  21.789  0.00  0.00    +0.000 OA
BRANCH  22  25
ATOM     25  C   UNL     1       0.632   9.863  20.412  0.00  0.00    +0.000 A 
ATOM     26  C   UNL     1       0.698  10.575  19.228  0.00  0.00    +0.000 A 
ATOM     27  C   UNL     1       0.166  11.889  19.352  0.00  0.00    +0.000 A 
ATOM     28  C   UNL     1      -0.265  12.145  20.634  0.00  0.00    +0.000 A 
ATOM     29  S   UNL     1      -0.079  10.788  21.661  0.00  0.00    +0.000 S 
ENDBRANCH  22  25
ENDBRANCH  20  22
ENDBRANCH   1  20
TORSDOF 6
ENDMDL
