MODEL 1
REMARK VINA RESULT:      -7.1      0.000      0.000
REMARK  Name = 
REMARK  9 active torsions:
REMARK  status: ('A' for Active; 'I' for Inactive)
REMARK    1  A    between atoms: C_1  and  O_2
REMARK    2  A    between atoms: O_2  and  C_3
REMARK    3  A    between atoms: C_6  and  N_7
REMARK    4  A    between atoms: C_8  and  C_10
REMARK    5  A    between atoms: C_13  and  O_14
REMARK    6  A    between atoms: O_14  and  C_15
REMARK    7  A    between atoms: C_15  and  C_16
REMARK    8  A    between atoms: C_16  and  N_17
REMARK    9  A    between atoms: C_24  and  O_25
REMARK                            x       y       z     vdW  Elec       q    Type
REMARK                         _______ _______ _______ _____ _____    ______ ____
ROOT
ATOM      1  C   UNL     1       7.819   7.982  18.050  0.00  0.00    +0.000 A 
ATOM      2  C   UNL     1       8.346   7.148  19.034  0.00  0.00    +0.000 A 
ATOM      3  C   UNL     1       7.929   5.827  19.121  0.00  0.00    +0.000 A 
ATOM      4  C   UNL     1       6.970   5.326  18.236  0.00  0.00    +0.000 A 
ATOM      5  C   UNL     1       6.436   6.164  17.253  0.00  0.00    +0.000 A 
ATOM      6  C   UNL     1       6.860   7.496  17.155  0.00  0.00    +0.000 A 
ENDROOT
BRANCH   1   8
ATOM      7  N   UNL     1       9.212   9.737  19.008  0.00  0.00    +0.000 N 
ATOM      8  C   UNL     1       8.284   9.385  18.057  0.00  0.00    +0.000 C 
ATOM      9  O   UNL     1       7.830  10.177  17.239  0.00  0.00    +0.000 OA
ATOM     10  H   UNL     1       9.321   9.156  19.831  0.00  0.00    +0.000 HD
BRANCH   7  14
ATOM     11  C   UNL     1      10.641  12.646  20.684  0.00  0.00    +0.000 C 
ATOM     12  C   UNL     1      11.763  11.824  20.052  0.00  0.00    +0.000 C 
ATOM     13  C   UNL     1      11.127  11.286  18.780  0.00  0.00    +0.000 C 
ATOM     14  C   UNL     1       9.625  11.125  19.101  0.00  0.00    +0.000 C 
ATOM     15  C   UNL     1       9.432  11.709  20.519  0.00  0.00    +0.000 C 
BRANCH  11  17
ATOM     16  C   UNL     1      11.245  14.920  20.242  0.00  0.00    +0.000 C 
ATOM     17  O   UNL     1      10.366  13.844  19.951  0.00  0.00    +0.000 OA
ENDBRANCH  11  17
BRANCH  15  18
ATOM     18  O   UNL     1       9.430  10.671  21.510  0.00  0.00    +0.000 OA
ATOM     19  H   UNL     1       8.813   9.981  21.209  0.00  0.00    +0.000 HD
ENDBRANCH  15  18
ENDBRANCH   7  14
ENDBRANCH   1   8
BRANCH   4  20
ATOM     20  O   UNL     1       6.485   4.041  18.259  0.00  0.00    +0.000 OA
BRANCH  20  21
ATOM     21  C   UNL     1       5.082   3.949  17.989  0.00  0.00    +0.000 C 
BRANCH  21  22
ATOM     22  C   UNL     1       4.274   4.010  19.285  0.00  0.00    +0.000 C 
BRANCH  22  23
ATOM     23  N   UNL     1       3.666   2.708  19.634  0.00  0.00    +0.000 NA
ATOM     24  C   UNL     1       2.817   2.224  18.534  0.00  0.00    +0.000 C 
ATOM     25  C   UNL     1       1.490   2.924  18.748  0.00  0.00    +0.000 C 
ATOM     26  C   UNL     1       1.346   2.957  20.258  0.00  0.00    +0.000 C 
ATOM     27  C   UNL     1       2.759   2.763  20.795  0.00  0.00    +0.000 C 
ENDBRANCH  22  23
ENDBRANCH  21  22
ENDBRANCH  20  21
ENDBRANCH   4  20
TORSDOF 8
ENDMDL
MODEL 2
REMARK VINA RESULT:      -7.0      0.800      1.093
REMARK  Name = 
REMARK  9 active torsions:
REMARK  status: ('A' for Active; 'I' for Inactive)
REMARK    1  A    between atoms: C_1  and  O_2
REMARK    2  A    between atoms: O_2  and  C_3
REMARK    3  A    between atoms: C_6  and  N_7
REMARK    4  A    between atoms: C_8  and  C_10
REMARK    5  A    between atoms: C_13  and  O_14
REMARK    6  A    between atoms: O_14  and  C_15
REMARK    7  A    between atoms: C_15  and  C_16
REMARK    8  A    between atoms: C_16  and  N_17
REMARK    9  A    between atoms: C_24  and  O_25
REMARK                            x       y       z     vdW  Elec       q    Type
REMARK                         _______ _______ _______ _____ _____    ______ ____
ROOT
ATOM      1  C   UNL     1       7.868   8.042  18.065  0.00  0.00    +0.000 A 
ATOM      2  C   UNL     1       8.419   7.206  19.033  0.00  0.00    +0.000 A 
ATOM      3  C   UNL     1       8.009   5.884  19.125  0.00  0.00    +0.000 A 
ATOM      4  C   UNL     1       7.032   5.382  18.260  0.00  0.00    +0.000 A 
ATOM      5  C   UNL     1       6.474   6.221  17.292  0.00  0.00    +0.000 A 
ATOM      6  C   UNL     1       6.890   7.555  17.189  0.00  0.00    +0.000 A 
ENDROOT
BRANCH   1   8
ATOM      7  N   UNL     1       9.254   9.805  19.016  0.00  0.00    +0.000 N 
ATOM      8  C   UNL     1       8.327   9.446  18.066  0.00  0.00    +0.000 C 
ATOM      9  O   UNL     1       7.871  10.234  17.244  0.00  0.00    +0.000 OA
ATOM     10  H   UNL     1       9.364   9.228  19.842  0.00  0.00    +0.000 HD
BRANCH   7  14
ATOM     11  C   UNL     1      10.601  12.745  20.706  0.00  0.00    +0.000 C 
ATOM     12  C   UNL     1      11.752  11.913  20.142  0.00  0.00    +0.000 C 
ATOM     13  C   UNL     1      11.176  11.353  18.851  0.00  0.00    +0.000 C 
ATOM     14  C   UNL     1       9.661  11.195  19.103  0.00  0.00    +0.000 C 
ATOM     15  C   UNL     1       9.402  11.805  20.500  0.00  0.00    +0.000 C 
BRANCH  11  17
ATOM     16  C   UNL     1       9.195  14.644  20.323  0.00  0.00    +0.000 C 
ATOM     17  O   UNL     1      10.360  13.930  19.939  0.00  0.00    +0.000 OA
ENDBRANCH  11  17
BRANCH  15  18
ATOM     18  O   UNL     1       9.353  10.784  21.509  0.00  0.00    +0.000 OA
ATOM     19  H   UNL     1       9.197  11.224  22.363  0.00  0.00    +0.000 HD
ENDBRANCH  15  18
ENDBRANCH   7  14
ENDBRANCH   1   8
BRANCH   4  20
ATOM     20  O   UNL     1       6.553   4.095  18.290  0.00  0.00    +0.000 OA
BRANCH  20  21
ATOM     21  C   UNL     1       5.217   3.965  17.790  0.00  0.00    +0.000 C 
BRANCH  21  22
ATOM     22  C   UNL     1       4.337   3.206  18.782  0.00  0.00    +0.000 C 
BRANCH  22  23
ATOM     23  N   UNL     1       3.267   4.054  19.353  0.00  0.00    +0.000 NA
ATOM     24  C   UNL     1       2.107   3.233  19.732  0.00  0.00    +0.000 C 
ATOM     25  C   UNL     1       1.322   3.075  18.443  0.00  0.00    +0.000 C 
ATOM     26  C   UNL     1       1.489   4.420  17.760  0.00  0.00    +0.000 C 
ATOM     27  C   UNL     1       2.720   5.043  18.408  0.00  0.00    +0.000 C 
ENDBRANCH  22  23
ENDBRANCH  21  22
ENDBRANCH  20  21
ENDBRANCH   4  20
TORSDOF 8
ENDMDL
MODEL 3
REMARK VINA RESULT:      -6.9      1.090      1.301
REMARK  Name = 
REMARK  9 active torsions:
REMARK  status: ('A' for Active; 'I' for Inactive)
REMARK    1  A    between atoms: C_1  and  O_2
REMARK    2  A    between atoms: O_2  and  C_3
REMARK    3  A    between atoms: C_6  and  N_7
REMARK    4  A    between atoms: C_8  and  C_10
REMARK    5  A    between atoms: C_13  and  O_14
REMARK    6  A    between atoms: O_14  and  C_15
REMARK    7  A    between atoms: C_15  and  C_16
REMARK    8  A    between atoms: C_16  and  N_17
REMARK    9  A    between atoms: C_24  and  O_25
REMARK                            x       y       z     vdW  Elec       q    Type
REMARK                         _______ _______ _______ _____ _____    ______ ____
ROOT
ATOM      1  C   UNL     1       7.793   8.011  18.043  0.00  0.00    +0.000 A 
ATOM      2  C   UNL     1       8.357   7.148  18.980  0.00  0.00    +0.000 A 
ATOM      3  C   UNL     1       7.935   5.828  19.052  0.00  0.00    +0.000 A 
ATOM      4  C   UNL     1       6.933   5.356  18.199  0.00  0.00    +0.000 A 
ATOM      5  C   UNL     1       6.362   6.223  17.264  0.00  0.00    +0.000 A 
ATOM      6  C   UNL     1       6.791   7.554  17.181  0.00  0.00    +0.000 A 
ENDROOT
BRANCH   1   8
ATOM      7  N   UNL     1       9.156   9.759  19.055  0.00  0.00    +0.000 N 
ATOM      8  C   UNL     1       8.268   9.410  18.064  0.00  0.00    +0.000 C 
ATOM      9  O   UNL     1       7.858  10.202  17.223  0.00  0.00    +0.000 OA
ATOM     10  H   UNL     1       9.223   9.182  19.884  0.00  0.00    +0.000 HD
BRANCH   7  14
ATOM     11  C   UNL     1      10.614  12.642  20.750  0.00  0.00    +0.000 C 
ATOM     12  C   UNL     1      11.725  11.824  20.096  0.00  0.00    +0.000 C 
ATOM     13  C   UNL     1      11.074  11.305  18.824  0.00  0.00    +0.000 C 
ATOM     14  C   UNL     1       9.575  11.145  19.159  0.00  0.00    +0.000 C 
ATOM     15  C   UNL     1       9.400  11.713  20.586  0.00  0.00    +0.000 C 
BRANCH  11  17
ATOM     16  C   UNL     1       9.198  14.558  20.507  0.00  0.00    +0.000 C 
ATOM     17  O   UNL     1      10.335  13.851  20.034  0.00  0.00    +0.000 OA
ENDBRANCH  11  17
BRANCH  15  18
ATOM     18  O   UNL     1       9.404  10.662  21.565  0.00  0.00    +0.000 OA
ATOM     19  H   UNL     1       8.479  10.487  21.810  0.00  0.00    +0.000 HD
ENDBRANCH  15  18
ENDBRANCH   7  14
ENDBRANCH   1   8
BRANCH   4  20
ATOM     20  O   UNL     1       6.441   4.074  18.212  0.00  0.00    +0.000 OA
BRANCH  20  21
ATOM     21  C   UNL     1       5.087   3.972  17.756  0.00  0.00    +0.000 C 
BRANCH  21  22
ATOM     22  C   UNL     1       4.148   3.636  18.914  0.00  0.00    +0.000 C 
BRANCH  22  23
ATOM     23  N   UNL     1       2.757   4.072  18.660  0.00  0.00    +0.000 NA
ATOM     24  C   UNL     1       2.729   5.478  18.230  0.00  0.00    +0.000 C 
ATOM     25  C   UNL     1       2.760   6.267  19.525  0.00  0.00    +0.000 C 
ATOM     26  C   UNL     1       1.914   5.432  20.469  0.00  0.00    +0.000 C 
ATOM     27  C   UNL     1       1.892   4.038  19.852  0.00  0.00    +0.000 C 
ENDBRANCH  22  23
ENDBRANCH  21  22
ENDBRANCH  20  21
ENDBRANCH   4  20
TORSDOF 8
ENDMDL
MODEL 4
REMARK VINA RESULT:      -6.9      6.496     10.025
REMARK  Name = 
REMARK  9 active torsions:
REMARK  status: ('A' for Active; 'I' for Inactive)
REMARK    1  A    between atoms: C_1  and  O_2
REMARK    2  A    between atoms: O_2  and  C_3
REMARK    3  A    between atoms: C_6  and  N_7
REMARK    4  A    between atoms: C_8  and  C_10
REMARK    5  A    between atoms: C_13  and  O_14
REMARK    6  A    between atoms: O_14  and  C_15
REMARK    7  A    between atoms: C_15  and  C_16
REMARK    8  A    between atoms: C_16  and  N_17
REMARK    9  A    between atoms: C_24  and  O_25
REMARK                            x       y       z     vdW  Elec       q    Type
REMARK                         _______ _______ _______ _____ _____    ______ ____
ROOT
ATOM      1  C   UNL     1       1.913   8.414  18.985  0.00  0.00    +0.000 A 
ATOM      2  C   UNL     1       1.947   9.387  17.988  0.00  0.00    +0.000 A 
ATOM      3  C   UNL     1       1.330  10.613  18.193  0.00  0.00    +0.000 A 
ATOM      4  C   UNL     1       0.659  10.879  19.390  0.00  0.00    +0.000 A 
ATOM      5  C   UNL     1       0.619   9.901  20.388  0.00  0.00    +0.000 A 
ATOM      6  C   UNL     1       1.248   8.665  20.190  0.00  0.00    +0.000 A 
ENDROOT
BRANCH   1   8
ATOM      7  N   UNL     1       2.030   5.995  19.255  0.00  0.00    +0.000 N 
ATOM      8  C   UNL     1       2.556   7.122  18.667  0.00  0.00    +0.000 C 
ATOM      9  O   UNL     1       3.523   7.095  17.915  0.00  0.00    +0.000 OA
ATOM     10  H   UNL     1       1.454   6.093  20.083  0.00  0.00    +0.000 HD
BRANCH   7  14
ATOM     11  C   UNL     1       2.400   2.379  19.570  0.00  0.00    +0.000 C 
ATOM     12  C   UNL     1       1.497   2.694  18.379  0.00  0.00    +0.000 C 
ATOM     13  C   UNL     1       2.088   3.980  17.822  0.00  0.00    +0.000 C 
ATOM     14  C   UNL     1       2.689   4.721  19.036  0.00  0.00    +0.000 C 
ATOM     15  C   UNL     1       2.536   3.759  20.236  0.00  0.00    +0.000 C 
BRANCH  11  17
ATOM     16  C   UNL     1       4.665   1.946  20.213  0.00  0.00    +0.000 C 
ATOM     17  O   UNL     1       3.709   1.963  19.164  0.00  0.00    +0.000 OA
ENDBRANCH  11  17
BRANCH  15  18
ATOM     18  O   UNL     1       1.374   4.084  21.015  0.00  0.00    +0.000 OA
ATOM     19  H   UNL     1       1.323   5.055  21.071  0.00  0.00    +0.000 HD
ENDBRANCH  15  18
ENDBRANCH   7  14
ENDBRANCH   1   8
BRANCH   4  20
ATOM     20  O   UNL     1       0.006  12.054  19.671  0.00  0.00    +0.000 OA
BRANCH  20  21
ATOM     21  C   UNL     1      -1.417  11.917  19.753  0.00  0.00    +0.000 C 
BRANCH  21  22
ATOM     22  C   UNL     1      -2.056  12.054  18.371  0.00  0.00    +0.000 C 
BRANCH  22  23
ATOM     23  N   UNL     1      -3.196  11.132  18.181  0.00  0.00    +0.000 NA
ATOM     24  C   UNL     1      -2.723   9.811  17.739  0.00  0.00    +0.000 C 
ATOM     25  C   UNL     1      -2.562   9.954  16.237  0.00  0.00    +0.000 C 
ATOM     26  C   UNL     1      -3.722  10.849  15.841  0.00  0.00    +0.000 C 
ATOM     27  C   UNL     1      -4.137  11.553  17.128  0.00  0.00    +0.000 C 
ENDBRANCH  22  23
ENDBRANCH  21  22
ENDBRANCH  20  21
ENDBRANCH   4  20
TORSDOF 8
ENDMDL
MODEL 5
REMARK VINA RESULT:      -6.8      0.823      1.522
REMARK  Name = 
REMARK  9 active torsions:
REMARK  status: ('A' for Active; 'I' for Inactive)
REMARK    1  A    between atoms: C_1  and  O_2
REMARK    2  A    between atoms: O_2  and  C_3
REMARK    3  A    between atoms: C_6  and  N_7
REMARK    4  A    between atoms: C_8  and  C_10
REMARK    5  A    between atoms: C_13  and  O_14
REMARK    6  A    between atoms: O_14  and  C_15
REMARK    7  A    between atoms: C_15  and  C_16
REMARK    8  A    between atoms: C_16  and  N_17
REMARK    9  A    between atoms: C_24  and  O_25
REMARK                            x       y       z     vdW  Elec       q    Type
REMARK                         _______ _______ _______ _____ _____    ______ ____
ROOT
ATOM      1  C   UNL     1       7.853   8.140  18.187  0.00  0.00    +0.000 A 
ATOM      2  C   UNL     1       6.831   7.825  17.294  0.00  0.00    +0.000 A 
ATOM      3  C   UNL     1       6.326   6.534  17.242  0.00  0.00    +0.000 A 
ATOM      4  C   UNL     1       6.844   5.536  18.072  0.00  0.00    +0.000 A 
ATOM      5  C   UNL     1       7.874   5.849  18.964  0.00  0.00    +0.000 A 
ATOM      6  C   UNL     1       8.382   7.152  19.026  0.00  0.00    +0.000 A 
ENDROOT
BRANCH   1   8
ATOM      7  N   UNL     1       9.235   9.907  19.137  0.00  0.00    +0.000 N 
ATOM      8  C   UNL     1       8.364   9.526  18.145  0.00  0.00    +0.000 C 
ATOM      9  O   UNL     1       7.995  10.280  17.251  0.00  0.00    +0.000 OA
ATOM     10  H   UNL     1       9.267   9.374  19.999  0.00  0.00    +0.000 HD
BRANCH   7  14
ATOM     11  C   UNL     1      10.704  12.848  20.719  0.00  0.00    +0.000 C 
ATOM     12  C   UNL     1      11.818  11.965  20.159  0.00  0.00    +0.000 C 
ATOM     13  C   UNL     1      11.202  11.388  18.894  0.00  0.00    +0.000 C 
ATOM     14  C   UNL     1       9.687  11.285  19.178  0.00  0.00    +0.000 C 
ATOM     15  C   UNL     1       9.473  11.941  20.561  0.00  0.00    +0.000 C 
BRANCH  11  17
ATOM     16  C   UNL     1      11.549  14.959  19.968  0.00  0.00    +0.000 C 
ATOM     17  O   UNL     1      10.486  14.019  19.924  0.00  0.00    +0.000 OA
ENDBRANCH  11  17
BRANCH  15  18
ATOM     18  O   UNL     1       9.411  10.950  21.599  0.00  0.00    +0.000 OA
ATOM     19  H   UNL     1       9.171  11.406  22.425  0.00  0.00    +0.000 HD
ENDBRANCH  15  18
ENDBRANCH   7  14
ENDBRANCH   1   8
BRANCH   4  20
ATOM     20  O   UNL     1       6.419   4.230  18.077  0.00  0.00    +0.000 OA
BRANCH  20  21
ATOM     21  C   UNL     1       4.997   4.086  17.984  0.00  0.00    +0.000 C 
BRANCH  21  22
ATOM     22  C   UNL     1       4.341   4.282  19.350  0.00  0.00    +0.000 C 
BRANCH  22  23
ATOM     23  N   UNL     1       3.094   5.075  19.270  0.00  0.00    +0.000 NA
ATOM     24  C   UNL     1       2.261   4.847  20.461  0.00  0.00    +0.000 C 
ATOM     25  C   UNL     1       1.497   3.575  20.146  0.00  0.00    +0.000 C 
ATOM     26  C   UNL     1       1.209   3.694  18.661  0.00  0.00    +0.000 C 
ATOM     27  C   UNL     1       2.222   4.706  18.140  0.00  0.00    +0.000 C 
ENDBRANCH  22  23
ENDBRANCH  21  22
ENDBRANCH  20  21
ENDBRANCH   4  20
TORSDOF 8
ENDMDL
MODEL 6
REMARK VINA RESULT:      -6.8      7.115      8.233
REMARK  Name = 
REMARK  9 active torsions:
REMARK  status: ('A' for Active; 'I' for Inactive)
REMARK    1  A    between atoms: C_1  and  O_2
REMARK    2  A    between atoms: O_2  and  C_3
REMARK    3  A    between atoms: C_6  and  N_7
REMARK    4  A    between atoms: C_8  and  C_10
REMARK    5  A    between atoms: C_13  and  O_14
REMARK    6  A    between atoms: O_14  and  C_15
REMARK    7  A    between atoms: C_15  and  C_16
REMARK    8  A    between atoms: C_16  and  N_17
REMARK    9  A    between atoms: C_24  and  O_25
REMARK                            x       y       z     vdW  Elec       q    Type
REMARK                         _______ _______ _______ _____ _____    ______ ____
ROOT
ATOM      1  C   UNL     1       1.078   9.280  19.154  0.00  0.00    +0.000 A 
ATOM      2  C   UNL     1       1.361   8.328  20.131  0.00  0.00    +0.000 A 
ATOM      3  C   UNL     1       2.269   7.313  19.870  0.00  0.00    +0.000 A 
ATOM      4  C   UNL     1       2.897   7.225  18.624  0.00  0.00    +0.000 A 
ATOM      5  C   UNL     1       2.610   8.176  17.641  0.00  0.00    +0.000 A 
ATOM      6  C   UNL     1       1.700   9.208  17.902  0.00  0.00    +0.000 A 
ENDROOT
BRANCH   1   8
ATOM      7  N   UNL     1       0.073  10.786  20.784  0.00  0.00    +0.000 N 
ATOM      8  C   UNL     1       0.066  10.300  19.498  0.00  0.00    +0.000 C 
ATOM      9  O   UNL     1      -0.739  10.666  18.649  0.00  0.00    +0.000 OA
ATOM     10  H   UNL     1       0.532  10.250  21.512  0.00  0.00    +0.000 HD
BRANCH   7  14
ATOM     11  C   UNL     1      -1.705  12.923  23.147  0.00  0.00    +0.000 C 
ATOM     12  C   UNL     1      -0.524  13.692  22.558  0.00  0.00    +0.000 C 
ATOM     13  C   UNL     1      -0.451  13.179  21.129  0.00  0.00    +0.000 C 
ATOM     14  C   UNL     1      -0.961  11.722  21.183  0.00  0.00    +0.000 C 
ATOM     15  C   UNL     1      -1.439  11.497  22.635  0.00  0.00    +0.000 C 
BRANCH  11  17
ATOM     16  C   UNL     1      -4.067  13.150  23.467  0.00  0.00    +0.000 C 
ATOM     17  O   UNL     1      -2.959  13.352  22.603  0.00  0.00    +0.000 OA
ENDBRANCH  11  17
BRANCH  15  18
ATOM     18  O   UNL     1      -0.431  10.837  23.415  0.00  0.00    +0.000 OA
ATOM     19  H   UNL     1       0.134  11.526  23.806  0.00  0.00    +0.000 HD
ENDBRANCH  15  18
ENDBRANCH   7  14
ENDBRANCH   1   8
BRANCH   4  20
ATOM     20  O   UNL     1       3.794   6.246  18.272  0.00  0.00    +0.000 OA
BRANCH  20  21
ATOM     21  C   UNL     1       4.071   5.313  19.322  0.00  0.00    +0.000 C 
BRANCH  21  22
ATOM     22  C   UNL     1       3.800   3.881  18.862  0.00  0.00    +0.000 C 
BRANCH  22  23
ATOM     23  N   UNL     1       3.161   3.060  19.914  0.00  0.00    +0.000 NA
ATOM     24  C   UNL     1       2.212   2.106  19.317  0.00  0.00    +0.000 C 
ATOM     25  C   UNL     1       0.937   2.907  19.140  0.00  0.00    +0.000 C 
ATOM     26  C   UNL     1       0.908   3.802  20.366  0.00  0.00    +0.000 C 
ATOM     27  C   UNL     1       2.347   3.835  20.866  0.00  0.00    +0.000 C 
ENDBRANCH  22  23
ENDBRANCH  21  22
ENDBRANCH  20  21
ENDBRANCH   4  20
TORSDOF 8
ENDMDL
MODEL 7
REMARK VINA RESULT:      -6.8      5.784      7.065
REMARK  Name = 
REMARK  9 active torsions:
REMARK  status: ('A' for Active; 'I' for Inactive)
REMARK    1  A    between atoms: C_1  and  O_2
REMARK    2  A    between atoms: O_2  and  C_3
REMARK    3  A    between atoms: C_6  and  N_7
REMARK    4  A    between atoms: C_8  and  C_10
REMARK    5  A    between atoms: C_13  and  O_14
REMARK    6  A    between atoms: O_14  and  C_15
REMARK    7  A    between atoms: C_15  and  C_16
REMARK    8  A    between atoms: C_16  and  N_17
REMARK    9  A    between atoms: C_24  and  O_25
REMARK                            x       y       z     vdW  Elec       q    Type
REMARK                         _______ _______ _______ _____ _____    ______ ____
ROOT
ATOM      1  C   UNL     1       3.041   7.373  18.398  0.00  0.00    +0.000 A 
ATOM      2  C   UNL     1       2.813   6.682  19.586  0.00  0.00    +0.000 A 
ATOM      3  C   UNL     1       3.532   5.529  19.868  0.00  0.00    +0.000 A 
ATOM      4  C   UNL     1       4.479   5.043  18.961  0.00  0.00    +0.000 A 
ATOM      5  C   UNL     1       4.703   5.733  17.766  0.00  0.00    +0.000 A 
ATOM      6  C   UNL     1       3.986   6.902  17.480  0.00  0.00    +0.000 A 
ENDROOT
BRANCH   1   8
ATOM      7  N   UNL     1       1.481   9.055  19.220  0.00  0.00    +0.000 N 
ATOM      8  C   UNL     1       2.201   8.565  18.156  0.00  0.00    +0.000 C 
ATOM      9  O   UNL     1       2.164   9.063  17.036  0.00  0.00    +0.000 OA
ATOM     10  H   UNL     1       1.301   8.452  20.015  0.00  0.00    +0.000 HD
BRANCH   7  14
ATOM     11  C   UNL     1      -0.929  11.598  20.239  0.00  0.00    +0.000 C 
ATOM     12  C   UNL     1       0.488  12.128  20.453  0.00  0.00    +0.000 C 
ATOM     13  C   UNL     1       1.267  11.518  19.298  0.00  0.00    +0.000 C 
ATOM     14  C   UNL     1       0.578  10.168  18.998  0.00  0.00    +0.000 C 
ATOM     15  C   UNL     1      -0.666  10.118  19.915  0.00  0.00    +0.000 C 
BRANCH  11  17
ATOM     16  C   UNL     1      -2.817  11.608  18.767  0.00  0.00    +0.000 C 
ATOM     17  O   UNL     1      -1.563  12.186  19.099  0.00  0.00    +0.000 OA
ENDBRANCH  11  17
BRANCH  15  18
ATOM     18  O   UNL     1      -0.402   9.356  21.103  0.00  0.00    +0.000 OA
ATOM     19  H   UNL     1      -1.256   9.187  21.538  0.00  0.00    +0.000 HD
ENDBRANCH  15  18
ENDBRANCH   7  14
ENDBRANCH   1   8
BRANCH   4  20
ATOM     20  O   UNL     1       5.222   3.903  19.148  0.00  0.00    +0.000 OA
BRANCH  20  21
ATOM     21  C   UNL     1       4.465   2.800  19.659  0.00  0.00    +0.000 C 
BRANCH  21  22
ATOM     22  C   UNL     1       3.359   2.401  18.683  0.00  0.00    +0.000 C 
BRANCH  22  23
ATOM     23  N   UNL     1       2.190   1.805  19.365  0.00  0.00    +0.000 NA
ATOM     24  C   UNL     1       0.944   2.192  18.685  0.00  0.00    +0.000 C 
ATOM     25  C   UNL     1       0.611   3.555  19.262  0.00  0.00    +0.000 C 
ATOM     26  C   UNL     1       1.030   3.436  20.716  0.00  0.00    +0.000 C 
ATOM     27  C   UNL     1       2.007   2.267  20.752  0.00  0.00    +0.000 C 
ENDBRANCH  22  23
ENDBRANCH  21  22
ENDBRANCH  20  21
ENDBRANCH   4  20
TORSDOF 8
ENDMDL
MODEL 8
REMARK VINA RESULT:      -6.8      6.540      9.112
REMARK  Name = 
REMARK  9 active torsions:
REMARK  status: ('A' for Active; 'I' for Inactive)
REMARK    1  A    between atoms: C_1  and  O_2
REMARK    2  A    between atoms: O_2  and  C_3
REMARK    3  A    between atoms: C_6  and  N_7
REMARK    4  A    between atoms: C_8  and  C_10
REMARK    5  A    between atoms: C_13  and  O_14
REMARK    6  A    between atoms: O_14  and  C_15
REMARK    7  A    between atoms: C_15  and  C_16
REMARK    8  A    between atoms: C_16  and  N_17
REMARK    9  A    between atoms: C_24  and  O_25
REMARK                            x       y       z     vdW  Elec       q    Type
REMARK                         _______ _______ _______ _____ _____    ______ ____
ROOT
ATOM      1  C   UNL     1       2.225   7.247  18.830  0.00  0.00    +0.000 A 
ATOM      2  C   UNL     1       1.979   7.055  20.188  0.00  0.00    +0.000 A 
ATOM      3  C   UNL     1       1.414   8.073  20.943  0.00  0.00    +0.000 A 
ATOM      4  C   UNL     1       1.100   9.301  20.355  0.00  0.00    +0.000 A 
ATOM      5  C   UNL     1       1.351   9.497  18.994  0.00  0.00    +0.000 A 
ATOM      6  C   UNL     1       1.913   8.470  18.225  0.00  0.00    +0.000 A 
ENDROOT
BRANCH   1   8
ATOM      7  N   UNL     1       4.200   6.267  17.794  0.00  0.00    +0.000 N 
ATOM      8  C   UNL     1       2.870   6.128  18.111  0.00  0.00    +0.000 C 
ATOM      9  O   UNL     1       2.211   5.137  17.817  0.00  0.00    +0.000 OA
ATOM     10  H   UNL     1       4.610   7.193  17.776  0.00  0.00    +0.000 HD
BRANCH   7  14
ATOM     11  C   UNL     1       6.934   4.805  15.870  0.00  0.00    +0.000 C 
ATOM     12  C   UNL     1       7.159   4.534  17.356  0.00  0.00    +0.000 C 
ATOM     13  C   UNL     1       5.749   4.341  17.893  0.00  0.00    +0.000 C 
ATOM     14  C   UNL     1       4.843   5.227  17.012  0.00  0.00    +0.000 C 
ATOM     15  C   UNL     1       5.759   5.797  15.905  0.00  0.00    +0.000 C 
BRANCH  11  17
ATOM     16  C   UNL     1       6.218   3.859  13.790  0.00  0.00    +0.000 C 
ATOM     17  O   UNL     1       6.495   3.638  15.165  0.00  0.00    +0.000 OA
ENDBRANCH  11  17
BRANCH  15  18
ATOM     18  O   UNL     1       6.200   7.124  16.231  0.00  0.00    +0.000 OA
ATOM     19  H   UNL     1       6.907   7.042  16.895  0.00  0.00    +0.000 HD
ENDBRANCH  15  18
ENDBRANCH   7  14
ENDBRANCH   1   8
BRANCH   4  20
ATOM     20  O   UNL     1       0.556  10.369  21.027  0.00  0.00    +0.000 OA
BRANCH  20  21
ATOM     21  C   UNL     1      -0.163  11.276  20.183  0.00  0.00    +0.000 C 
BRANCH  21  22
ATOM     22  C   UNL     1      -1.256  11.998  20.970  0.00  0.00    +0.000 C 
BRANCH  22  23
ATOM     23  N   UNL     1      -0.904  12.177  22.395  0.00  0.00    +0.000 NA
ATOM     24  C   UNL     1      -1.851  11.451  23.255  0.00  0.00    +0.000 C 
ATOM     25  C   UNL     1      -3.024  12.401  23.405  0.00  0.00    +0.000 C 
ATOM     26  C   UNL     1      -2.367  13.767  23.473  0.00  0.00    +0.000 C 
ATOM     27  C   UNL     1      -0.985  13.573  22.861  0.00  0.00    +0.000 C 
ENDBRANCH  22  23
ENDBRANCH  21  22
ENDBRANCH  20  21
ENDBRANCH   4  20
TORSDOF 8
ENDMDL
MODEL 9
REMARK VINA RESULT:      -6.7      6.588      9.164
REMARK  Name = 
REMARK  9 active torsions:
REMARK  status: ('A' for Active; 'I' for Inactive)
REMARK    1  A    between atoms: C_1  and  O_2
REMARK    2  A    between atoms: O_2  and  C_3
REMARK    3  A    between atoms: C_6  and  N_7
REMARK    4  A    between atoms: C_8  and  C_10
REMARK    5  A    between atoms: C_13  and  O_14
REMARK    6  A    between atoms: O_14  and  C_15
REMARK    7  A    between atoms: C_15  and  C_16
REMARK    8  A    between atoms: C_16  and  N_17
REMARK    9  A    between atoms: C_24  and  O_25
REMARK                            x       y       z     vdW  Elec       q    Type
REMARK                         _______ _______ _______ _____ _____    ______ ____
ROOT
ATOM      1  C   UNL     1       2.267   7.584  18.745  0.00  0.00    +0.000 A 
ATOM      2  C   UNL     1       2.044   8.691  17.929  0.00  0.00    +0.000 A 
ATOM      3  C   UNL     1       1.442   9.828  18.448  0.00  0.00    +0.000 A 
ATOM      4  C   UNL     1       1.042   9.870  19.787  0.00  0.00    +0.000 A 
ATOM      5  C   UNL     1       1.260   8.758  20.605  0.00  0.00    +0.000 A 
ATOM      6  C   UNL     1       1.875   7.611  20.088  0.00  0.00    +0.000 A 
ENDROOT
BRANCH   1   8
ATOM      7  N   UNL     1       4.180   6.505  17.690  0.00  0.00    +0.000 N 
ATOM      8  C   UNL     1       2.872   6.400  18.100  0.00  0.00    +0.000 C 
ATOM      9  O   UNL     1       2.200   5.386  17.946  0.00  0.00    +0.000 OA
ATOM     10  H   UNL     1       4.583   7.425  17.556  0.00  0.00    +0.000 HD
BRANCH   7  14
ATOM     11  C   UNL     1       6.912   4.731  16.046  0.00  0.00    +0.000 C 
ATOM     12  C   UNL     1       6.957   4.451  17.548  0.00  0.00    +0.000 C 
ATOM     13  C   UNL     1       5.488   4.421  17.941  0.00  0.00    +0.000 C 
ATOM     14  C   UNL     1       4.778   5.393  16.974  0.00  0.00    +0.000 C 
ATOM     15  C   UNL     1       5.857   5.847  15.965  0.00  0.00    +0.000 C 
BRANCH  11  17
ATOM     16  C   UNL     1       6.231   3.873  13.917  0.00  0.00    +0.000 C 
ATOM     17  O   UNL     1       6.419   3.612  15.300  0.00  0.00    +0.000 OA
ENDBRANCH  11  17
BRANCH  15  18
ATOM     18  O   UNL     1       6.408   7.120  16.335  0.00  0.00    +0.000 OA
ATOM     19  H   UNL     1       6.587   7.095  17.291  0.00  0.00    +0.000 HD
ENDBRANCH  15  18
ENDBRANCH   7  14
ENDBRANCH   1   8
BRANCH   4  20
ATOM     20  O   UNL     1       0.424  10.944  20.381  0.00  0.00    +0.000 OA
BRANCH  20  21
ATOM     21  C   UNL     1      -0.839  11.278  19.794  0.00  0.00    +0.000 C 
BRANCH  21  22
ATOM     22  C   UNL     1      -1.716  12.037  20.790  0.00  0.00    +0.000 C 
BRANCH  22  23
ATOM     23  N   UNL     1      -1.078  12.174  22.117  0.00  0.00    +0.000 NA
ATOM     24  C   UNL     1      -1.795  11.368  23.118  0.00  0.00    +0.000 C 
ATOM     25  C   UNL     1      -2.945  12.254  23.558  0.00  0.00    +0.000 C 
ATOM     26  C   UNL     1      -2.341  13.646  23.556  0.00  0.00    +0.000 C 
ATOM     27  C   UNL     1      -1.112  13.543  22.659  0.00  0.00    +0.000 C 
ENDBRANCH  22  23
ENDBRANCH  21  22
ENDBRANCH  20  21
ENDBRANCH   4  20
TORSDOF 8
ENDMDL
