MODEL 1
REMARK VINA RESULT:      -7.5      0.000      0.000
REMARK  Name = 
REMARK  5 active torsions:
REMARK  status: ('A' for Active; 'I' for Inactive)
REMARK    1  A    between atoms: N_1  and  C_2
REMARK    2  A    between atoms: C_3  and  C_4
REMARK    3  A    between atoms: C_4  and  C_5
REMARK    4  A    between atoms: C_11  and  C_12
REMARK    5  A    between atoms: C_12  and  C_14
REMARK                            x       y       z     vdW  Elec       q    Type
REMARK                         _______ _______ _______ _____ _____    ______ ____
ROOT
ATOM      1  C   UNL     1       3.865   3.430  19.165  0.00  0.00    +0.000 A 
ATOM      2  C   UNL     1       2.474   3.416  19.422  0.00  0.00    +0.000 A 
ATOM      3  C   UNL     1       1.675   4.472  18.952  0.00  0.00    +0.000 A 
ATOM      4  C   UNL     1       2.219   5.517  18.214  0.00  0.00    +0.000 A 
ATOM      5  C   UNL     1       3.575   5.511  17.904  0.00  0.00    +0.000 A 
ATOM      6  C   UNL     1       4.405   4.475  18.366  0.00  0.00    +0.000 A 
ENDROOT
BRANCH   1   7
ATOM      7  N   UNL     1       4.635   2.279  19.477  0.00  0.00    +0.000 N 
ATOM      8  H   UNL     1       5.577   2.506  19.797  0.00  0.00    +0.000 HD
ATOM      9  H   UNL     1       4.672   1.627  18.686  0.00  0.00    +0.000 HD
ENDBRANCH   1   7
BRANCH   6  10
ATOM     10  C   UNL     1       5.849   4.468  17.939  0.00  0.00    +0.000 C 
ATOM     11  O   UNL     1       6.715   4.346  18.803  0.00  0.00    +0.000 OA
BRANCH  10  12
ATOM     12  C   UNL     1       6.228   4.621  16.501  0.00  0.00    +0.000 A 
ATOM     13  C   UNL     1       5.808   3.642  15.582  0.00  0.00    +0.000 A 
ATOM     14  C   UNL     1       6.208   3.699  14.242  0.00  0.00    +0.000 A 
ATOM     15  C   UNL     1       6.994   4.758  13.800  0.00  0.00    +0.000 A 
ATOM     16 CL   UNL     1       7.512   4.807  12.161  0.00  0.00    +0.000 Cl
ATOM     17  C   UNL     1       7.371   5.768  14.680  0.00  0.00    +0.000 A 
ATOM     18  C   UNL     1       6.994   5.704  16.032  0.00  0.00    +0.000 A 
ATOM     19 CL   UNL     1       7.571   6.974  17.049  0.00  0.00    +0.000 Cl
ENDBRANCH  10  12
ENDBRANCH   6  10
BRANCH   2  20
ATOM     20  C   UNL     1       1.762   2.285  20.144  0.00  0.00    +0.000 C 
BRANCH  20  21
ATOM     21  C   UNL     1       1.959   2.398  21.656  0.00  0.00    +0.000 C 
ATOM     22  O   UNL     1       3.154   2.231  22.060  0.00  0.00    +0.000 OA
ATOM     23  O   UNL     1       0.926   2.601  22.339  0.00  0.00    +0.000 OA
ENDBRANCH  20  21
ENDBRANCH   2  20
TORSDOF 5
ENDMDL
MODEL 2
REMARK VINA RESULT:      -7.4      3.539      6.333
REMARK  Name = 
REMARK  5 active torsions:
REMARK  status: ('A' for Active; 'I' for Inactive)
REMARK    1  A    between atoms: N_1  and  C_2
REMARK    2  A    between atoms: C_3  and  C_4
REMARK    3  A    between atoms: C_4  and  C_5
REMARK    4  A    between atoms: C_11  and  C_12
REMARK    5  A    between atoms: C_12  and  C_14
REMARK                            x       y       z     vdW  Elec       q    Type
REMARK                         _______ _______ _______ _____ _____    ______ ____
ROOT
ATOM      1  C   UNL     1       5.549   4.272  17.840  0.00  0.00    +0.000 A 
ATOM      2  C   UNL     1       6.840   4.498  17.309  0.00  0.00    +0.000 A 
ATOM      3  C   UNL     1       6.990   4.705  15.927  0.00  0.00    +0.000 A 
ATOM      4  C   UNL     1       5.892   4.723  15.075  0.00  0.00    +0.000 A 
ATOM      5  C   UNL     1       4.612   4.561  15.595  0.00  0.00    +0.000 A 
ATOM      6  C   UNL     1       4.426   4.342  16.970  0.00  0.00    +0.000 A 
ENDROOT
BRANCH   1   7
ATOM      7  N   UNL     1       5.378   4.249  19.250  0.00  0.00    +0.000 N 
ATOM      8  H   UNL     1       4.653   3.598  19.551  0.00  0.00    +0.000 HD
ATOM      9  H   UNL     1       5.195   5.187  19.621  0.00  0.00    +0.000 HD
ENDBRANCH   1   7
BRANCH   6  10
ATOM     10  C   UNL     1       3.019   4.254  17.499  0.00  0.00    +0.000 C 
ATOM     11  O   UNL     1       2.291   3.357  17.078  0.00  0.00    +0.000 OA
BRANCH  10  12
ATOM     12  C   UNL     1       2.508   5.240  18.500  0.00  0.00    +0.000 A 
ATOM     13  C   UNL     1       2.603   6.613  18.207  0.00  0.00    +0.000 A 
ATOM     14  C   UNL     1       2.215   7.574  19.147  0.00  0.00    +0.000 A 
ATOM     15  C   UNL     1       1.688   7.172  20.370  0.00  0.00    +0.000 A 
ATOM     16 CL   UNL     1       1.244   8.355  21.536  0.00  0.00    +0.000 Cl
ATOM     17  C   UNL     1       1.531   5.819  20.656  0.00  0.00    +0.000 A 
ATOM     18  C   UNL     1       1.942   4.849  19.727  0.00  0.00    +0.000 A 
ATOM     19 CL   UNL     1       1.763   3.201  20.211  0.00  0.00    +0.000 Cl
ENDBRANCH  10  12
ENDBRANCH   6  10
BRANCH   2  20
ATOM     20  C   UNL     1       8.097   4.584  18.156  0.00  0.00    +0.000 C 
BRANCH  20  21
ATOM     21  C   UNL     1       8.005   5.742  19.149  0.00  0.00    +0.000 C 
ATOM     22  O   UNL     1       8.150   6.902  18.644  0.00  0.00    +0.000 OA
ATOM     23  O   UNL     1       7.835   5.432  20.354  0.00  0.00    +0.000 OA
ENDBRANCH  20  21
ENDBRANCH   2  20
TORSDOF 5
ENDMDL
MODEL 3
REMARK VINA RESULT:      -7.4      1.963      2.850
REMARK  Name = 
REMARK  5 active torsions:
REMARK  status: ('A' for Active; 'I' for Inactive)
REMARK    1  A    between atoms: N_1  and  C_2
REMARK    2  A    between atoms: C_3  and  C_4
REMARK    3  A    between atoms: C_4  and  C_5
REMARK    4  A    between atoms: C_11  and  C_12
REMARK    5  A    between atoms: C_12  and  C_14
REMARK                            x       y       z     vdW  Elec       q    Type
REMARK                         _______ _______ _______ _____ _____    ______ ____
ROOT
ATOM      1  C   UNL     1       3.780   3.134  18.952  0.00  0.00    +0.000 A 
ATOM      2  C   UNL     1       2.479   2.917  19.463  0.00  0.00    +0.000 A 
ATOM      3  C   UNL     1       1.389   3.585  18.879  0.00  0.00    +0.000 A 
ATOM      4  C   UNL     1       1.559   4.431  17.789  0.00  0.00    +0.000 A 
ATOM      5  C   UNL     1       2.825   4.604  17.241  0.00  0.00    +0.000 A 
ATOM      6  C   UNL     1       3.939   3.960  17.806  0.00  0.00    +0.000 A 
ENDROOT
BRANCH   1   7
ATOM      7  N   UNL     1       4.847   2.322  19.419  0.00  0.00    +0.000 N 
ATOM      8  H   UNL     1       4.586   1.341  19.517  0.00  0.00    +0.000 HD
ATOM      9  H   UNL     1       5.235   2.681  20.298  0.00  0.00    +0.000 HD
ENDBRANCH   1   7
BRANCH   6  10
ATOM     10  C   UNL     1       5.276   4.113  17.130  0.00  0.00    +0.000 C 
ATOM     11  O   UNL     1       5.622   3.259  16.317  0.00  0.00    +0.000 OA
BRANCH  10  12
ATOM     12  C   UNL     1       6.173   5.266  17.449  0.00  0.00    +0.000 A 
ATOM     13  C   UNL     1       7.101   5.133  18.498  0.00  0.00    +0.000 A 
ATOM     14  C   UNL     1       7.903   6.211  18.886  0.00  0.00    +0.000 A 
ATOM     15  C   UNL     1       7.816   7.418  18.201  0.00  0.00    +0.000 A 
ATOM     16 CL   UNL     1       8.779   8.753  18.703  0.00  0.00    +0.000 Cl
ATOM     17  C   UNL     1       6.947   7.554  17.122  0.00  0.00    +0.000 A 
ATOM     18  C   UNL     1       6.121   6.482  16.744  0.00  0.00    +0.000 A 
ATOM     19 CL   UNL     1       5.034   6.780  15.435  0.00  0.00    +0.000 Cl
ENDBRANCH  10  12
ENDBRANCH   6  10
BRANCH   2  20
ATOM     20  C   UNL     1       2.167   1.952  20.593  0.00  0.00    +0.000 C 
BRANCH  20  21
ATOM     21  C   UNL     1       1.837   2.710  21.879  0.00  0.00    +0.000 C 
ATOM     22  O   UNL     1       2.595   3.700  22.134  0.00  0.00    +0.000 OA
ATOM     23  O   UNL     1       0.886   2.259  22.564  0.00  0.00    +0.000 OA
ENDBRANCH  20  21
ENDBRANCH   2  20
TORSDOF 5
ENDMDL
MODEL 4
REMARK VINA RESULT:      -7.1      1.468      1.572
REMARK  Name = 
REMARK  5 active torsions:
REMARK  status: ('A' for Active; 'I' for Inactive)
REMARK    1  A    between atoms: N_1  and  C_2
REMARK    2  A    between atoms: C_3  and  C_4
REMARK    3  A    between atoms: C_4  and  C_5
REMARK    4  A    between atoms: C_11  and  C_12
REMARK    5  A    between atoms: C_12  and  C_14
REMARK                            x       y       z     vdW  Elec       q    Type
REMARK                         _______ _______ _______ _____ _____    ______ ____
ROOT
ATOM      1  C   UNL     1       3.938   3.965  19.824  0.00  0.00    +0.000 A 
ATOM      2  C   UNL     1       2.564   3.989  20.157  0.00  0.00    +0.000 A 
ATOM      3  C   UNL     1       1.858   5.203  20.090  0.00  0.00    +0.000 A 
ATOM      4  C   UNL     1       2.477   6.376  19.672  0.00  0.00    +0.000 A 
ATOM      5  C   UNL     1       3.812   6.351  19.285  0.00  0.00    +0.000 A 
ATOM      6  C   UNL     1       4.550   5.157  19.349  0.00  0.00    +0.000 A 
ENDROOT
BRANCH   1   7
ATOM      7  N   UNL     1       4.598   2.713  19.714  0.00  0.00    +0.000 N 
ATOM      8  H   UNL     1       3.950   1.927  19.649  0.00  0.00    +0.000 HD
ATOM      9  H   UNL     1       5.261   2.569  20.483  0.00  0.00    +0.000 HD
ENDBRANCH   1   7
BRANCH   6  10
ATOM     10  C   UNL     1       5.968   5.161  18.843  0.00  0.00    +0.000 C 
ATOM     11  O   UNL     1       6.882   5.228  19.663  0.00  0.00    +0.000 OA
BRANCH  10  12
ATOM     12  C   UNL     1       6.265   5.101  17.379  0.00  0.00    +0.000 A 
ATOM     13  C   UNL     1       5.766   4.019  16.630  0.00  0.00    +0.000 A 
ATOM     14  C   UNL     1       6.086   3.877  15.276  0.00  0.00    +0.000 A 
ATOM     15  C   UNL     1       6.871   4.837  14.647  0.00  0.00    +0.000 A 
ATOM     16 CL   UNL     1       7.292   4.642  12.991  0.00  0.00    +0.000 Cl
ATOM     17  C   UNL     1       7.327   5.946  15.355  0.00  0.00    +0.000 A 
ATOM     18  C   UNL     1       7.029   6.082  16.722  0.00  0.00    +0.000 A 
ATOM     19 CL   UNL     1       7.699   7.461  17.517  0.00  0.00    +0.000 Cl
ENDBRANCH  10  12
ENDBRANCH   6  10
BRANCH   2  20
ATOM     20  C   UNL     1       1.768   2.755  20.544  0.00  0.00    +0.000 C 
BRANCH  20  21
ATOM     21  C   UNL     1       1.281   2.011  19.301  0.00  0.00    +0.000 C 
ATOM     22  O   UNL     1       2.160   1.300  18.716  0.00  0.00    +0.000 OA
ATOM     23  O   UNL     1       0.087   2.206  18.966  0.00  0.00    +0.000 OA
ENDBRANCH  20  21
ENDBRANCH   2  20
TORSDOF 5
ENDMDL
MODEL 5
REMARK VINA RESULT:      -7.0      4.106      4.959
REMARK  Name = 
REMARK  5 active torsions:
REMARK  status: ('A' for Active; 'I' for Inactive)
REMARK    1  A    between atoms: N_1  and  C_2
REMARK    2  A    between atoms: C_3  and  C_4
REMARK    3  A    between atoms: C_4  and  C_5
REMARK    4  A    between atoms: C_11  and  C_12
REMARK    5  A    between atoms: C_12  and  C_14
REMARK                            x       y       z     vdW  Elec       q    Type
REMARK                         _______ _______ _______ _____ _____    ______ ____
ROOT
ATOM      1  C   UNL     1       1.878   7.692  20.059  0.00  0.00    +0.000 A 
ATOM      2  C   UNL     1       1.045   8.825  19.905  0.00  0.00    +0.000 A 
ATOM      3  C   UNL     1       1.097   9.562  18.709  0.00  0.00    +0.000 A 
ATOM      4  C   UNL     1       1.930   9.184  17.663  0.00  0.00    +0.000 A 
ATOM      5  C   UNL     1       2.709   8.038  17.780  0.00  0.00    +0.000 A 
ATOM      6  C   UNL     1       2.689   7.283  18.965  0.00  0.00    +0.000 A 
ENDROOT
BRANCH   1   7
ATOM      7  N   UNL     1       1.691   6.847  21.184  0.00  0.00    +0.000 N 
ATOM      8  H   UNL     1       1.429   7.360  22.027  0.00  0.00    +0.000 HD
ATOM      9  H   UNL     1       2.518   6.266  21.359  0.00  0.00    +0.000 HD
ENDBRANCH   1   7
BRANCH   6  10
ATOM     10  C   UNL     1       3.487   6.007  19.017  0.00  0.00    +0.000 C 
ATOM     11  O   UNL     1       3.397   5.300  20.019  0.00  0.00    +0.000 OA
BRANCH  10  12
ATOM     12  C   UNL     1       4.382   5.611  17.887  0.00  0.00    +0.000 A 
ATOM     13  C   UNL     1       5.563   6.344  17.669  0.00  0.00    +0.000 A 
ATOM     14  C   UNL     1       6.389   6.064  16.575  0.00  0.00    +0.000 A 
ATOM     15  C   UNL     1       6.066   5.021  15.715  0.00  0.00    +0.000 A 
ATOM     16 CL   UNL     1       7.064   4.700  14.352  0.00  0.00    +0.000 Cl
ATOM     17  C   UNL     1       4.933   4.245  15.946  0.00  0.00    +0.000 A 
ATOM     18  C   UNL     1       4.086   4.537  17.028  0.00  0.00    +0.000 A 
ATOM     19 CL   UNL     1       2.675   3.554  17.182  0.00  0.00    +0.000 Cl
ENDBRANCH  10  12
ENDBRANCH   6  10
BRANCH   2  20
ATOM     20  C   UNL     1       0.038   9.279  20.947  0.00  0.00    +0.000 C 
BRANCH  20  21
ATOM     21  C   UNL     1       0.711  10.150  22.009  0.00  0.00    +0.000 C 
ATOM     22  O   UNL     1       0.646  11.404  21.801  0.00  0.00    +0.000 OA
ATOM     23  O   UNL     1       1.285   9.543  22.945  0.00  0.00    +0.000 OA
ENDBRANCH  20  21
ENDBRANCH   2  20
TORSDOF 5
ENDMDL
MODEL 6
REMARK VINA RESULT:      -6.8      1.179      1.368
REMARK  Name = 
REMARK  5 active torsions:
REMARK  status: ('A' for Active; 'I' for Inactive)
REMARK    1  A    between atoms: N_1  and  C_2
REMARK    2  A    between atoms: C_3  and  C_4
REMARK    3  A    between atoms: C_4  and  C_5
REMARK    4  A    between atoms: C_11  and  C_12
REMARK    5  A    between atoms: C_12  and  C_14
REMARK                            x       y       z     vdW  Elec       q    Type
REMARK                         _______ _______ _______ _____ _____    ______ ____
ROOT
ATOM      1  C   UNL     1       3.551   4.677  19.530  0.00  0.00    +0.000 A 
ATOM      2  C   UNL     1       2.294   5.249  19.834  0.00  0.00    +0.000 A 
ATOM      3  C   UNL     1       1.934   6.475  19.246  0.00  0.00    +0.000 A 
ATOM      4  C   UNL     1       2.776   7.121  18.349  0.00  0.00    +0.000 A 
ATOM      5  C   UNL     1       3.988   6.537  17.997  0.00  0.00    +0.000 A 
ATOM      6  C   UNL     1       4.384   5.318  18.573  0.00  0.00    +0.000 A 
ENDROOT
BRANCH   1   7
ATOM      7  N   UNL     1       3.833   3.359  19.975  0.00  0.00    +0.000 N 
ATOM      8  H   UNL     1       3.737   2.661  19.237  0.00  0.00    +0.000 HD
ATOM      9  H   UNL     1       3.259   3.105  20.787  0.00  0.00    +0.000 HD
ENDBRANCH   1   7
BRANCH   6  10
ATOM     10  C   UNL     1       5.667   4.685  18.102  0.00  0.00    +0.000 C 
ATOM     11  O   UNL     1       6.403   4.164  18.937  0.00  0.00    +0.000 OA
BRANCH  10  12
ATOM     12  C   UNL     1       6.049   4.700  16.656  0.00  0.00    +0.000 A 
ATOM     13  C   UNL     1       5.520   3.712  15.806  0.00  0.00    +0.000 A 
ATOM     14  C   UNL     1       5.913   3.635  14.465  0.00  0.00    +0.000 A 
ATOM     15  C   UNL     1       6.803   4.571  13.952  0.00  0.00    +0.000 A 
ATOM     16 CL   UNL     1       7.311   4.454  12.313  0.00  0.00    +0.000 Cl
ATOM     17  C   UNL     1       7.293   5.593  14.761  0.00  0.00    +0.000 A 
ATOM     18  C   UNL     1       6.922   5.660  16.115  0.00  0.00    +0.000 A 
ATOM     19 CL   UNL     1       7.639   6.928  17.043  0.00  0.00    +0.000 Cl
ENDBRANCH  10  12
ENDBRANCH   6  10
BRANCH   2  20
ATOM     20  C   UNL     1       1.262   4.591  20.733  0.00  0.00    +0.000 C 
BRANCH  20  21
ATOM     21  C   UNL     1       1.112   3.108  20.391  0.00  0.00    +0.000 C 
ATOM     22  O   UNL     1       1.457   2.302  21.314  0.00  0.00    +0.000 OA
ATOM     23  O   UNL     1       0.706   2.841  19.234  0.00  0.00    +0.000 OA
ENDBRANCH  20  21
ENDBRANCH   2  20
TORSDOF 5
ENDMDL
MODEL 7
REMARK VINA RESULT:      -6.8      1.834      2.259
REMARK  Name = 
REMARK  5 active torsions:
REMARK  status: ('A' for Active; 'I' for Inactive)
REMARK    1  A    between atoms: N_1  and  C_2
REMARK    2  A    between atoms: C_3  and  C_4
REMARK    3  A    between atoms: C_4  and  C_5
REMARK    4  A    between atoms: C_11  and  C_12
REMARK    5  A    between atoms: C_12  and  C_14
REMARK                            x       y       z     vdW  Elec       q    Type
REMARK                         _______ _______ _______ _____ _____    ______ ____
ROOT
ATOM      1  C   UNL     1       3.704   5.058  19.513  0.00  0.00    +0.000 A 
ATOM      2  C   UNL     1       2.450   5.644  19.805  0.00  0.00    +0.000 A 
ATOM      3  C   UNL     1       2.077   6.836  19.160  0.00  0.00    +0.000 A 
ATOM      4  C   UNL     1       2.904   7.435  18.217  0.00  0.00    +0.000 A 
ATOM      5  C   UNL     1       4.112   6.837  17.878  0.00  0.00    +0.000 A 
ATOM      6  C   UNL     1       4.520   5.650  18.511  0.00  0.00    +0.000 A 
ENDROOT
BRANCH   1   7
ATOM      7  N   UNL     1       3.996   3.766  20.023  0.00  0.00    +0.000 N 
ATOM      8  H   UNL     1       3.396   3.502  20.804  0.00  0.00    +0.000 HD
ATOM      9  H   UNL     1       4.984   3.681  20.285  0.00  0.00    +0.000 HD
ENDBRANCH   1   7
BRANCH   6  10
ATOM     10  C   UNL     1       5.797   4.995  18.054  0.00  0.00    +0.000 C 
ATOM     11  O   UNL     1       6.670   4.769  18.890  0.00  0.00    +0.000 OA
BRANCH  10  12
ATOM     12  C   UNL     1       6.011   4.641  16.617  0.00  0.00    +0.000 A 
ATOM     13  C   UNL     1       7.182   5.087  15.977  0.00  0.00    +0.000 A 
ATOM     14  C   UNL     1       7.386   4.852  14.613  0.00  0.00    +0.000 A 
ATOM     15  C   UNL     1       6.445   4.131  13.888  0.00  0.00    +0.000 A 
ATOM     16 CL   UNL     1       6.682   3.873  12.204  0.00  0.00    +0.000 Cl
ATOM     17  C   UNL     1       5.307   3.630  14.515  0.00  0.00    +0.000 A 
ATOM     18  C   UNL     1       5.084   3.885  15.879  0.00  0.00    +0.000 A 
ATOM     19 CL   UNL     1       3.610   3.273  16.540  0.00  0.00    +0.000 Cl
ENDBRANCH  10  12
ENDBRANCH   6  10
BRANCH   2  20
ATOM     20  C   UNL     1       1.434   5.031  20.754  0.00  0.00    +0.000 C 
BRANCH  20  21
ATOM     21  C   UNL     1       1.111   3.593  20.348  0.00  0.00    +0.000 C 
ATOM     22  O   UNL     1       1.163   2.739  21.291  0.00  0.00    +0.000 OA
ATOM     23  O   UNL     1       0.868   3.398  19.132  0.00  0.00    +0.000 OA
ENDBRANCH  20  21
ENDBRANCH   2  20
TORSDOF 5
ENDMDL
MODEL 8
REMARK VINA RESULT:      -6.7      4.033      5.610
REMARK  Name = 
REMARK  5 active torsions:
REMARK  status: ('A' for Active; 'I' for Inactive)
REMARK    1  A    between atoms: N_1  and  C_2
REMARK    2  A    between atoms: C_3  and  C_4
REMARK    3  A    between atoms: C_4  and  C_5
REMARK    4  A    between atoms: C_11  and  C_12
REMARK    5  A    between atoms: C_12  and  C_14
REMARK                            x       y       z     vdW  Elec       q    Type
REMARK                         _______ _______ _______ _____ _____    ______ ____
ROOT
ATOM      1  C   UNL     1       3.828   4.320  18.868  0.00  0.00    +0.000 A 
ATOM      2  C   UNL     1       3.485   2.949  18.918  0.00  0.00    +0.000 A 
ATOM      3  C   UNL     1       2.228   2.535  18.443  0.00  0.00    +0.000 A 
ATOM      4  C   UNL     1       1.327   3.442  17.897  0.00  0.00    +0.000 A 
ATOM      5  C   UNL     1       1.678   4.783  17.789  0.00  0.00    +0.000 A 
ATOM      6  C   UNL     1       2.922   5.233  18.263  0.00  0.00    +0.000 A 
ENDROOT
BRANCH   1   7
ATOM      7  N   UNL     1       5.159   4.709  19.174  0.00  0.00    +0.000 N 
ATOM      8  H   UNL     1       5.828   4.436  18.453  0.00  0.00    +0.000 HD
ATOM      9  H   UNL     1       5.453   4.353  20.090  0.00  0.00    +0.000 HD
ENDBRANCH   1   7
BRANCH   6  10
ATOM     10  C   UNL     1       3.291   6.678  18.051  0.00  0.00    +0.000 C 
ATOM     11  O   UNL     1       4.338   6.934  17.460  0.00  0.00    +0.000 OA
BRANCH  10  12
ATOM     12  C   UNL     1       2.417   7.779  18.558  0.00  0.00    +0.000 A 
ATOM     13  C   UNL     1       2.181   8.892  17.730  0.00  0.00    +0.000 A 
ATOM     14  C   UNL     1       1.438   9.984  18.193  0.00  0.00    +0.000 A 
ATOM     15  C   UNL     1       0.889   9.955  19.470  0.00  0.00    +0.000 A 
ATOM     16 CL   UNL     1       0.006  11.312  20.049  0.00  0.00    +0.000 Cl
ATOM     17  C   UNL     1       1.061   8.838  20.284  0.00  0.00    +0.000 A 
ATOM     18  C   UNL     1       1.827   7.749  19.834  0.00  0.00    +0.000 A 
ATOM     19 CL   UNL     1       2.031   6.446  20.949  0.00  0.00    +0.000 Cl
ENDBRANCH  10  12
ENDBRANCH   6  10
BRANCH   2  20
ATOM     20  C   UNL     1       4.423   1.862  19.414  0.00  0.00    +0.000 C 
BRANCH  20  21
ATOM     21  C   UNL     1       4.469   1.842  20.942  0.00  0.00    +0.000 C 
ATOM     22  O   UNL     1       5.530   1.349  21.445  0.00  0.00    +0.000 OA
ATOM     23  O   UNL     1       3.452   2.273  21.537  0.00  0.00    +0.000 OA
ENDBRANCH  20  21
ENDBRANCH   2  20
TORSDOF 5
ENDMDL
MODEL 9
REMARK VINA RESULT:      -6.6      4.397      5.777
REMARK  Name = 
REMARK  5 active torsions:
REMARK  status: ('A' for Active; 'I' for Inactive)
REMARK    1  A    between atoms: N_1  and  C_2
REMARK    2  A    between atoms: C_3  and  C_4
REMARK    3  A    between atoms: C_4  and  C_5
REMARK    4  A    between atoms: C_11  and  C_12
REMARK    5  A    between atoms: C_12  and  C_14
REMARK                            x       y       z     vdW  Elec       q    Type
REMARK                         _______ _______ _______ _____ _____    ______ ____
ROOT
ATOM      1  C   UNL     1       1.698   8.025  19.963  0.00  0.00    +0.000 A 
ATOM      2  C   UNL     1       0.635   8.863  20.372  0.00  0.00    +0.000 A 
ATOM      3  C   UNL     1       0.145   9.837  19.485  0.00  0.00    +0.000 A 
ATOM      4  C   UNL     1       0.664   9.974  18.203  0.00  0.00    +0.000 A 
ATOM      5  C   UNL     1       1.669   9.116  17.770  0.00  0.00    +0.000 A 
ATOM      6  C   UNL     1       2.189   8.137  18.634  0.00  0.00    +0.000 A 
ENDROOT
BRANCH   1   7
ATOM      7  N   UNL     1       2.064   6.927  20.785  0.00  0.00    +0.000 N 
ATOM      8  H   UNL     1       1.534   6.080  20.576  0.00  0.00    +0.000 HD
ATOM      9  H   UNL     1       1.989   7.161  21.781  0.00  0.00    +0.000 HD
ENDBRANCH   1   7
BRANCH   6  10
ATOM     10  C   UNL     1       3.218   7.178  18.095  0.00  0.00    +0.000 C 
ATOM     11  O   UNL     1       4.205   7.639  17.525  0.00  0.00    +0.000 OA
BRANCH  10  12
ATOM     12  C   UNL     1       3.042   5.700  18.234  0.00  0.00    +0.000 A 
ATOM     13  C   UNL     1       1.825   5.122  17.826  0.00  0.00    +0.000 A 
ATOM     14  C   UNL     1       1.583   3.757  18.012  0.00  0.00    +0.000 A 
ATOM     15  C   UNL     1       2.570   2.949  18.567  0.00  0.00    +0.000 A 
ATOM     16 CL   UNL     1       2.256   1.279  18.827  0.00  0.00    +0.000 Cl
ATOM     17  C   UNL     1       3.802   3.490  18.923  0.00  0.00    +0.000 A 
ATOM     18  C   UNL     1       4.043   4.865  18.762  0.00  0.00    +0.000 A 
ATOM     19 CL   UNL     1       5.580   5.441  19.297  0.00  0.00    +0.000 Cl
ENDBRANCH  10  12
ENDBRANCH   6  10
BRANCH   2  20
ATOM     20  C   UNL     1      -0.063   8.746  21.716  0.00  0.00    +0.000 C 
BRANCH  20  21
ATOM     21  C   UNL     1       0.607   9.646  22.755  0.00  0.00    +0.000 C 
ATOM     22  O   UNL     1       1.864   9.490  22.876  0.00  0.00    +0.000 OA
ATOM     23  O   UNL     1      -0.151  10.409  23.402  0.00  0.00    +0.000 OA
ENDBRANCH  20  21
ENDBRANCH   2  20
TORSDOF 5
ENDMDL
