MODEL 1
REMARK VINA RESULT:      -7.7      0.000      0.000
REMARK  Name = 
REMARK  10 active torsions:
REMARK  status: ('A' for Active; 'I' for Inactive)
REMARK    1  A    between atoms: C_1  and  N_2
REMARK    2  A    between atoms: N_2  and  C_3
REMARK    3  A    between atoms: N_2  and  C_4
REMARK    4  A    between atoms: C_4  and  C_5
REMARK    5  A    between atoms: C_5  and  O_6
REMARK    6  A    between atoms: O_6  and  C_7
REMARK    7  A    between atoms: C_17  and  C_18
REMARK    8  A    between atoms: C_21  and  O_22
REMARK    9  A    between atoms: O_22  and  C_23
REMARK   10  A    between atoms: C_31  and  C_32
REMARK                            x       y       z     vdW  Elec       q    Type
REMARK                         _______ _______ _______ _____ _____    ______ ____
ROOT
ATOM      1  C   UNL     1       3.160   4.902  18.807  0.00  0.00    +0.000 A 
ATOM      2  C   UNL     1       2.716   4.831  20.117  0.00  0.00    +0.000 A 
ATOM      3  C   UNL     1       2.089   5.922  20.694  0.00  0.00    +0.000 A 
ATOM      4  C   UNL     1       1.901   7.133  20.006  0.00  0.00    +0.000 A 
ATOM      5  C   UNL     1       2.396   7.251  18.703  0.00  0.00    +0.000 A 
ATOM      6  C   UNL     1       3.026   6.117  18.117  0.00  0.00    +0.000 A 
ATOM      7  C   UNL     1       2.391   8.558  17.932  0.00  0.00    +0.000 C 
ATOM      8  C   UNL     1       1.120   9.413  17.991  0.00  0.00    +0.000 C 
ATOM      9  N   UNL     1       0.821  10.000  19.281  0.00  0.00    +0.000 N 
ATOM     10  N   UNL     1       0.322  11.260  19.352  0.00  0.00    +0.000 NA
ATOM     11  C   UNL     1       0.029  11.447  20.658  0.00  0.00    +0.000 A 
ATOM     12  C   UNL     1       0.302  10.264  21.403  0.00  0.00    +0.000 A 
ATOM     13  C   UNL     1       0.840   9.374  20.487  0.00  0.00    +0.000 A 
ATOM     14  N   UNL     1       1.231   8.110  20.743  0.00  0.00    +0.000 N 
ATOM     15  H   UNL     1       1.002   7.771  21.683  0.00  0.00    +0.000 HD
ENDROOT
BRANCH  11  16
ATOM     16  C   UNL     1      -0.409  12.757  21.168  0.00  0.00    +0.000 A 
ATOM     17  C   UNL     1       0.516  13.712  21.608  0.00  0.00    +0.000 A 
ATOM     18  C   UNL     1       0.084  14.893  22.234  0.00  0.00    +0.000 A 
ATOM     19  C   UNL     1      -1.277  15.144  22.421  0.00  0.00    +0.000 A 
ATOM     20  C   UNL     1      -2.207  14.210  21.961  0.00  0.00    +0.000 A 
ATOM     21  C   UNL     1      -1.776  13.041  21.320  0.00  0.00    +0.000 A 
BRANCH  19  22
ATOM     22  O   UNL     1      -1.594  16.284  23.135  0.00  0.00    +0.000 OA
BRANCH  22  23
ATOM     23  C   UNL     1      -1.107  16.445  24.414  0.00  0.00    +0.000 A 
ATOM     24  C   UNL     1      -0.354  17.593  24.676  0.00  0.00    +0.000 A 
ATOM     25  C   UNL     1       0.190  17.798  25.947  0.00  0.00    +0.000 A 
ATOM     26  C   UNL     1      -0.021  16.857  26.956  0.00  0.00    +0.000 A 
ATOM     27  C   UNL     1      -0.820  15.742  26.710  0.00  0.00    +0.000 A 
ATOM     28  C   UNL     1      -1.388  15.554  25.450  0.00  0.00    +0.000 A 
ENDBRANCH  22  23
ENDBRANCH  19  22
ENDBRANCH  11  16
BRANCH  12  29
ATOM     29  C   UNL     1       0.091   9.956  22.803  0.00  0.00    +0.000 C 
ATOM     30  N   UNL     1      -1.212  10.096  23.215  0.00  0.00    +0.000 N 
ATOM     31  O   UNL     1       0.964   9.632  23.596  0.00  0.00    +0.000 OA
ATOM     32  H   UNL     1      -1.956  10.088  22.526  0.00  0.00    +0.000 HD
ATOM     33  H   UNL     1      -1.433   9.878  24.172  0.00  0.00    +0.000 HD
ENDBRANCH  12  29
BRANCH   1  34
ATOM     34  O   UNL     1       3.757   3.850  18.153  0.00  0.00    +0.000 OA
BRANCH  34  35
ATOM     35  C   UNL     1       4.190   4.169  16.817  0.00  0.00    +0.000 C 
BRANCH  35  36
ATOM     36  C   UNL     1       5.720   4.104  16.697  0.00  0.00    +0.000 C 
BRANCH  36  38
ATOM     37  C   UNL     1       7.031   4.743  14.776  0.00  0.00    +0.000 C 
ATOM     38  N   UNL     1       6.311   5.241  15.953  0.00  0.00    +0.000 NA
ATOM     39  C   UNL     1       5.317   6.230  15.527  0.00  0.00    +0.000 C 
ENDBRANCH  36  38
ENDBRANCH  35  36
ENDBRANCH  34  35
ENDBRANCH   1  34
TORSDOF 8
ENDMDL
MODEL 2
REMARK VINA RESULT:      -7.7      1.547      2.216
REMARK  Name = 
REMARK  10 active torsions:
REMARK  status: ('A' for Active; 'I' for Inactive)
REMARK    1  A    between atoms: C_1  and  N_2
REMARK    2  A    between atoms: N_2  and  C_3
REMARK    3  A    between atoms: N_2  and  C_4
REMARK    4  A    between atoms: C_4  and  C_5
REMARK    5  A    between atoms: C_5  and  O_6
REMARK    6  A    between atoms: O_6  and  C_7
REMARK    7  A    between atoms: C_17  and  C_18
REMARK    8  A    between atoms: C_21  and  O_22
REMARK    9  A    between atoms: O_22  and  C_23
REMARK   10  A    between atoms: C_31  and  C_32
REMARK                            x       y       z     vdW  Elec       q    Type
REMARK                         _______ _______ _______ _____ _____    ______ ____
ROOT
ATOM      1  C   UNL     1       3.870   5.623  18.139  0.00  0.00    +0.000 A 
ATOM      2  C   UNL     1       3.620   5.386  19.481  0.00  0.00    +0.000 A 
ATOM      3  C   UNL     1       2.837   6.268  20.203  0.00  0.00    +0.000 A 
ATOM      4  C   UNL     1       2.291   7.432  19.633  0.00  0.00    +0.000 A 
ATOM      5  C   UNL     1       2.581   7.726  18.297  0.00  0.00    +0.000 A 
ATOM      6  C   UNL     1       3.376   6.802  17.561  0.00  0.00    +0.000 A 
ATOM      7  C   UNL     1       2.180   9.030  17.632  0.00  0.00    +0.000 C 
ATOM      8  C   UNL     1       0.765   9.556  17.893  0.00  0.00    +0.000 C 
ATOM      9  N   UNL     1       0.502   9.994  19.248  0.00  0.00    +0.000 N 
ATOM     10  N   UNL     1      -0.260  11.095  19.469  0.00  0.00    +0.000 NA
ATOM     11  C   UNL     1      -0.423  11.145  20.809  0.00  0.00    +0.000 A 
ATOM     12  C   UNL     1       0.204  10.026  21.428  0.00  0.00    +0.000 A 
ATOM     13  C   UNL     1       0.814   9.333  20.394  0.00  0.00    +0.000 A 
ATOM     14  N   UNL     1       1.513   8.187  20.510  0.00  0.00    +0.000 N 
ATOM     15  H   UNL     1       1.486   7.759  21.442  0.00  0.00    +0.000 HD
ENDROOT
BRANCH  11  16
ATOM     16  C   UNL     1      -1.083  12.288  21.461  0.00  0.00    +0.000 A 
ATOM     17  C   UNL     1      -0.364  13.182  22.264  0.00  0.00    +0.000 A 
ATOM     18  C   UNL     1      -1.027  14.175  23.003  0.00  0.00    +0.000 A 
ATOM     19  C   UNL     1      -2.417  14.298  22.945  0.00  0.00    +0.000 A 
ATOM     20  C   UNL     1      -3.140  13.428  22.126  0.00  0.00    +0.000 A 
ATOM     21  C   UNL     1      -2.476  12.450  21.375  0.00  0.00    +0.000 A 
BRANCH  19  22
ATOM     22  O   UNL     1      -2.981  15.240  23.785  0.00  0.00    +0.000 OA
BRANCH  22  23
ATOM     23  C   UNL     1      -2.166  16.050  24.545  0.00  0.00    +0.000 A 
ATOM     24  C   UNL     1      -1.747  15.559  25.786  0.00  0.00    +0.000 A 
ATOM     25  C   UNL     1      -0.942  16.345  26.614  0.00  0.00    +0.000 A 
ATOM     26  C   UNL     1      -0.556  17.621  26.203  0.00  0.00    +0.000 A 
ATOM     27  C   UNL     1      -0.926  18.087  24.943  0.00  0.00    +0.000 A 
ATOM     28  C   UNL     1      -1.703  17.290  24.104  0.00  0.00    +0.000 A 
ENDBRANCH  22  23
ENDBRANCH  19  22
ENDBRANCH  11  16
BRANCH  12  29
ATOM     29  C   UNL     1       0.244   9.610  22.816  0.00  0.00    +0.000 C 
ATOM     30  N   UNL     1      -0.989   9.326  23.350  0.00  0.00    +0.000 N 
ATOM     31  O   UNL     1       1.253   9.538  23.505  0.00  0.00    +0.000 OA
ATOM     32  H   UNL     1      -1.764   9.118  22.730  0.00  0.00    +0.000 HD
ATOM     33  H   UNL     1      -1.031   9.011  24.304  0.00  0.00    +0.000 HD
ENDBRANCH  12  29
BRANCH   1  34
ATOM     34  O   UNL     1       4.606   4.774  17.345  0.00  0.00    +0.000 OA
BRANCH  34  35
ATOM     35  C   UNL     1       4.187   3.398  17.423  0.00  0.00    +0.000 C 
BRANCH  35  36
ATOM     36  C   UNL     1       2.700   3.247  17.068  0.00  0.00    +0.000 C 
BRANCH  36  38
ATOM     37  C   UNL     1       2.915   1.631  18.845  0.00  0.00    +0.000 C 
ATOM     38  N   UNL     1       1.975   2.277  17.921  0.00  0.00    +0.000 NA
ATOM     39  C   UNL     1       0.887   2.887  18.690  0.00  0.00    +0.000 C 
ENDBRANCH  36  38
ENDBRANCH  35  36
ENDBRANCH  34  35
ENDBRANCH   1  34
TORSDOF 8
ENDMDL
MODEL 3
REMARK VINA RESULT:      -7.5      2.704      3.750
REMARK  Name = 
REMARK  10 active torsions:
REMARK  status: ('A' for Active; 'I' for Inactive)
REMARK    1  A    between atoms: C_1  and  N_2
REMARK    2  A    between atoms: N_2  and  C_3
REMARK    3  A    between atoms: N_2  and  C_4
REMARK    4  A    between atoms: C_4  and  C_5
REMARK    5  A    between atoms: C_5  and  O_6
REMARK    6  A    between atoms: O_6  and  C_7
REMARK    7  A    between atoms: C_17  and  C_18
REMARK    8  A    between atoms: C_21  and  O_22
REMARK    9  A    between atoms: O_22  and  C_23
REMARK   10  A    between atoms: C_31  and  C_32
REMARK                            x       y       z     vdW  Elec       q    Type
REMARK                         _______ _______ _______ _____ _____    ______ ____
ROOT
ATOM      1  C   UNL     1       3.025   6.745  18.190  0.00  0.00    +0.000 A 
ATOM      2  C   UNL     1       2.801   7.858  17.397  0.00  0.00    +0.000 A 
ATOM      3  C   UNL     1       2.134   8.953  17.917  0.00  0.00    +0.000 A 
ATOM      4  C   UNL     1       1.641   8.979  19.234  0.00  0.00    +0.000 A 
ATOM      5  C   UNL     1       1.799   7.844  20.034  0.00  0.00    +0.000 A 
ATOM      6  C   UNL     1       2.499   6.729  19.491  0.00  0.00    +0.000 A 
ATOM      7  C   UNL     1       1.167   7.705  21.406  0.00  0.00    +0.000 C 
ATOM      8  C   UNL     1       1.241   8.912  22.349  0.00  0.00    +0.000 C 
ATOM      9  N   UNL     1       0.467  10.068  21.944  0.00  0.00    +0.000 N 
ATOM     10  N   UNL     1      -0.191  10.802  22.876  0.00  0.00    +0.000 NA
ATOM     11  C   UNL     1      -0.685  11.864  22.201  0.00  0.00    +0.000 A 
ATOM     12  C   UNL     1      -0.282  11.815  20.836  0.00  0.00    +0.000 A 
ATOM     13  C   UNL     1       0.426  10.630  20.708  0.00  0.00    +0.000 A 
ATOM     14  N   UNL     1       1.016  10.176  19.585  0.00  0.00    +0.000 N 
ATOM     15  H   UNL     1       1.013  10.836  18.799  0.00  0.00    +0.000 HD
ENDROOT
BRANCH  11  16
ATOM     16  C   UNL     1      -1.590  12.830  22.845  0.00  0.00    +0.000 A 
ATOM     17  C   UNL     1      -1.193  14.152  23.080  0.00  0.00    +0.000 A 
ATOM     18  C   UNL     1      -2.002  15.021  23.830  0.00  0.00    +0.000 A 
ATOM     19  C   UNL     1      -3.224  14.587  24.350  0.00  0.00    +0.000 A 
ATOM     20  C   UNL     1      -3.640  13.279  24.098  0.00  0.00    +0.000 A 
ATOM     21  C   UNL     1      -2.841  12.419  23.333  0.00  0.00    +0.000 A 
BRANCH  19  22
ATOM     22  O   UNL     1      -3.896  15.486  25.156  0.00  0.00    +0.000 OA
BRANCH  22  23
ATOM     23  C   UNL     1      -4.753  16.403  24.589  0.00  0.00    +0.000 A 
ATOM     24  C   UNL     1      -5.638  15.939  23.611  0.00  0.00    +0.000 A 
ATOM     25  C   UNL     1      -6.512  16.828  22.979  0.00  0.00    +0.000 A 
ATOM     26  C   UNL     1      -6.503  18.179  23.325  0.00  0.00    +0.000 A 
ATOM     27  C   UNL     1      -5.662  18.631  24.340  0.00  0.00    +0.000 A 
ATOM     28  C   UNL     1      -4.811  17.738  24.992  0.00  0.00    +0.000 A 
ENDBRANCH  22  23
ENDBRANCH  19  22
ENDBRANCH  11  16
BRANCH  12  29
ATOM     29  C   UNL     1      -0.502  12.749  19.749  0.00  0.00    +0.000 C 
ATOM     30  N   UNL     1       0.449  13.737  19.662  0.00  0.00    +0.000 N 
ATOM     31  O   UNL     1      -1.450  12.726  18.977  0.00  0.00    +0.000 OA
ATOM     32  H   UNL     1       1.351  13.600  20.102  0.00  0.00    +0.000 HD
ATOM     33  H   UNL     1       0.368  14.406  18.916  0.00  0.00    +0.000 HD
ENDBRANCH  12  29
BRANCH   1  34
ATOM     34  O   UNL     1       3.712   5.634  17.758  0.00  0.00    +0.000 OA
BRANCH  34  35
ATOM     35  C   UNL     1       5.047   5.534  18.290  0.00  0.00    +0.000 C 
BRANCH  35  36
ATOM     36  C   UNL     1       6.101   5.752  17.194  0.00  0.00    +0.000 C 
BRANCH  36  38
ATOM     37  C   UNL     1       7.531   7.647  17.615  0.00  0.00    +0.000 C 
ATOM     38  N   UNL     1       7.420   6.187  17.709  0.00  0.00    +0.000 NA
ATOM     39  C   UNL     1       7.663   5.773  19.093  0.00  0.00    +0.000 C 
ENDBRANCH  36  38
ENDBRANCH  35  36
ENDBRANCH  34  35
ENDBRANCH   1  34
TORSDOF 8
ENDMDL
MODEL 4
REMARK VINA RESULT:      -7.4      0.835      1.428
REMARK  Name = 
REMARK  10 active torsions:
REMARK  status: ('A' for Active; 'I' for Inactive)
REMARK    1  A    between atoms: C_1  and  N_2
REMARK    2  A    between atoms: N_2  and  C_3
REMARK    3  A    between atoms: N_2  and  C_4
REMARK    4  A    between atoms: C_4  and  C_5
REMARK    5  A    between atoms: C_5  and  O_6
REMARK    6  A    between atoms: O_6  and  C_7
REMARK    7  A    between atoms: C_17  and  C_18
REMARK    8  A    between atoms: C_21  and  O_22
REMARK    9  A    between atoms: O_22  and  C_23
REMARK   10  A    between atoms: C_31  and  C_32
REMARK                            x       y       z     vdW  Elec       q    Type
REMARK                         _______ _______ _______ _____ _____    ______ ____
ROOT
ATOM      1  C   UNL     1       3.661   4.784  18.545  0.00  0.00    +0.000 A 
ATOM      2  C   UNL     1       3.266   4.644  19.865  0.00  0.00    +0.000 A 
ATOM      3  C   UNL     1       2.576   5.667  20.491  0.00  0.00    +0.000 A 
ATOM      4  C   UNL     1       2.274   6.878  19.843  0.00  0.00    +0.000 A 
ATOM      5  C   UNL     1       2.717   7.068  18.531  0.00  0.00    +0.000 A 
ATOM      6  C   UNL     1       3.413   6.002  17.894  0.00  0.00    +0.000 A 
ATOM      7  C   UNL     1       2.588   8.391  17.798  0.00  0.00    +0.000 C 
ATOM      8  C   UNL     1       1.258   9.143  17.918  0.00  0.00    +0.000 C 
ATOM      9  N   UNL     1       0.956   9.671  19.233  0.00  0.00    +0.000 N 
ATOM     10  N   UNL     1       0.364  10.886  19.355  0.00  0.00    +0.000 NA
ATOM     11  C   UNL     1       0.099  11.016  20.674  0.00  0.00    +0.000 A 
ATOM     12  C   UNL     1       0.485   9.838  21.376  0.00  0.00    +0.000 A 
ATOM     13  C   UNL     1       1.061   9.016  20.419  0.00  0.00    +0.000 A 
ATOM     14  N   UNL     1       1.555   7.780  20.627  0.00  0.00    +0.000 N 
ATOM     15  H   UNL     1       1.383   7.400  21.564  0.00  0.00    +0.000 HD
ENDROOT
BRANCH  11  16
ATOM     16  C   UNL     1      -0.421  12.274  21.233  0.00  0.00    +0.000 A 
ATOM     17  C   UNL     1      -1.794  12.547  21.256  0.00  0.00    +0.000 A 
ATOM     18  C   UNL     1      -2.268  13.809  21.648  0.00  0.00    +0.000 A 
ATOM     19  C   UNL     1      -1.380  14.816  22.033  0.00  0.00    +0.000 A 
ATOM     20  C   UNL     1      -0.011  14.545  22.039  0.00  0.00    +0.000 A 
ATOM     21  C   UNL     1       0.460  13.279  21.666  0.00  0.00    +0.000 A 
BRANCH  19  22
ATOM     22  O   UNL     1      -1.940  16.051  22.304  0.00  0.00    +0.000 OA
BRANCH  22  23
ATOM     23  C   UNL     1      -1.619  16.702  23.475  0.00  0.00    +0.000 A 
ATOM     24  C   UNL     1      -2.023  16.107  24.674  0.00  0.00    +0.000 A 
ATOM     25  C   UNL     1      -1.752  16.735  25.893  0.00  0.00    +0.000 A 
ATOM     26  C   UNL     1      -1.076  17.955  25.913  0.00  0.00    +0.000 A 
ATOM     27  C   UNL     1      -0.623  18.519  24.722  0.00  0.00    +0.000 A 
ATOM     28  C   UNL     1      -0.867  17.877  23.509  0.00  0.00    +0.000 A 
ENDBRANCH  22  23
ENDBRANCH  19  22
ENDBRANCH  11  16
BRANCH  12  29
ATOM     29  C   UNL     1       0.342   9.478  22.773  0.00  0.00    +0.000 C 
ATOM     30  N   UNL     1      -0.910   9.022  23.106  0.00  0.00    +0.000 N 
ATOM     31  O   UNL     1       1.214   9.586  23.624  0.00  0.00    +0.000 OA
ATOM     32  H   UNL     1      -1.524   8.676  22.378  0.00  0.00    +0.000 HD
ATOM     33  H   UNL     1      -1.071   8.734  24.056  0.00  0.00    +0.000 HD
ENDBRANCH  12  29
BRANCH   1  34
ATOM     34  O   UNL     1       4.316   3.799  17.843  0.00  0.00    +0.000 OA
BRANCH  34  35
ATOM     35  C   UNL     1       5.610   4.198  17.352  0.00  0.00    +0.000 C 
BRANCH  35  36
ATOM     36  C   UNL     1       5.881   3.616  15.956  0.00  0.00    +0.000 C 
BRANCH  36  38
ATOM     37  C   UNL     1       6.250   4.038  13.611  0.00  0.00    +0.000 C 
ATOM     38  N   UNL     1       6.286   4.628  14.954  0.00  0.00    +0.000 NA
ATOM     39  C   UNL     1       5.446   5.829  14.974  0.00  0.00    +0.000 C 
ENDBRANCH  36  38
ENDBRANCH  35  36
ENDBRANCH  34  35
ENDBRANCH   1  34
TORSDOF 8
ENDMDL
MODEL 5
REMARK VINA RESULT:      -7.4      2.102      2.884
REMARK  Name = 
REMARK  10 active torsions:
REMARK  status: ('A' for Active; 'I' for Inactive)
REMARK    1  A    between atoms: C_1  and  N_2
REMARK    2  A    between atoms: N_2  and  C_3
REMARK    3  A    between atoms: N_2  and  C_4
REMARK    4  A    between atoms: C_4  and  C_5
REMARK    5  A    between atoms: C_5  and  O_6
REMARK    6  A    between atoms: O_6  and  C_7
REMARK    7  A    between atoms: C_17  and  C_18
REMARK    8  A    between atoms: C_21  and  O_22
REMARK    9  A    between atoms: O_22  and  C_23
REMARK   10  A    between atoms: C_31  and  C_32
REMARK                            x       y       z     vdW  Elec       q    Type
REMARK                         _______ _______ _______ _____ _____    ______ ____
ROOT
ATOM      1  C   UNL     1       3.982   5.496  18.360  0.00  0.00    +0.000 A 
ATOM      2  C   UNL     1       3.655   5.278  19.688  0.00  0.00    +0.000 A 
ATOM      3  C   UNL     1       2.822   6.164  20.349  0.00  0.00    +0.000 A 
ATOM      4  C   UNL     1       2.302   7.313  19.729  0.00  0.00    +0.000 A 
ATOM      5  C   UNL     1       2.667   7.589  18.408  0.00  0.00    +0.000 A 
ATOM      6  C   UNL     1       3.514   6.662  17.736  0.00  0.00    +0.000 A 
ATOM      7  C   UNL     1       2.296   8.878  17.699  0.00  0.00    +0.000 C 
ATOM      8  C   UNL     1       0.863   9.395  17.868  0.00  0.00    +0.000 C 
ATOM      9  N   UNL     1       0.516   9.851  19.198  0.00  0.00    +0.000 N 
ATOM     10  N   UNL     1      -0.267  10.948  19.355  0.00  0.00    +0.000 NA
ATOM     11  C   UNL     1      -0.511  11.017  20.683  0.00  0.00    +0.000 A 
ATOM     12  C   UNL     1       0.088   9.914  21.356  0.00  0.00    +0.000 A 
ATOM     13  C   UNL     1       0.765   9.210  20.371  0.00  0.00    +0.000 A 
ATOM     14  N   UNL     1       1.466   8.073  20.546  0.00  0.00    +0.000 N 
ATOM     15  H   UNL     1       1.388   7.659  21.482  0.00  0.00    +0.000 HD
ENDROOT
BRANCH  11  16
ATOM     16  C   UNL     1      -1.218  12.164  21.276  0.00  0.00    +0.000 A 
ATOM     17  C   UNL     1      -0.851  12.678  22.525  0.00  0.00    +0.000 A 
ATOM     18  C   UNL     1      -1.626  13.669  23.149  0.00  0.00    +0.000 A 
ATOM     19  C   UNL     1      -2.776  14.167  22.533  0.00  0.00    +0.000 A 
ATOM     20  C   UNL     1      -3.136  13.679  21.275  0.00  0.00    +0.000 A 
ATOM     21  C   UNL     1      -2.351  12.705  20.645  0.00  0.00    +0.000 A 
BRANCH  19  22
ATOM     22  O   UNL     1      -3.523  15.065  23.272  0.00  0.00    +0.000 OA
BRANCH  22  23
ATOM     23  C   UNL     1      -4.865  14.830  23.477  0.00  0.00    +0.000 A 
ATOM     24  C   UNL     1      -5.745  15.893  23.258  0.00  0.00    +0.000 A 
ATOM     25  C   UNL     1      -7.115  15.724  23.476  0.00  0.00    +0.000 A 
ATOM     26  C   UNL     1      -7.605  14.492  23.911  0.00  0.00    +0.000 A 
ATOM     27  C   UNL     1      -6.734  13.416  24.073  0.00  0.00    +0.000 A 
ATOM     28  C   UNL     1      -5.371  13.577  23.826  0.00  0.00    +0.000 A 
ENDBRANCH  22  23
ENDBRANCH  19  22
ENDBRANCH  11  16
BRANCH  12  29
ATOM     29  C   UNL     1       0.050   9.520  22.750  0.00  0.00    +0.000 C 
ATOM     30  N   UNL     1      -1.188   9.105  23.179  0.00  0.00    +0.000 N 
ATOM     31  O   UNL     1       0.994   9.568  23.526  0.00  0.00    +0.000 OA
ATOM     32  H   UNL     1      -1.876   8.805  22.498  0.00  0.00    +0.000 HD
ATOM     33  H   UNL     1      -1.280   8.797  24.132  0.00  0.00    +0.000 HD
ENDBRANCH  12  29
BRANCH   1  34
ATOM     34  O   UNL     1       4.772   4.642  17.625  0.00  0.00    +0.000 OA
BRANCH  34  35
ATOM     35  C   UNL     1       6.175   4.738  17.936  0.00  0.00    +0.000 C 
BRANCH  35  36
ATOM     36  C   UNL     1       6.854   5.841  17.110  0.00  0.00    +0.000 C 
BRANCH  36  38
ATOM     37  C   UNL     1       7.085   4.125  15.431  0.00  0.00    +0.000 C 
ATOM     38  N   UNL     1       6.894   5.562  15.656  0.00  0.00    +0.000 NA
ATOM     39  C   UNL     1       5.686   6.003  14.952  0.00  0.00    +0.000 C 
ENDBRANCH  36  38
ENDBRANCH  35  36
ENDBRANCH  34  35
ENDBRANCH   1  34
TORSDOF 8
ENDMDL
MODEL 6
REMARK VINA RESULT:      -7.3      2.699     11.346
REMARK  Name = 
REMARK  10 active torsions:
REMARK  status: ('A' for Active; 'I' for Inactive)
REMARK    1  A    between atoms: C_1  and  N_2
REMARK    2  A    between atoms: N_2  and  C_3
REMARK    3  A    between atoms: N_2  and  C_4
REMARK    4  A    between atoms: C_4  and  C_5
REMARK    5  A    between atoms: C_5  and  O_6
REMARK    6  A    between atoms: O_6  and  C_7
REMARK    7  A    between atoms: C_17  and  C_18
REMARK    8  A    between atoms: C_21  and  O_22
REMARK    9  A    between atoms: O_22  and  C_23
REMARK   10  A    between atoms: C_31  and  C_32
REMARK                            x       y       z     vdW  Elec       q    Type
REMARK                         _______ _______ _______ _____ _____    ______ ____
ROOT
ATOM      1  C   UNL     1      -3.173  16.022  23.592  0.00  0.00    +0.000 A 
ATOM      2  C   UNL     1      -2.962  15.012  24.516  0.00  0.00    +0.000 A 
ATOM      3  C   UNL     1      -2.265  13.874  24.148  0.00  0.00    +0.000 A 
ATOM      4  C   UNL     1      -1.774  13.680  22.845  0.00  0.00    +0.000 A 
ATOM      5  C   UNL     1      -2.029  14.657  21.878  0.00  0.00    +0.000 A 
ATOM      6  C   UNL     1      -2.734  15.829  22.274  0.00  0.00    +0.000 A 
ATOM      7  C   UNL     1      -1.687  14.476  20.411  0.00  0.00    +0.000 C 
ATOM      8  C   UNL     1      -0.320  13.875  20.067  0.00  0.00    +0.000 C 
ATOM      9  N   UNL     1      -0.138  12.486  20.435  0.00  0.00    +0.000 N 
ATOM     10  N   UNL     1       0.542  11.650  19.610  0.00  0.00    +0.000 NA
ATOM     11  C   UNL     1       0.649  10.492  20.296  0.00  0.00    +0.000 A 
ATOM     12  C   UNL     1       0.072  10.626  21.591  0.00  0.00    +0.000 A 
ATOM     13  C   UNL     1      -0.452  11.909  21.625  0.00  0.00    +0.000 A 
ATOM     14  N   UNL     1      -1.080  12.484  22.669  0.00  0.00    +0.000 N 
ATOM     15  H   UNL     1      -1.063  11.935  23.536  0.00  0.00    +0.000 HD
ENDROOT
BRANCH  11  16
ATOM     16  C   UNL     1       1.209   9.279  19.675  0.00  0.00    +0.000 A 
ATOM     17  C   UNL     1       1.620   8.189  20.450  0.00  0.00    +0.000 A 
ATOM     18  C   UNL     1       2.292   7.104  19.863  0.00  0.00    +0.000 A 
ATOM     19  C   UNL     1       2.555   7.087  18.492  0.00  0.00    +0.000 A 
ATOM     20  C   UNL     1       2.125   8.158  17.707  0.00  0.00    +0.000 A 
ATOM     21  C   UNL     1       1.438   9.230  18.290  0.00  0.00    +0.000 A 
BRANCH  19  22
ATOM     22  O   UNL     1       3.309   6.024  18.030  0.00  0.00    +0.000 OA
BRANCH  22  23
ATOM     23  C   UNL     1       2.965   4.739  18.386  0.00  0.00    +0.000 A 
ATOM     24  C   UNL     1       1.700   4.282  18.005  0.00  0.00    +0.000 A 
ATOM     25  C   UNL     1       1.283   2.996  18.361  0.00  0.00    +0.000 A 
ATOM     26  C   UNL     1       2.131   2.168  19.097  0.00  0.00    +0.000 A 
ATOM     27  C   UNL     1       3.413   2.602  19.427  0.00  0.00    +0.000 A 
ATOM     28  C   UNL     1       3.840   3.873  19.044  0.00  0.00    +0.000 A 
ENDBRANCH  22  23
ENDBRANCH  19  22
ENDBRANCH  11  16
BRANCH  12  29
ATOM     29  C   UNL     1       0.003   9.694  22.700  0.00  0.00    +0.000 C 
ATOM     30  N   UNL     1      -0.882   8.661  22.507  0.00  0.00    +0.000 N 
ATOM     31  O   UNL     1       0.627   9.794  23.747  0.00  0.00    +0.000 OA
ATOM     32  H   UNL     1      -1.177   8.427  21.566  0.00  0.00    +0.000 HD
ATOM     33  H   UNL     1      -0.963   7.967  23.230  0.00  0.00    +0.000 HD
ENDBRANCH  12  29
BRANCH   1  34
ATOM     34  O   UNL     1      -3.822  17.197  23.891  0.00  0.00    +0.000 OA
BRANCH  34  35
ATOM     35  C   UNL     1      -5.229  17.033  24.151  0.00  0.00    +0.000 C 
BRANCH  35  36
ATOM     36  C   UNL     1      -6.035  16.989  22.844  0.00  0.00    +0.000 C 
BRANCH  36  38
ATOM     37  C   UNL     1      -6.412  15.054  21.455  0.00  0.00    +0.000 C 
ATOM     38  N   UNL     1      -6.834  15.752  22.674  0.00  0.00    +0.000 NA
ATOM     39  C   UNL     1      -6.728  14.837  23.814  0.00  0.00    +0.000 C 
ENDBRANCH  36  38
ENDBRANCH  35  36
ENDBRANCH  34  35
ENDBRANCH   1  34
TORSDOF 8
ENDMDL
MODEL 7
REMARK VINA RESULT:      -7.3      3.481      5.399
REMARK  Name = 
REMARK  10 active torsions:
REMARK  status: ('A' for Active; 'I' for Inactive)
REMARK    1  A    between atoms: C_1  and  N_2
REMARK    2  A    between atoms: N_2  and  C_3
REMARK    3  A    between atoms: N_2  and  C_4
REMARK    4  A    between atoms: C_4  and  C_5
REMARK    5  A    between atoms: C_5  and  O_6
REMARK    6  A    between atoms: O_6  and  C_7
REMARK    7  A    between atoms: C_17  and  C_18
REMARK    8  A    between atoms: C_21  and  O_22
REMARK    9  A    between atoms: O_22  and  C_23
REMARK   10  A    between atoms: C_31  and  C_32
REMARK                            x       y       z     vdW  Elec       q    Type
REMARK                         _______ _______ _______ _____ _____    ______ ____
ROOT
ATOM      1  C   UNL     1       3.161   6.595  18.794  0.00  0.00    +0.000 A 
ATOM      2  C   UNL     1       2.888   7.337  17.656  0.00  0.00    +0.000 A 
ATOM      3  C   UNL     1       2.021   8.413  17.725  0.00  0.00    +0.000 A 
ATOM      4  C   UNL     1       1.370   8.781  18.916  0.00  0.00    +0.000 A 
ATOM      5  C   UNL     1       1.580   8.010  20.063  0.00  0.00    +0.000 A 
ATOM      6  C   UNL     1       2.486   6.914  19.982  0.00  0.00    +0.000 A 
ATOM      7  C   UNL     1       0.808   8.219  21.352  0.00  0.00    +0.000 C 
ATOM      8  C   UNL     1       0.601   9.660  21.832  0.00  0.00    +0.000 C 
ATOM      9  N   UNL     1      -0.265  10.475  21.006  0.00  0.00    +0.000 N 
ATOM     10  N   UNL     1      -1.126  11.349  21.584  0.00  0.00    +0.000 NA
ATOM     11  C   UNL     1      -1.672  12.036  20.556  0.00  0.00    +0.000 A 
ATOM     12  C   UNL     1      -1.101  11.616  19.320  0.00  0.00    +0.000 A 
ATOM     13  C   UNL     1      -0.229  10.591  19.652  0.00  0.00    +0.000 A 
ATOM     14  N   UNL     1       0.551   9.903  18.795  0.00  0.00    +0.000 N 
ATOM     15  H   UNL     1       0.556  10.263  17.834  0.00  0.00    +0.000 HD
ENDROOT
BRANCH  11  16
ATOM     16  C   UNL     1      -2.771  12.992  20.767  0.00  0.00    +0.000 A 
ATOM     17  C   UNL     1      -4.087  12.679  20.406  0.00  0.00    +0.000 A 
ATOM     18  C   UNL     1      -5.099  13.651  20.469  0.00  0.00    +0.000 A 
ATOM     19  C   UNL     1      -4.814  14.949  20.901  0.00  0.00    +0.000 A 
ATOM     20  C   UNL     1      -3.510  15.263  21.288  0.00  0.00    +0.000 A 
ATOM     21  C   UNL     1      -2.506  14.288  21.243  0.00  0.00    +0.000 A 
BRANCH  19  22
ATOM     22  O   UNL     1      -5.855  15.855  20.830  0.00  0.00    +0.000 OA
BRANCH  22  23
ATOM     23  C   UNL     1      -6.073  16.554  19.663  0.00  0.00    +0.000 A 
ATOM     24  C   UNL     1      -5.572  17.857  19.590  0.00  0.00    +0.000 A 
ATOM     25  C   UNL     1      -5.785  18.626  18.442  0.00  0.00    +0.000 A 
ATOM     26  C   UNL     1      -6.498  18.092  17.368  0.00  0.00    +0.000 A 
ATOM     27  C   UNL     1      -6.947  16.774  17.419  0.00  0.00    +0.000 A 
ATOM     28  C   UNL     1      -6.707  15.997  18.552  0.00  0.00    +0.000 A 
ENDBRANCH  22  23
ENDBRANCH  19  22
ENDBRANCH  11  16
BRANCH  12  29
ATOM     29  C   UNL     1      -1.309  12.097  17.969  0.00  0.00    +0.000 C 
ATOM     30  N   UNL     1      -0.719  13.310  17.711  0.00  0.00    +0.000 N 
ATOM     31  O   UNL     1      -1.971  11.531  17.110  0.00  0.00    +0.000 OA
ATOM     32  H   UNL     1       0.037  13.633  18.305  0.00  0.00    +0.000 HD
ATOM     33  H   UNL     1      -0.806  13.692  16.784  0.00  0.00    +0.000 HD
ENDBRANCH  12  29
BRANCH   1  34
ATOM     34  O   UNL     1       4.039   5.537  18.814  0.00  0.00    +0.000 OA
BRANCH  34  35
ATOM     35  C   UNL     1       3.880   4.673  19.956  0.00  0.00    +0.000 C 
BRANCH  35  36
ATOM     36  C   UNL     1       3.404   3.275  19.534  0.00  0.00    +0.000 C 
BRANCH  36  38
ATOM     37  C   UNL     1       2.141   3.340  21.587  0.00  0.00    +0.000 C 
ATOM     38  N   UNL     1       2.161   2.835  20.210  0.00  0.00    +0.000 NA
ATOM     39  C   UNL     1       0.945   3.272  19.519  0.00  0.00    +0.000 C 
ENDBRANCH  36  38
ENDBRANCH  35  36
ENDBRANCH  34  35
ENDBRANCH   1  34
TORSDOF 8
ENDMDL
MODEL 8
REMARK VINA RESULT:      -7.3      1.795      2.655
REMARK  Name = 
REMARK  10 active torsions:
REMARK  status: ('A' for Active; 'I' for Inactive)
REMARK    1  A    between atoms: C_1  and  N_2
REMARK    2  A    between atoms: N_2  and  C_3
REMARK    3  A    between atoms: N_2  and  C_4
REMARK    4  A    between atoms: C_4  and  C_5
REMARK    5  A    between atoms: C_5  and  O_6
REMARK    6  A    between atoms: O_6  and  C_7
REMARK    7  A    between atoms: C_17  and  C_18
REMARK    8  A    between atoms: C_21  and  O_22
REMARK    9  A    between atoms: O_22  and  C_23
REMARK   10  A    between atoms: C_31  and  C_32
REMARK                            x       y       z     vdW  Elec       q    Type
REMARK                         _______ _______ _______ _____ _____    ______ ____
ROOT
ATOM      1  C   UNL     1       3.624   5.140  18.588  0.00  0.00    +0.000 A 
ATOM      2  C   UNL     1       3.194   4.971  19.893  0.00  0.00    +0.000 A 
ATOM      3  C   UNL     1       2.447   5.960  20.508  0.00  0.00    +0.000 A 
ATOM      4  C   UNL     1       2.118   7.165  19.863  0.00  0.00    +0.000 A 
ATOM      5  C   UNL     1       2.593   7.386  18.567  0.00  0.00    +0.000 A 
ATOM      6  C   UNL     1       3.349   6.354  17.942  0.00  0.00    +0.000 A 
ATOM      7  C   UNL     1       2.436   8.711  17.843  0.00  0.00    +0.000 C 
ATOM      8  C   UNL     1       1.075   9.411  17.929  0.00  0.00    +0.000 C 
ATOM      9  N   UNL     1       0.713   9.913  19.239  0.00  0.00    +0.000 N 
ATOM     10  N   UNL     1       0.072  11.103  19.355  0.00  0.00    +0.000 NA
ATOM     11  C   UNL     1      -0.238  11.208  20.666  0.00  0.00    +0.000 A 
ATOM     12  C   UNL     1       0.171  10.038  21.368  0.00  0.00    +0.000 A 
ATOM     13  C   UNL     1       0.807   9.250  20.422  0.00  0.00    +0.000 A 
ATOM     14  N   UNL     1       1.342   8.031  20.633  0.00  0.00    +0.000 N 
ATOM     15  H   UNL     1       1.156   7.634  21.561  0.00  0.00    +0.000 HD
ENDROOT
BRANCH  11  16
ATOM     16  C   UNL     1      -0.823  12.439  21.221  0.00  0.00    +0.000 A 
ATOM     17  C   UNL     1      -0.254  13.080  22.328  0.00  0.00    +0.000 A 
ATOM     18  C   UNL     1      -0.904  14.162  22.944  0.00  0.00    +0.000 A 
ATOM     19  C   UNL     1      -2.128  14.628  22.458  0.00  0.00    +0.000 A 
ATOM     20  C   UNL     1      -2.690  14.012  21.338  0.00  0.00    +0.000 A 
ATOM     21  C   UNL     1      -2.032  12.946  20.713  0.00  0.00    +0.000 A 
BRANCH  19  22
ATOM     22  O   UNL     1      -2.734  15.630  23.193  0.00  0.00    +0.000 OA
BRANCH  22  23
ATOM     23  C   UNL     1      -4.106  15.747  23.185  0.00  0.00    +0.000 A 
ATOM     24  C   UNL     1      -4.842  14.723  23.789  0.00  0.00    +0.000 A 
ATOM     25  C   UNL     1      -6.239  14.771  23.788  0.00  0.00    +0.000 A 
ATOM     26  C   UNL     1      -6.899  15.844  23.187  0.00  0.00    +0.000 A 
ATOM     27  C   UNL     1      -6.164  16.892  22.637  0.00  0.00    +0.000 A 
ATOM     28  C   UNL     1      -4.771  16.858  22.665  0.00  0.00    +0.000 A 
ENDBRANCH  22  23
ENDBRANCH  19  22
ENDBRANCH  11  16
BRANCH  12  29
ATOM     29  C   UNL     1      -0.000   9.658  22.756  0.00  0.00    +0.000 C 
ATOM     30  N   UNL     1      -1.247   9.161  23.049  0.00  0.00    +0.000 N 
ATOM     31  O   UNL     1       0.843   9.781  23.633  0.00  0.00    +0.000 OA
ATOM     32  H   UNL     1      -1.830   8.806  22.299  0.00  0.00    +0.000 HD
ATOM     33  H   UNL     1      -1.427   8.858  23.990  0.00  0.00    +0.000 HD
ENDBRANCH  12  29
BRANCH   1  34
ATOM     34  O   UNL     1       4.337   4.188  17.897  0.00  0.00    +0.000 OA
BRANCH  34  35
ATOM     35  C   UNL     1       5.759   4.256  18.116  0.00  0.00    +0.000 C 
BRANCH  35  36
ATOM     36  C   UNL     1       6.488   4.797  16.877  0.00  0.00    +0.000 C 
BRANCH  36  38
ATOM     37  C   UNL     1       5.354   6.071  15.172  0.00  0.00    +0.000 C 
ATOM     38  N   UNL     1       5.691   4.719  15.631  0.00  0.00    +0.000 NA
ATOM     39  C   UNL     1       6.377   4.003  14.552  0.00  0.00    +0.000 C 
ENDBRANCH  36  38
ENDBRANCH  35  36
ENDBRANCH  34  35
ENDBRANCH   1  34
TORSDOF 8
ENDMDL
MODEL 9
REMARK VINA RESULT:      -7.3      1.275      1.813
REMARK  Name = 
REMARK  10 active torsions:
REMARK  status: ('A' for Active; 'I' for Inactive)
REMARK    1  A    between atoms: C_1  and  N_2
REMARK    2  A    between atoms: N_2  and  C_3
REMARK    3  A    between atoms: N_2  and  C_4
REMARK    4  A    between atoms: C_4  and  C_5
REMARK    5  A    between atoms: C_5  and  O_6
REMARK    6  A    between atoms: O_6  and  C_7
REMARK    7  A    between atoms: C_17  and  C_18
REMARK    8  A    between atoms: C_21  and  O_22
REMARK    9  A    between atoms: O_22  and  C_23
REMARK   10  A    between atoms: C_31  and  C_32
REMARK                            x       y       z     vdW  Elec       q    Type
REMARK                         _______ _______ _______ _____ _____    ______ ____
ROOT
ATOM      1  C   UNL     1       3.264   4.372  18.759  0.00  0.00    +0.000 A 
ATOM      2  C   UNL     1       2.808   4.310  20.065  0.00  0.00    +0.000 A 
ATOM      3  C   UNL     1       2.240   5.427  20.652  0.00  0.00    +0.000 A 
ATOM      4  C   UNL     1       2.126   6.656  19.977  0.00  0.00    +0.000 A 
ATOM      5  C   UNL     1       2.636   6.761  18.680  0.00  0.00    +0.000 A 
ATOM      6  C   UNL     1       3.205   5.600  18.084  0.00  0.00    +0.000 A 
ATOM      7  C   UNL     1       2.712   8.076  17.926  0.00  0.00    +0.000 C 
ATOM      8  C   UNL     1       1.491   9.001  17.986  0.00  0.00    +0.000 C 
ATOM      9  N   UNL     1       1.217   9.589  19.282  0.00  0.00    +0.000 N 
ATOM     10  N   UNL     1       0.791  10.874  19.366  0.00  0.00    +0.000 NA
ATOM     11  C   UNL     1       0.500  11.061  20.672  0.00  0.00    +0.000 A 
ATOM     12  C   UNL     1       0.699   9.856  21.404  0.00  0.00    +0.000 A 
ATOM     13  C   UNL     1       1.192   8.947  20.480  0.00  0.00    +0.000 A 
ATOM     14  N   UNL     1       1.509   7.660  20.722  0.00  0.00    +0.000 N 
ATOM     15  H   UNL     1       1.254   7.323  21.657  0.00  0.00    +0.000 HD
ENDROOT
BRANCH  11  16
ATOM     16  C   UNL     1       0.134  12.388  21.196  0.00  0.00    +0.000 A 
ATOM     17  C   UNL     1       1.074  13.422  21.279  0.00  0.00    +0.000 A 
ATOM     18  C   UNL     1       0.757  14.631  21.920  0.00  0.00    +0.000 A 
ATOM     19  C   UNL     1      -0.507  14.830  22.480  0.00  0.00    +0.000 A 
ATOM     20  C   UNL     1      -1.460  13.814  22.379  0.00  0.00    +0.000 A 
ATOM     21  C   UNL     1      -1.149  12.617  21.722  0.00  0.00    +0.000 A 
BRANCH  19  22
ATOM     22  O   UNL     1      -0.685  16.011  23.174  0.00  0.00    +0.000 OA
BRANCH  22  23
ATOM     23  C   UNL     1      -1.958  16.423  23.503  0.00  0.00    +0.000 A 
ATOM     24  C   UNL     1      -2.452  16.050  24.757  0.00  0.00    +0.000 A 
ATOM     25  C   UNL     1      -3.747  16.415  25.136  0.00  0.00    +0.000 A 
ATOM     26  C   UNL     1      -4.547  17.153  24.263  0.00  0.00    +0.000 A 
ATOM     27  C   UNL     1      -4.034  17.573  23.038  0.00  0.00    +0.000 A 
ATOM     28  C   UNL     1      -2.732  17.236  22.673  0.00  0.00    +0.000 A 
ENDBRANCH  22  23
ENDBRANCH  19  22
ENDBRANCH  11  16
BRANCH  12  29
ATOM     29  C   UNL     1       0.461   9.543  22.799  0.00  0.00    +0.000 C 
ATOM     30  N   UNL     1      -0.859   9.308  23.100  0.00  0.00    +0.000 N 
ATOM     31  O   UNL     1       1.314   9.515  23.674  0.00  0.00    +0.000 OA
ATOM     32  H   UNL     1      -1.503   9.060  22.357  0.00  0.00    +0.000 HD
ATOM     33  H   UNL     1      -1.092   9.064  24.047  0.00  0.00    +0.000 HD
ENDBRANCH  12  29
BRANCH   1  34
ATOM     34  O   UNL     1       3.805   3.295  18.095  0.00  0.00    +0.000 OA
BRANCH  34  35
ATOM     35  C   UNL     1       5.172   3.492  17.686  0.00  0.00    +0.000 C 
BRANCH  35  36
ATOM     36  C   UNL     1       5.297   3.519  16.155  0.00  0.00    +0.000 C 
BRANCH  36  38
ATOM     37  C   UNL     1       6.020   5.487  14.962  0.00  0.00    +0.000 C 
ATOM     38  N   UNL     1       6.470   4.279  15.663  0.00  0.00    +0.000 NA
ATOM     39  C   UNL     1       7.399   4.660  16.731  0.00  0.00    +0.000 C 
ENDBRANCH  36  38
ENDBRANCH  35  36
ENDBRANCH  34  35
ENDBRANCH   1  34
TORSDOF 8
ENDMDL
