MODEL 1
REMARK VINA RESULT:      -8.2      0.000      0.000
REMARK  Name = 
REMARK  5 active torsions:
REMARK  status: ('A' for Active; 'I' for Inactive)
REMARK    1  A    between atoms: C_2  and  C_16
REMARK    2  A    between atoms: N_3  and  C_4
REMARK    3  A    between atoms: C_7  and  C_8
REMARK    4  A    between atoms: N_20  and  C_21
REMARK    5  A    between atoms: C_21  and  C_22
REMARK                            x       y       z     vdW  Elec       q    Type
REMARK                         _______ _______ _______ _____ _____    ______ ____
ROOT
ATOM      1  O   UNL     1       2.210  12.573  20.121  0.00  0.00    +0.000 OA
ATOM      2  C   UNL     1       0.999  12.373  20.102  0.00  0.00    +0.000 C 
ATOM      3  N   UNL     1       0.379  11.173  19.803  0.00  0.00    +0.000 N 
ATOM      4  H   UNL     1      -0.639  11.196  19.740  0.00  0.00    +0.000 HD
ENDROOT
BRANCH   3   5
ATOM      5  C   UNL     1       1.002   9.949  19.514  0.00  0.00    +0.000 A 
ATOM      6  C   UNL     1       1.545   9.651  18.269  0.00  0.00    +0.000 A 
ATOM      7  C   UNL     1       2.143   8.410  18.033  0.00  0.00    +0.000 A 
ATOM      8  C   UNL     1       2.226   7.428  19.033  0.00  0.00    +0.000 A 
ATOM      9  C   UNL     1       1.693   7.752  20.293  0.00  0.00    +0.000 A 
ATOM     10  C   UNL     1       1.097   8.998  20.533  0.00  0.00    +0.000 A 
BRANCH   8  11
ATOM     11  C   UNL     1       2.850   6.117  18.754  0.00  0.00    +0.000 A 
ATOM     12  C   UNL     1       4.103   5.777  19.283  0.00  0.00    +0.000 A 
ATOM     13  C   UNL     1       4.673   4.556  18.968  0.00  0.00    +0.000 A 
ATOM     14  N   UNL     1       4.086   3.637  18.177  0.00  0.00    +0.000 NA
ATOM     15  C   UNL     1       2.877   3.966  17.676  0.00  0.00    +0.000 A 
ATOM     16  C   UNL     1       2.233   5.169  17.926  0.00  0.00    +0.000 A 
ENDBRANCH   8  11
ENDBRANCH   3   5
BRANCH   2  17
ATOM     17  C   UNL     1       0.049  13.502  20.508  0.00  0.00    +0.000 C 
ATOM     18  C   UNL     1      -0.033  13.632  22.027  0.00  0.00    +0.000 C 
ATOM     19  C   UNL     1      -0.856  12.500  22.625  0.00  0.00    +0.000 C 
ATOM     20  C   UNL     1      -2.231  12.398  21.958  0.00  0.00    +0.000 C 
ATOM     21  N   UNL     1      -2.165  12.294  20.484  0.00  0.00    +0.000 NA
ATOM     22  C   UNL     1      -1.354  13.394  19.901  0.00  0.00    +0.000 C 
BRANCH  21  23
ATOM     23  C   UNL     1      -3.523  12.367  19.893  0.00  0.00    +0.000 C 
BRANCH  23  24
ATOM     24  C   UNL     1      -3.667  11.693  18.546  0.00  0.00    +0.000 A 
ATOM     25  C   UNL     1      -4.797  11.945  17.747  0.00  0.00    +0.000 A 
ATOM     26  C   UNL     1      -4.915  11.369  16.478  0.00  0.00    +0.000 A 
ATOM     27  C   UNL     1      -3.903  10.545  16.004  0.00  0.00    +0.000 A 
ATOM     28  F   UNL     1      -4.010  10.012  14.778  0.00  0.00    +0.000 F 
ATOM     29  C   UNL     1      -2.787  10.281  16.787  0.00  0.00    +0.000 A 
ATOM     30  F   UNL     1      -1.809   9.490  16.325  0.00  0.00    +0.000 F 
ATOM     31  C   UNL     1      -2.663  10.845  18.054  0.00  0.00    +0.000 A 
ENDBRANCH  23  24
ENDBRANCH  21  23
ENDBRANCH   2  17
TORSDOF 5
ENDMDL
MODEL 2
REMARK VINA RESULT:      -8.1      6.132      9.665
REMARK  Name = 
REMARK  5 active torsions:
REMARK  status: ('A' for Active; 'I' for Inactive)
REMARK    1  A    between atoms: C_2  and  C_16
REMARK    2  A    between atoms: N_3  and  C_4
REMARK    3  A    between atoms: C_7  and  C_8
REMARK    4  A    between atoms: N_20  and  C_21
REMARK    5  A    between atoms: C_21  and  C_22
REMARK                            x       y       z     vdW  Elec       q    Type
REMARK                         _______ _______ _______ _____ _____    ______ ____
ROOT
ATOM      1  O   UNL     1       7.495   7.366  16.834  0.00  0.00    +0.000 OA
ATOM      2  C   UNL     1       7.791   7.140  18.002  0.00  0.00    +0.000 C 
ATOM      3  N   UNL     1       8.366   8.039  18.883  0.00  0.00    +0.000 N 
ATOM      4  H   UNL     1       8.636   7.667  19.794  0.00  0.00    +0.000 HD
ENDROOT
BRANCH   3   5
ATOM      5  C   UNL     1       8.675   9.385  18.634  0.00  0.00    +0.000 A 
ATOM      6  C   UNL     1       7.983  10.163  17.712  0.00  0.00    +0.000 A 
ATOM      7  C   UNL     1       8.342  11.496  17.496  0.00  0.00    +0.000 A 
ATOM      8  C   UNL     1       9.398  12.101  18.197  0.00  0.00    +0.000 A 
ATOM      9  C   UNL     1      10.074  11.309  19.142  0.00  0.00    +0.000 A 
ATOM     10  C   UNL     1       9.713   9.972  19.364  0.00  0.00    +0.000 A 
BRANCH   8  11
ATOM     11  C   UNL     1       9.768  13.508  17.939  0.00  0.00    +0.000 A 
ATOM     12  C   UNL     1      11.072  13.864  17.566  0.00  0.00    +0.000 A 
ATOM     13  C   UNL     1      11.391  15.196  17.370  0.00  0.00    +0.000 A 
ATOM     14  N   UNL     1      10.508  16.206  17.504  0.00  0.00    +0.000 NA
ATOM     15  C   UNL     1       9.253  15.857  17.856  0.00  0.00    +0.000 A 
ATOM     16  C   UNL     1       8.843  14.551  18.084  0.00  0.00    +0.000 A 
ENDBRANCH   8  11
ENDBRANCH   3   5
BRANCH   2  17
ATOM     17  C   UNL     1       7.450   5.777  18.610  0.00  0.00    +0.000 C 
ATOM     18  C   UNL     1       7.764   4.646  17.634  0.00  0.00    +0.000 C 
ATOM     19  C   UNL     1       6.733   4.591  16.517  0.00  0.00    +0.000 C 
ATOM     20  C   UNL     1       5.309   4.521  17.075  0.00  0.00    +0.000 C 
ATOM     21  N   UNL     1       5.000   5.600  18.040  0.00  0.00    +0.000 NA
ATOM     22  C   UNL     1       6.012   5.659  19.126  0.00  0.00    +0.000 C 
BRANCH  21  23
ATOM     23  C   UNL     1       3.674   5.379  18.665  0.00  0.00    +0.000 C 
BRANCH  23  24
ATOM     24  C   UNL     1       2.887   6.640  18.950  0.00  0.00    +0.000 A 
ATOM     25  C   UNL     1       2.693   7.595  17.935  0.00  0.00    +0.000 A 
ATOM     26  C   UNL     1       1.923   8.738  18.171  0.00  0.00    +0.000 A 
ATOM     27  C   UNL     1       1.342   8.926  19.418  0.00  0.00    +0.000 A 
ATOM     28  F   UNL     1       0.586  10.012  19.633  0.00  0.00    +0.000 F 
ATOM     29  C   UNL     1       1.534   7.995  20.430  0.00  0.00    +0.000 A 
ATOM     30  F   UNL     1       0.967   8.176  21.631  0.00  0.00    +0.000 F 
ATOM     31  C   UNL     1       2.303   6.856  20.207  0.00  0.00    +0.000 A 
ENDBRANCH  23  24
ENDBRANCH  21  23
ENDBRANCH   2  17
TORSDOF 5
ENDMDL
MODEL 3
REMARK VINA RESULT:      -8.1      0.753      1.149
REMARK  Name = 
REMARK  5 active torsions:
REMARK  status: ('A' for Active; 'I' for Inactive)
REMARK    1  A    between atoms: C_2  and  C_16
REMARK    2  A    between atoms: N_3  and  C_4
REMARK    3  A    between atoms: C_7  and  C_8
REMARK    4  A    between atoms: N_20  and  C_21
REMARK    5  A    between atoms: C_21  and  C_22
REMARK                            x       y       z     vdW  Elec       q    Type
REMARK                         _______ _______ _______ _____ _____    ______ ____
ROOT
ATOM      1  O   UNL     1       1.105  11.195  21.954  0.00  0.00    +0.000 OA
ATOM      2  C   UNL     1       0.595  11.613  20.920  0.00  0.00    +0.000 C 
ATOM      3  N   UNL     1       0.623  10.982  19.689  0.00  0.00    +0.000 N 
ATOM      4  H   UNL     1       0.231  11.506  18.906  0.00  0.00    +0.000 HD
ENDROOT
BRANCH   3   5
ATOM      5  C   UNL     1       1.188   9.732  19.392  0.00  0.00    +0.000 A 
ATOM      6  C   UNL     1       1.685   9.405  18.136  0.00  0.00    +0.000 A 
ATOM      7  C   UNL     1       2.226   8.140  17.893  0.00  0.00    +0.000 A 
ATOM      8  C   UNL     1       2.296   7.161  18.897  0.00  0.00    +0.000 A 
ATOM      9  C   UNL     1       1.809   7.513  20.168  0.00  0.00    +0.000 A 
ATOM     10  C   UNL     1       1.270   8.784  20.416  0.00  0.00    +0.000 A 
BRANCH   8  11
ATOM     11  C   UNL     1       2.859   5.824  18.611  0.00  0.00    +0.000 A 
ATOM     12  C   UNL     1       2.150   4.880  17.855  0.00  0.00    +0.000 A 
ATOM     13  C   UNL     1       2.692   3.625  17.640  0.00  0.00    +0.000 A 
ATOM     14  N   UNL     1       3.894   3.238  18.110  0.00  0.00    +0.000 NA
ATOM     15  C   UNL     1       4.575   4.152  18.831  0.00  0.00    +0.000 A 
ATOM     16  C   UNL     1       4.109   5.430  19.107  0.00  0.00    +0.000 A 
ENDBRANCH   8  11
ENDBRANCH   3   5
BRANCH   2  17
ATOM     17  C   UNL     1      -0.216  12.910  20.957  0.00  0.00    +0.000 C 
ATOM     18  C   UNL     1      -0.682  13.226  22.377  0.00  0.00    +0.000 C 
ATOM     19  C   UNL     1      -1.822  12.307  22.792  0.00  0.00    +0.000 C 
ATOM     20  C   UNL     1      -2.961  12.334  21.768  0.00  0.00    +0.000 C 
ATOM     21  N   UNL     1      -2.517  12.051  20.385  0.00  0.00    +0.000 NA
ATOM     22  C   UNL     1      -1.399  12.943  19.984  0.00  0.00    +0.000 C 
BRANCH  21  23
ATOM     23  C   UNL     1      -3.630  12.257  19.427  0.00  0.00    +0.000 C 
BRANCH  23  24
ATOM     24  C   UNL     1      -3.491  11.505  18.121  0.00  0.00    +0.000 A 
ATOM     25  C   UNL     1      -4.404  11.731  17.075  0.00  0.00    +0.000 A 
ATOM     26  C   UNL     1      -4.254  11.082  15.846  0.00  0.00    +0.000 A 
ATOM     27  C   UNL     1      -3.188  10.212  15.657  0.00  0.00    +0.000 A 
ATOM     28  F   UNL     1      -3.036   9.609  14.469  0.00  0.00    +0.000 F 
ATOM     29  C   UNL     1      -2.285   9.974  16.684  0.00  0.00    +0.000 A 
ATOM     30  F   UNL     1      -1.255   9.138  16.497  0.00  0.00    +0.000 F 
ATOM     31  C   UNL     1      -2.430  10.610  17.914  0.00  0.00    +0.000 A 
ENDBRANCH  23  24
ENDBRANCH  21  23
ENDBRANCH   2  17
TORSDOF 5
ENDMDL
MODEL 4
REMARK VINA RESULT:      -7.9      3.288      9.237
REMARK  Name = 
REMARK  5 active torsions:
REMARK  status: ('A' for Active; 'I' for Inactive)
REMARK    1  A    between atoms: C_2  and  C_16
REMARK    2  A    between atoms: N_3  and  C_4
REMARK    3  A    between atoms: C_7  and  C_8
REMARK    4  A    between atoms: N_20  and  C_21
REMARK    5  A    between atoms: C_21  and  C_22
REMARK                            x       y       z     vdW  Elec       q    Type
REMARK                         _______ _______ _______ _____ _____    ______ ____
ROOT
ATOM      1  O   UNL     1       5.865   7.827  17.184  0.00  0.00    +0.000 OA
ATOM      2  C   UNL     1       5.491   6.726  17.574  0.00  0.00    +0.000 C 
ATOM      3  N   UNL     1       4.277   6.447  18.176  0.00  0.00    +0.000 N 
ATOM      4  H   UNL     1       4.156   5.497  18.526  0.00  0.00    +0.000 HD
ENDROOT
BRANCH   3   5
ATOM      5  C   UNL     1       3.224   7.345  18.411  0.00  0.00    +0.000 A 
ATOM      6  C   UNL     1       2.817   8.295  17.481  0.00  0.00    +0.000 A 
ATOM      7  C   UNL     1       1.770   9.173  17.774  0.00  0.00    +0.000 A 
ATOM      8  C   UNL     1       1.089   9.129  19.002  0.00  0.00    +0.000 A 
ATOM      9  C   UNL     1       1.497   8.149  19.923  0.00  0.00    +0.000 A 
ATOM     10  C   UNL     1       2.544   7.263  19.630  0.00  0.00    +0.000 A 
BRANCH   8  11
ATOM     11  C   UNL     1      -0.005  10.079  19.293  0.00  0.00    +0.000 A 
ATOM     12  C   UNL     1      -0.967  10.404  18.327  0.00  0.00    +0.000 A 
ATOM     13  C   UNL     1      -1.954  11.328  18.624  0.00  0.00    +0.000 A 
ATOM     14  N   UNL     1      -2.067  11.946  19.816  0.00  0.00    +0.000 NA
ATOM     15  C   UNL     1      -1.143  11.624  20.745  0.00  0.00    +0.000 A 
ATOM     16  C   UNL     1      -0.111  10.720  20.536  0.00  0.00    +0.000 A 
ENDBRANCH   8  11
ENDBRANCH   3   5
BRANCH   2  17
ATOM     17  C   UNL     1       6.381   5.505  17.333  0.00  0.00    +0.000 C 
ATOM     18  C   UNL     1       6.776   5.394  15.862  0.00  0.00    +0.000 C 
ATOM     19  C   UNL     1       5.603   4.911  15.020  0.00  0.00    +0.000 C 
ATOM     20  C   UNL     1       5.011   3.615  15.580  0.00  0.00    +0.000 C 
ATOM     21  N   UNL     1       4.646   3.703  17.012  0.00  0.00    +0.000 NA
ATOM     22  C   UNL     1       5.788   4.183  17.832  0.00  0.00    +0.000 C 
BRANCH  21  23
ATOM     23  C   UNL     1       4.239   2.375  17.531  0.00  0.00    +0.000 C 
BRANCH  23  24
ATOM     24  C   UNL     1       3.348   2.417  18.753  0.00  0.00    +0.000 A 
ATOM     25  C   UNL     1       3.913   2.382  20.041  0.00  0.00    +0.000 A 
ATOM     26  C   UNL     1       3.103   2.474  21.177  0.00  0.00    +0.000 A 
ATOM     27  C   UNL     1       1.728   2.606  21.029  0.00  0.00    +0.000 A 
ATOM     28  F   UNL     1       0.958   2.715  22.120  0.00  0.00    +0.000 F 
ATOM     29  C   UNL     1       1.158   2.631  19.763  0.00  0.00    +0.000 A 
ATOM     30  F   UNL     1      -0.168   2.764  19.623  0.00  0.00    +0.000 F 
ATOM     31  C   UNL     1       1.955   2.535  18.626  0.00  0.00    +0.000 A 
ENDBRANCH  23  24
ENDBRANCH  21  23
ENDBRANCH   2  17
TORSDOF 5
ENDMDL
MODEL 5
REMARK VINA RESULT:      -7.9      7.489     10.329
REMARK  Name = 
REMARK  5 active torsions:
REMARK  status: ('A' for Active; 'I' for Inactive)
REMARK    1  A    between atoms: C_2  and  C_16
REMARK    2  A    between atoms: N_3  and  C_4
REMARK    3  A    between atoms: C_7  and  C_8
REMARK    4  A    between atoms: N_20  and  C_21
REMARK    5  A    between atoms: C_21  and  C_22
REMARK                            x       y       z     vdW  Elec       q    Type
REMARK                         _______ _______ _______ _____ _____    ______ ____
ROOT
ATOM      1  O   UNL     1       8.378   6.990  18.987  0.00  0.00    +0.000 OA
ATOM      2  C   UNL     1       7.792   7.323  17.962  0.00  0.00    +0.000 C 
ATOM      3  N   UNL     1       7.713   8.606  17.451  0.00  0.00    +0.000 N 
ATOM      4  H   UNL     1       7.110   8.731  16.638  0.00  0.00    +0.000 HD
ENDROOT
BRANCH   3   5
ATOM      5  C   UNL     1       8.322   9.760  17.968  0.00  0.00    +0.000 A 
ATOM      6  C   UNL     1       8.107  11.030  17.444  0.00  0.00    +0.000 A 
ATOM      7  C   UNL     1       8.750  12.143  17.992  0.00  0.00    +0.000 A 
ATOM      8  C   UNL     1       9.624  12.028  19.085  0.00  0.00    +0.000 A 
ATOM      9  C   UNL     1       9.815  10.742  19.619  0.00  0.00    +0.000 A 
ATOM     10  C   UNL     1       9.167   9.624  19.074  0.00  0.00    +0.000 A 
BRANCH   8  11
ATOM     11  C   UNL     1      10.304  13.219  19.637  0.00  0.00    +0.000 A 
ATOM     12  C   UNL     1       9.816  13.878  20.774  0.00  0.00    +0.000 A 
ATOM     13  C   UNL     1      10.457  15.013  21.238  0.00  0.00    +0.000 A 
ATOM     14  N   UNL     1      11.558  15.539  20.666  0.00  0.00    +0.000 NA
ATOM     15  C   UNL     1      12.028  14.897  19.576  0.00  0.00    +0.000 A 
ATOM     16  C   UNL     1      11.447  13.761  19.031  0.00  0.00    +0.000 A 
ENDBRANCH   8  11
ENDBRANCH   3   5
BRANCH   2  17
ATOM     17  C   UNL     1       7.131   6.248  17.096  0.00  0.00    +0.000 C 
ATOM     18  C   UNL     1       5.911   6.804  16.366  0.00  0.00    +0.000 C 
ATOM     19  C   UNL     1       4.742   6.986  17.323  0.00  0.00    +0.000 C 
ATOM     20  C   UNL     1       4.442   5.696  18.091  0.00  0.00    +0.000 C 
ATOM     21  N   UNL     1       5.623   5.135  18.785  0.00  0.00    +0.000 NA
ATOM     22  C   UNL     1       6.767   4.965  17.851  0.00  0.00    +0.000 C 
BRANCH  21  23
ATOM     23  C   UNL     1       5.308   3.807  19.364  0.00  0.00    +0.000 C 
BRANCH  23  24
ATOM     24  C   UNL     1       3.882   3.345  19.155  0.00  0.00    +0.000 A 
ATOM     25  C   UNL     1       3.531   2.648  17.984  0.00  0.00    +0.000 A 
ATOM     26  C   UNL     1       2.230   2.170  17.804  0.00  0.00    +0.000 A 
ATOM     27  C   UNL     1       1.279   2.382  18.794  0.00  0.00    +0.000 A 
ATOM     28  F   UNL     1       0.038   1.902  18.627  0.00  0.00    +0.000 F 
ATOM     29  C   UNL     1       1.612   3.076  19.950  0.00  0.00    +0.000 A 
ATOM     30  F   UNL     1       0.694   3.274  20.906  0.00  0.00    +0.000 F 
ATOM     31  C   UNL     1       2.903   3.561  20.136  0.00  0.00    +0.000 A 
ENDBRANCH  23  24
ENDBRANCH  21  23
ENDBRANCH   2  17
TORSDOF 5
ENDMDL
MODEL 6
REMARK VINA RESULT:      -7.9      0.629      1.163
REMARK  Name = 
REMARK  5 active torsions:
REMARK  status: ('A' for Active; 'I' for Inactive)
REMARK    1  A    between atoms: C_2  and  C_16
REMARK    2  A    between atoms: N_3  and  C_4
REMARK    3  A    between atoms: C_7  and  C_8
REMARK    4  A    between atoms: N_20  and  C_21
REMARK    5  A    between atoms: C_21  and  C_22
REMARK                            x       y       z     vdW  Elec       q    Type
REMARK                         _______ _______ _______ _____ _____    ______ ____
ROOT
ATOM      1  O   UNL     1       2.245  12.597  20.173  0.00  0.00    +0.000 OA
ATOM      2  C   UNL     1       1.076  12.457  19.827  0.00  0.00    +0.000 C 
ATOM      3  N   UNL     1       0.509  11.296  19.334  0.00  0.00    +0.000 N 
ATOM      4  H   UNL     1      -0.454  11.370  19.004  0.00  0.00    +0.000 HD
ENDROOT
BRANCH   3   5
ATOM      5  C   UNL     1       1.134  10.049  19.181  0.00  0.00    +0.000 A 
ATOM      6  C   UNL     1       1.191   9.101  20.196  0.00  0.00    +0.000 A 
ATOM      7  C   UNL     1       1.838   7.879  19.992  0.00  0.00    +0.000 A 
ATOM      8  C   UNL     1       2.443   7.559  18.766  0.00  0.00    +0.000 A 
ATOM      9  C   UNL     1       2.359   8.518  17.742  0.00  0.00    +0.000 A 
ATOM     10  C   UNL     1       1.706   9.743  17.943  0.00  0.00    +0.000 A 
BRANCH   8  11
ATOM     11  C   UNL     1       3.135   6.266  18.580  0.00  0.00    +0.000 A 
ATOM     12  C   UNL     1       3.792   5.955  17.382  0.00  0.00    +0.000 A 
ATOM     13  C   UNL     1       4.396   4.719  17.230  0.00  0.00    +0.000 A 
ATOM     14  N   UNL     1       4.409   3.769  18.186  0.00  0.00    +0.000 NA
ATOM     15  C   UNL     1       3.781   4.076  19.340  0.00  0.00    +0.000 A 
ATOM     16  C   UNL     1       3.139   5.283  19.580  0.00  0.00    +0.000 A 
ENDBRANCH   8  11
ENDBRANCH   3   5
BRANCH   2  17
ATOM     17  C   UNL     1       0.100  13.623  20.002  0.00  0.00    +0.000 C 
ATOM     18  C   UNL     1       0.124  14.149  21.435  0.00  0.00    +0.000 C 
ATOM     19  C   UNL     1      -0.592  13.191  22.377  0.00  0.00    +0.000 C 
ATOM     20  C   UNL     1      -2.005  12.873  21.880  0.00  0.00    +0.000 C 
ATOM     21  N   UNL     1      -2.043  12.383  20.484  0.00  0.00    +0.000 NA
ATOM     22  C   UNL     1      -1.336  13.314  19.566  0.00  0.00    +0.000 C 
BRANCH  21  23
ATOM     23  C   UNL     1      -3.443  12.255  20.012  0.00  0.00    +0.000 C 
BRANCH  23  24
ATOM     24  C   UNL     1      -3.595  11.661  18.629  0.00  0.00    +0.000 A 
ATOM     25  C   UNL     1      -4.675  12.042  17.811  0.00  0.00    +0.000 A 
ATOM     26  C   UNL     1      -4.796  11.541  16.512  0.00  0.00    +0.000 A 
ATOM     27  C   UNL     1      -3.836  10.663  16.024  0.00  0.00    +0.000 A 
ATOM     28  F   UNL     1      -3.944  10.202  14.770  0.00  0.00    +0.000 F 
ATOM     29  C   UNL     1      -2.771  10.272  16.825  0.00  0.00    +0.000 A 
ATOM     30  F   UNL     1      -1.844   9.429  16.350  0.00  0.00    +0.000 F 
ATOM     31  C   UNL     1      -2.645  10.761  18.122  0.00  0.00    +0.000 A 
ENDBRANCH  23  24
ENDBRANCH  21  23
ENDBRANCH   2  17
TORSDOF 5
ENDMDL
MODEL 7
REMARK VINA RESULT:      -7.8      4.367      9.605
REMARK  Name = 
REMARK  5 active torsions:
REMARK  status: ('A' for Active; 'I' for Inactive)
REMARK    1  A    between atoms: C_2  and  C_16
REMARK    2  A    between atoms: N_3  and  C_4
REMARK    3  A    between atoms: C_7  and  C_8
REMARK    4  A    between atoms: N_20  and  C_21
REMARK    5  A    between atoms: C_21  and  C_22
REMARK                            x       y       z     vdW  Elec       q    Type
REMARK                         _______ _______ _______ _____ _____    ______ ____
ROOT
ATOM      1  O   UNL     1       0.801   4.573  17.530  0.00  0.00    +0.000 OA
ATOM      2  C   UNL     1       2.013   4.596  17.720  0.00  0.00    +0.000 C 
ATOM      3  N   UNL     1       2.704   5.554  18.441  0.00  0.00    +0.000 N 
ATOM      4  H   UNL     1       3.721   5.480  18.427  0.00  0.00    +0.000 HD
ENDROOT
BRANCH   3   5
ATOM      5  C   UNL     1       2.159   6.646  19.133  0.00  0.00    +0.000 A 
ATOM      6  C   UNL     1       1.764   6.579  20.464  0.00  0.00    +0.000 A 
ATOM      7  C   UNL     1       1.216   7.696  21.100  0.00  0.00    +0.000 A 
ATOM      8  C   UNL     1       1.050   8.920  20.432  0.00  0.00    +0.000 A 
ATOM      9  C   UNL     1       1.474   8.980  19.093  0.00  0.00    +0.000 A 
ATOM     10  C   UNL     1       2.029   7.862  18.454  0.00  0.00    +0.000 A 
BRANCH   8  11
ATOM     11  C   UNL     1       0.453  10.083  21.123  0.00  0.00    +0.000 A 
ATOM     12  C   UNL     1       0.668  11.391  20.669  0.00  0.00    +0.000 A 
ATOM     13  C   UNL     1       0.125  12.458  21.364  0.00  0.00    +0.000 A 
ATOM     14  N   UNL     1      -0.630  12.323  22.472  0.00  0.00    +0.000 NA
ATOM     15  C   UNL     1      -0.839  11.061  22.901  0.00  0.00    +0.000 A 
ATOM     16  C   UNL     1      -0.327   9.932  22.277  0.00  0.00    +0.000 A 
ENDBRANCH   8  11
ENDBRANCH   3   5
BRANCH   2  17
ATOM     17  C   UNL     1       2.875   3.447  17.191  0.00  0.00    +0.000 C 
ATOM     18  C   UNL     1       2.703   2.193  18.045  0.00  0.00    +0.000 C 
ATOM     19  C   UNL     1       3.423   2.340  19.377  0.00  0.00    +0.000 C 
ATOM     20  C   UNL     1       4.891   2.731  19.177  0.00  0.00    +0.000 C 
ATOM     21  N   UNL     1       5.071   3.933  18.332  0.00  0.00    +0.000 NA
ATOM     22  C   UNL     1       4.359   3.792  17.035  0.00  0.00    +0.000 C 
BRANCH  21  23
ATOM     23  C   UNL     1       6.507   4.157  18.041  0.00  0.00    +0.000 C 
BRANCH  23  24
ATOM     24  C   UNL     1       6.903   5.608  17.876  0.00  0.00    +0.000 A 
ATOM     25  C   UNL     1       6.239   6.419  16.938  0.00  0.00    +0.000 A 
ATOM     26  C   UNL     1       6.560   7.774  16.814  0.00  0.00    +0.000 A 
ATOM     27  C   UNL     1       7.540   8.323  17.631  0.00  0.00    +0.000 A 
ATOM     28  F   UNL     1       7.829   9.628  17.525  0.00  0.00    +0.000 F 
ATOM     29  C   UNL     1       8.208   7.531  18.555  0.00  0.00    +0.000 A 
ATOM     30  F   UNL     1       9.150   8.064  19.346  0.00  0.00    +0.000 F 
ATOM     31  C   UNL     1       7.900   6.179  18.682  0.00  0.00    +0.000 A 
ENDBRANCH  23  24
ENDBRANCH  21  23
ENDBRANCH   2  17
TORSDOF 5
ENDMDL
MODEL 8
REMARK VINA RESULT:      -7.7      1.114      1.475
REMARK  Name = 
REMARK  5 active torsions:
REMARK  status: ('A' for Active; 'I' for Inactive)
REMARK    1  A    between atoms: C_2  and  C_16
REMARK    2  A    between atoms: N_3  and  C_4
REMARK    3  A    between atoms: C_7  and  C_8
REMARK    4  A    between atoms: N_20  and  C_21
REMARK    5  A    between atoms: C_21  and  C_22
REMARK                            x       y       z     vdW  Elec       q    Type
REMARK                         _______ _______ _______ _____ _____    ______ ____
ROOT
ATOM      1  O   UNL     1       0.424  10.586  22.474  0.00  0.00    +0.000 OA
ATOM      2  C   UNL     1       0.328  11.218  21.428  0.00  0.00    +0.000 C 
ATOM      3  N   UNL     1       0.714  10.779  20.174  0.00  0.00    +0.000 N 
ATOM      4  H   UNL     1       0.653  11.462  19.419  0.00  0.00    +0.000 HD
ENDROOT
BRANCH   3   5
ATOM      5  C   UNL     1       1.240   9.519  19.846  0.00  0.00    +0.000 A 
ATOM      6  C   UNL     1       1.350   8.482  20.764  0.00  0.00    +0.000 A 
ATOM      7  C   UNL     1       1.892   7.251  20.384  0.00  0.00    +0.000 A 
ATOM      8  C   UNL     1       2.337   7.012  19.074  0.00  0.00    +0.000 A 
ATOM      9  C   UNL     1       2.199   8.063  18.151  0.00  0.00    +0.000 A 
ATOM     10  C   UNL     1       1.650   9.297  18.528  0.00  0.00    +0.000 A 
BRANCH   8  11
ATOM     11  C   UNL     1       2.922   5.706  18.701  0.00  0.00    +0.000 A 
ATOM     12  C   UNL     1       3.709   5.561  17.551  0.00  0.00    +0.000 A 
ATOM     13  C   UNL     1       4.208   4.315  17.212  0.00  0.00    +0.000 A 
ATOM     14  N   UNL     1       3.995   3.200  17.939  0.00  0.00    +0.000 NA
ATOM     15  C   UNL     1       3.242   3.347  19.049  0.00  0.00    +0.000 A 
ATOM     16  C   UNL     1       2.691   4.552  19.462  0.00  0.00    +0.000 A 
ENDBRANCH   8  11
ENDBRANCH   3   5
BRANCH   2  17
ATOM     17  C   UNL     1      -0.338  12.596  21.446  0.00  0.00    +0.000 C 
ATOM     18  C   UNL     1      -0.921  12.907  22.822  0.00  0.00    +0.000 C 
ATOM     19  C   UNL     1      -2.193  12.107  23.066  0.00  0.00    +0.000 C 
ATOM     20  C   UNL     1      -3.201  12.303  21.930  0.00  0.00    +0.000 C 
ATOM     21  N   UNL     1      -2.640  12.027  20.589  0.00  0.00    +0.000 NA
ATOM     22  C   UNL     1      -1.394  12.801  20.355  0.00  0.00    +0.000 C 
BRANCH  21  23
ATOM     23  C   UNL     1      -3.611  12.395  19.530  0.00  0.00    +0.000 C 
BRANCH  23  24
ATOM     24  C   UNL     1      -3.477  11.608  18.244  0.00  0.00    +0.000 A 
ATOM     25  C   UNL     1      -4.418  11.776  17.212  0.00  0.00    +0.000 A 
ATOM     26  C   UNL     1      -4.275  11.095  16.000  0.00  0.00    +0.000 A 
ATOM     27  C   UNL     1      -3.189  10.248  15.814  0.00  0.00    +0.000 A 
ATOM     28  F   UNL     1      -3.044   9.613  14.643  0.00  0.00    +0.000 F 
ATOM     29  C   UNL     1      -2.259  10.066  16.830  0.00  0.00    +0.000 A 
ATOM     30  F   UNL     1      -1.210   9.253  16.646  0.00  0.00    +0.000 F 
ATOM     31  C   UNL     1      -2.396  10.736  18.042  0.00  0.00    +0.000 A 
ENDBRANCH  23  24
ENDBRANCH  21  23
ENDBRANCH   2  17
TORSDOF 5
ENDMDL
MODEL 9
REMARK VINA RESULT:      -7.6      7.223     10.461
REMARK  Name = 
REMARK  5 active torsions:
REMARK  status: ('A' for Active; 'I' for Inactive)
REMARK    1  A    between atoms: C_2  and  C_16
REMARK    2  A    between atoms: N_3  and  C_4
REMARK    3  A    between atoms: C_7  and  C_8
REMARK    4  A    between atoms: N_20  and  C_21
REMARK    5  A    between atoms: C_21  and  C_22
REMARK                            x       y       z     vdW  Elec       q    Type
REMARK                         _______ _______ _______ _____ _____    ______ ____
ROOT
ATOM      1  O   UNL     1       7.895   7.397  16.657  0.00  0.00    +0.000 OA
ATOM      2  C   UNL     1       7.820   7.191  17.864  0.00  0.00    +0.000 C 
ATOM      3  N   UNL     1       8.188   8.074  18.863  0.00  0.00    +0.000 N 
ATOM      4  H   UNL     1       8.150   7.716  19.817  0.00  0.00    +0.000 HD
ENDROOT
BRANCH   3   5
ATOM      5  C   UNL     1       8.666   9.383  18.699  0.00  0.00    +0.000 A 
ATOM      6  C   UNL     1       8.222  10.231  17.690  0.00  0.00    +0.000 A 
ATOM      7  C   UNL     1       8.743  11.522  17.567  0.00  0.00    +0.000 A 
ATOM      8  C   UNL     1       9.719  12.013  18.449  0.00  0.00    +0.000 A 
ATOM      9  C   UNL     1      10.142  11.153  19.477  0.00  0.00    +0.000 A 
ATOM     10  C   UNL     1       9.618   9.859  19.606  0.00  0.00    +0.000 A 
BRANCH   8  11
ATOM     11  C   UNL     1      10.265  13.377  18.287  0.00  0.00    +0.000 A 
ATOM     12  C   UNL     1      10.890  13.777  17.098  0.00  0.00    +0.000 A 
ATOM     13  C   UNL     1      11.425  15.050  16.997  0.00  0.00    +0.000 A 
ATOM     14  N   UNL     1      11.374  15.964  17.986  0.00  0.00    +0.000 NA
ATOM     15  C   UNL     1      10.765  15.576  19.126  0.00  0.00    +0.000 A 
ATOM     16  C   UNL     1      10.211  14.320  19.323  0.00  0.00    +0.000 A 
ENDBRANCH   8  11
ENDBRANCH   3   5
BRANCH   2  17
ATOM     17  C   UNL     1       7.205   5.881  18.362  0.00  0.00    +0.000 C 
ATOM     18  C   UNL     1       7.590   4.714  17.456  0.00  0.00    +0.000 C 
ATOM     19  C   UNL     1       6.821   4.768  16.144  0.00  0.00    +0.000 C 
ATOM     20  C   UNL     1       5.312   4.865  16.385  0.00  0.00    +0.000 C 
ATOM     21  N   UNL     1       4.928   5.980  17.280  0.00  0.00    +0.000 NA
ATOM     22  C   UNL     1       5.686   5.931  18.557  0.00  0.00    +0.000 C 
BRANCH  21  23
ATOM     23  C   UNL     1       3.483   5.916  17.605  0.00  0.00    +0.000 C 
BRANCH  23  24
ATOM     24  C   UNL     1       3.119   4.929  18.693  0.00  0.00    +0.000 A 
ATOM     25  C   UNL     1       2.772   5.390  19.976  0.00  0.00    +0.000 A 
ATOM     26  C   UNL     1       2.382   4.491  20.974  0.00  0.00    +0.000 A 
ATOM     27  C   UNL     1       2.334   3.132  20.690  0.00  0.00    +0.000 A 
ATOM     28  F   UNL     1       1.940   2.276  21.643  0.00  0.00    +0.000 F 
ATOM     29  C   UNL     1       2.684   2.665  19.430  0.00  0.00    +0.000 A 
ATOM     30  F   UNL     1       2.632   1.354  19.158  0.00  0.00    +0.000 F 
ATOM     31  C   UNL     1       3.079   3.551  18.432  0.00  0.00    +0.000 A 
ENDBRANCH  23  24
ENDBRANCH  21  23
ENDBRANCH   2  17
TORSDOF 5
ENDMDL
