MODEL 1
REMARK VINA RESULT:      -7.3      0.000      0.000
REMARK  Name = 
REMARK  6 active torsions:
REMARK  status: ('A' for Active; 'I' for Inactive)
REMARK    1  A    between atoms: C_1  and  C_2
REMARK    2  A    between atoms: C_2  and  C_3
REMARK    3  A    between atoms: C_2  and  N_4
REMARK    4  A    between atoms: N_4  and  C_5
REMARK    5  A    between atoms: C_14  and  C_16
REMARK    6  A    between atoms: C_16  and  C_17
REMARK                            x       y       z     vdW  Elec       q    Type
REMARK                         _______ _______ _______ _____ _____    ______ ____
ROOT
ATOM      1  C   UNL     1      -1.639  11.725  18.182  0.00  0.00    +0.000 A 
ATOM      2  N   UNL     1      -2.134  12.716  18.942  0.00  0.00    +0.000 NA
ATOM      3  C   UNL     1      -1.994  12.607  20.267  0.00  0.00    +0.000 A 
ATOM      4  N   UNL     1      -1.384  11.610  20.913  0.00  0.00    +0.000 NA
ATOM      5  C   UNL     1      -0.892  10.617  20.145  0.00  0.00    +0.000 A 
ATOM      6  C   UNL     1      -0.999  10.614  18.756  0.00  0.00    +0.000 A 
ATOM      7  C   UNL     1      -0.376   9.497  17.950  0.00  0.00    +0.000 C 
ATOM      8  C   UNL     1       1.160   9.490  18.069  0.00  0.00    +0.000 C 
ATOM      9  N   UNL     1       1.619   8.818  19.292  0.00  0.00    +0.000 N 
ATOM     10  C   UNL     1       2.133   7.523  19.342  0.00  0.00    +0.000 C 
ATOM     11  O   UNL     1       2.319   6.946  20.413  0.00  0.00    +0.000 OA
ATOM     12  C   UNL     1       1.326   9.498  20.562  0.00  0.00    +0.000 C 
ATOM     13  C   UNL     1      -0.166   9.520  20.895  0.00  0.00    +0.000 C 
ENDROOT
BRANCH   1  14
ATOM     14  N   UNL     1      -1.856  11.783  16.792  0.00  0.00    +0.000 N 
ATOM     15  H   UNL     1      -1.719  12.729  16.473  0.00  0.00    +0.000 HD
BRANCH  14  17
ATOM     16  C   UNL     1      -2.861  10.407  15.081  0.00  0.00    +0.000 C 
ATOM     17  C   UNL     1      -3.156  11.300  16.296  0.00  0.00    +0.000 C 
ATOM     18  C   UNL     1      -3.919  10.488  17.339  0.00  0.00    +0.000 C 
ENDBRANCH  14  17
ENDBRANCH   1  14
BRANCH  10  19
ATOM     19  C   UNL     1       2.464   6.844  18.016  0.00  0.00    +0.000 C 
BRANCH  19  20
ATOM     20  C   UNL     1       2.799   5.357  18.171  0.00  0.00    +0.000 C 
ATOM     21  C   UNL     1       1.683   4.433  17.683  0.00  0.00    +0.000 C 
ATOM     22  C   UNL     1       2.364   3.069  17.613  0.00  0.00    +0.000 C 
ATOM     23  C   UNL     1       3.828   3.359  17.279  0.00  0.00    +0.000 C 
ATOM     24  C   UNL     1       3.979   4.880  17.319  0.00  0.00    +0.000 C 
ENDBRANCH  19  20
ENDBRANCH  10  19
TORSDOF 4
ENDMDL
MODEL 2
REMARK VINA RESULT:      -7.2      5.805      9.207
REMARK  Name = 
REMARK  6 active torsions:
REMARK  status: ('A' for Active; 'I' for Inactive)
REMARK    1  A    between atoms: C_1  and  C_2
REMARK    2  A    between atoms: C_2  and  C_3
REMARK    3  A    between atoms: C_2  and  N_4
REMARK    4  A    between atoms: N_4  and  C_5
REMARK    5  A    between atoms: C_14  and  C_16
REMARK    6  A    between atoms: C_16  and  C_17
REMARK                            x       y       z     vdW  Elec       q    Type
REMARK                         _______ _______ _______ _____ _____    ______ ____
ROOT
ATOM      1  C   UNL     1       5.938   4.147  13.297  0.00  0.00    +0.000 A 
ATOM      2  N   UNL     1       6.978   4.366  12.474  0.00  0.00    +0.000 NA
ATOM      3  C   UNL     1       8.008   5.069  12.956  0.00  0.00    +0.000 A 
ATOM      4  N   UNL     1       8.114   5.561  14.193  0.00  0.00    +0.000 NA
ATOM      5  C   UNL     1       7.066   5.340  15.012  0.00  0.00    +0.000 A 
ATOM      6  C   UNL     1       5.931   4.639  14.612  0.00  0.00    +0.000 A 
ATOM      7  C   UNL     1       4.815   4.378  15.598  0.00  0.00    +0.000 C 
ATOM      8  C   UNL     1       5.267   3.460  16.749  0.00  0.00    +0.000 C 
ATOM      9  N   UNL     1       5.977   4.198  17.801  0.00  0.00    +0.000 N 
ATOM     10  C   UNL     1       5.420   4.577  19.022  0.00  0.00    +0.000 C 
ATOM     11  O   UNL     1       5.999   5.356  19.778  0.00  0.00    +0.000 OA
ATOM     12  C   UNL     1       7.300   4.734  17.446  0.00  0.00    +0.000 C 
ATOM     13  C   UNL     1       7.227   5.868  16.423  0.00  0.00    +0.000 C 
ENDROOT
BRANCH   1  14
ATOM     14  N   UNL     1       4.810   3.484  12.778  0.00  0.00    +0.000 N 
ATOM     15  H   UNL     1       4.639   2.648  13.314  0.00  0.00    +0.000 HD
BRANCH  14  17
ATOM     16  C   UNL     1       5.427   1.714  11.255  0.00  0.00    +0.000 C 
ATOM     17  C   UNL     1       4.840   3.130  11.348  0.00  0.00    +0.000 C 
ATOM     18  C   UNL     1       3.453   3.139  10.711  0.00  0.00    +0.000 C 
ENDBRANCH  14  17
ENDBRANCH   1  14
BRANCH  10  19
ATOM     19  C   UNL     1       4.062   3.985  19.391  0.00  0.00    +0.000 C 
BRANCH  19  20
ATOM     20  C   UNL     1       2.923   5.007  19.318  0.00  0.00    +0.000 C 
ATOM     21  C   UNL     1       2.515   5.554  20.686  0.00  0.00    +0.000 C 
ATOM     22  C   UNL     1       1.649   6.760  20.335  0.00  0.00    +0.000 C 
ATOM     23  C   UNL     1       2.208   7.296  19.016  0.00  0.00    +0.000 C 
ATOM     24  C   UNL     1       3.274   6.296  18.570  0.00  0.00    +0.000 C 
ENDBRANCH  19  20
ENDBRANCH  10  19
TORSDOF 4
ENDMDL
MODEL 3
REMARK VINA RESULT:      -7.1      6.201      9.289
REMARK  Name = 
REMARK  6 active torsions:
REMARK  status: ('A' for Active; 'I' for Inactive)
REMARK    1  A    between atoms: C_1  and  C_2
REMARK    2  A    between atoms: C_2  and  C_3
REMARK    3  A    between atoms: C_2  and  N_4
REMARK    4  A    between atoms: N_4  and  C_5
REMARK    5  A    between atoms: C_14  and  C_16
REMARK    6  A    between atoms: C_16  and  C_17
REMARK                            x       y       z     vdW  Elec       q    Type
REMARK                         _______ _______ _______ _____ _____    ______ ____
ROOT
ATOM      1  C   UNL     1       6.215   3.941  13.364  0.00  0.00    +0.000 A 
ATOM      2  N   UNL     1       7.179   4.319  12.509  0.00  0.00    +0.000 NA
ATOM      3  C   UNL     1       8.061   5.229  12.938  0.00  0.00    +0.000 A 
ATOM      4  N   UNL     1       8.088   5.786  14.152  0.00  0.00    +0.000 NA
ATOM      5  C   UNL     1       7.115   5.403  15.003  0.00  0.00    +0.000 A 
ATOM      6  C   UNL     1       6.132   4.479  14.658  0.00  0.00    +0.000 A 
ATOM      7  C   UNL     1       5.103   4.051  15.679  0.00  0.00    +0.000 C 
ATOM      8  C   UNL     1       5.742   3.289  16.855  0.00  0.00    +0.000 C 
ATOM      9  N   UNL     1       6.312   4.195  17.860  0.00  0.00    +0.000 N 
ATOM     10  C   UNL     1       5.710   4.513  19.078  0.00  0.00    +0.000 C 
ATOM     11  O   UNL     1       6.138   5.421  19.789  0.00  0.00    +0.000 OA
ATOM     12  C   UNL     1       7.499   4.961  17.454  0.00  0.00    +0.000 C 
ATOM     13  C   UNL     1       7.193   6.013  16.388  0.00  0.00    +0.000 C 
ENDROOT
BRANCH   1  14
ATOM     14  N   UNL     1       5.229   3.050  12.898  0.00  0.00    +0.000 N 
ATOM     15  H   UNL     1       5.360   2.151  13.334  0.00  0.00    +0.000 HD
BRANCH  14  17
ATOM     16  C   UNL     1       5.624   1.435  11.147  0.00  0.00    +0.000 C 
ATOM     17  C   UNL     1       5.132   2.860  11.441  0.00  0.00    +0.000 C 
ATOM     18  C   UNL     1       3.705   3.014  10.921  0.00  0.00    +0.000 C 
ENDBRANCH  14  17
ENDBRANCH   1  14
BRANCH  10  19
ATOM     19  C   UNL     1       4.499   3.687  19.502  0.00  0.00    +0.000 C 
BRANCH  19  20
ATOM     20  C   UNL     1       3.165   4.354  19.151  0.00  0.00    +0.000 C 
ATOM     21  C   UNL     1       3.331   5.689  18.426  0.00  0.00    +0.000 C 
ATOM     22  C   UNL     1       1.931   5.972  17.890  0.00  0.00    +0.000 C 
ATOM     23  C   UNL     1       1.311   4.600  17.620  0.00  0.00    +0.000 C 
ATOM     24  C   UNL     1       2.309   3.572  18.151  0.00  0.00    +0.000 C 
ENDBRANCH  19  20
ENDBRANCH  10  19
TORSDOF 4
ENDMDL
MODEL 4
REMARK VINA RESULT:      -7.1      3.223      5.349
REMARK  Name = 
REMARK  6 active torsions:
REMARK  status: ('A' for Active; 'I' for Inactive)
REMARK    1  A    between atoms: C_1  and  C_2
REMARK    2  A    between atoms: C_2  and  C_3
REMARK    3  A    between atoms: C_2  and  N_4
REMARK    4  A    between atoms: N_4  and  C_5
REMARK    5  A    between atoms: C_14  and  C_16
REMARK    6  A    between atoms: C_16  and  C_17
REMARK                            x       y       z     vdW  Elec       q    Type
REMARK                         _______ _______ _______ _____ _____    ______ ____
ROOT
ATOM      1  C   UNL     1       1.862   8.539  19.192  0.00  0.00    +0.000 A 
ATOM      2  N   UNL     1       1.342   8.556  20.431  0.00  0.00    +0.000 NA
ATOM      3  C   UNL     1       1.326   7.404  21.109  0.00  0.00    +0.000 A 
ATOM      4  N   UNL     1       1.799   6.231  20.678  0.00  0.00    +0.000 NA
ATOM      5  C   UNL     1       2.317   6.222  19.433  0.00  0.00    +0.000 A 
ATOM      6  C   UNL     1       2.368   7.357  18.628  0.00  0.00    +0.000 A 
ATOM      7  C   UNL     1       3.013   7.289  17.262  0.00  0.00    +0.000 C 
ATOM      8  C   UNL     1       4.522   6.996  17.353  0.00  0.00    +0.000 C 
ATOM      9  N   UNL     1       4.800   5.563  17.517  0.00  0.00    +0.000 N 
ATOM     10  C   UNL     1       5.230   4.714  16.498  0.00  0.00    +0.000 C 
ATOM     11  O   UNL     1       5.260   3.493  16.648  0.00  0.00    +0.000 OA
ATOM     12  C   UNL     1       4.406   4.962  18.800  0.00  0.00    +0.000 C 
ATOM     13  C   UNL     1       2.889   4.893  18.983  0.00  0.00    +0.000 C 
ENDROOT
BRANCH   1  14
ATOM     14  N   UNL     1       1.808   9.724  18.434  0.00  0.00    +0.000 N 
ATOM     15  H   UNL     1       2.745  10.049  18.256  0.00  0.00    +0.000 HD
BRANCH  14  17
ATOM     16  C   UNL     1       1.748  12.132  18.599  0.00  0.00    +0.000 C 
ATOM     17  C   UNL     1       1.018  10.838  18.987  0.00  0.00    +0.000 C 
ATOM     18  C   UNL     1      -0.404  10.881  18.435  0.00  0.00    +0.000 C 
ENDBRANCH  14  17
ENDBRANCH   1  14
BRANCH  10  19
ATOM     19  C   UNL     1       5.669   5.356  15.184  0.00  0.00    +0.000 C 
BRANCH  19  20
ATOM     20  C   UNL     1       6.174   4.336  14.158  0.00  0.00    +0.000 C 
ATOM     21  C   UNL     1       5.087   3.860  13.195  0.00  0.00    +0.000 C 
ATOM     22  C   UNL     1       5.878   3.156  12.097  0.00  0.00    +0.000 C 
ATOM     23  C   UNL     1       7.220   3.885  12.026  0.00  0.00    +0.000 C 
ATOM     24  C   UNL     1       7.222   4.882  13.185  0.00  0.00    +0.000 C 
ENDBRANCH  19  20
ENDBRANCH  10  19
TORSDOF 4
ENDMDL
MODEL 5
REMARK VINA RESULT:      -6.9      0.827      1.386
REMARK  Name = 
REMARK  6 active torsions:
REMARK  status: ('A' for Active; 'I' for Inactive)
REMARK    1  A    between atoms: C_1  and  C_2
REMARK    2  A    between atoms: C_2  and  C_3
REMARK    3  A    between atoms: C_2  and  N_4
REMARK    4  A    between atoms: N_4  and  C_5
REMARK    5  A    between atoms: C_14  and  C_16
REMARK    6  A    between atoms: C_16  and  C_17
REMARK                            x       y       z     vdW  Elec       q    Type
REMARK                         _______ _______ _______ _____ _____    ______ ____
ROOT
ATOM      1  C   UNL     1      -1.681  11.649  18.364  0.00  0.00    +0.000 A 
ATOM      2  N   UNL     1      -2.141  12.603  19.189  0.00  0.00    +0.000 NA
ATOM      3  C   UNL     1      -1.906  12.454  20.497  0.00  0.00    +0.000 A 
ATOM      4  N   UNL     1      -1.234  11.449  21.065  0.00  0.00    +0.000 NA
ATOM      5  C   UNL     1      -0.777  10.494  20.231  0.00  0.00    +0.000 A 
ATOM      6  C   UNL     1      -0.981  10.535  18.854  0.00  0.00    +0.000 A 
ATOM      7  C   UNL     1      -0.393   9.459  17.969  0.00  0.00    +0.000 C 
ATOM      8  C   UNL     1       1.147   9.482  17.981  0.00  0.00    +0.000 C 
ATOM      9  N   UNL     1       1.703   8.780  19.145  0.00  0.00    +0.000 N 
ATOM     10  C   UNL     1       2.246   7.495  19.115  0.00  0.00    +0.000 C 
ATOM     11  O   UNL     1       2.517   6.888  20.150  0.00  0.00    +0.000 OA
ATOM     12  C   UNL     1       1.487   9.411  20.455  0.00  0.00    +0.000 C 
ATOM     13  C   UNL     1       0.022   9.389  20.891  0.00  0.00    +0.000 C 
ENDROOT
BRANCH   1  14
ATOM     14  N   UNL     1      -1.995  11.748  16.995  0.00  0.00    +0.000 N 
ATOM     15  H   UNL     1      -2.231  12.703  16.776  0.00  0.00    +0.000 HD
BRANCH  14  17
ATOM     16  C   UNL     1      -4.386  11.621  16.683  0.00  0.00    +0.000 C 
ATOM     17  C   UNL     1      -3.061  10.868  16.487  0.00  0.00    +0.000 C 
ATOM     18  C   UNL     1      -2.891  10.531  15.008  0.00  0.00    +0.000 C 
ENDBRANCH  14  17
ENDBRANCH   1  14
BRANCH  10  19
ATOM     19  C   UNL     1       2.496   6.868  17.746  0.00  0.00    +0.000 C 
BRANCH  19  20
ATOM     20  C   UNL     1       3.852   6.161  17.651  0.00  0.00    +0.000 C 
ATOM     21  C   UNL     1       3.736   4.679  17.293  0.00  0.00    +0.000 C 
ATOM     22  C   UNL     1       5.166   4.296  16.923  0.00  0.00    +0.000 C 
ATOM     23  C   UNL     1       5.790   5.563  16.334  0.00  0.00    +0.000 C 
ATOM     24  C   UNL     1       4.756   6.672  16.525  0.00  0.00    +0.000 C 
ENDBRANCH  19  20
ENDBRANCH  10  19
TORSDOF 4
ENDMDL
MODEL 6
REMARK VINA RESULT:      -6.8      2.993      8.200
REMARK  Name = 
REMARK  6 active torsions:
REMARK  status: ('A' for Active; 'I' for Inactive)
REMARK    1  A    between atoms: C_1  and  C_2
REMARK    2  A    between atoms: C_2  and  C_3
REMARK    3  A    between atoms: C_2  and  N_4
REMARK    4  A    between atoms: N_4  and  C_5
REMARK    5  A    between atoms: C_14  and  C_16
REMARK    6  A    between atoms: C_16  and  C_17
REMARK                            x       y       z     vdW  Elec       q    Type
REMARK                         _______ _______ _______ _____ _____    ______ ____
ROOT
ATOM      1  C   UNL     1       4.098   3.735  17.442  0.00  0.00    +0.000 A 
ATOM      2  N   UNL     1       4.079   2.406  17.637  0.00  0.00    +0.000 NA
ATOM      3  C   UNL     1       3.665   1.963  18.829  0.00  0.00    +0.000 A 
ATOM      4  N   UNL     1       3.244   2.720  19.846  0.00  0.00    +0.000 NA
ATOM      5  C   UNL     1       3.268   4.053  19.644  0.00  0.00    +0.000 A 
ATOM      6  C   UNL     1       3.700   4.627  18.451  0.00  0.00    +0.000 A 
ATOM      7  C   UNL     1       3.649   6.128  18.270  0.00  0.00    +0.000 C 
ATOM      8  C   UNL     1       2.204   6.659  18.280  0.00  0.00    +0.000 C 
ATOM      9  N   UNL     1       1.687   6.840  19.642  0.00  0.00    +0.000 N 
ATOM     10  C   UNL     1       1.586   8.067  20.298  0.00  0.00    +0.000 C 
ATOM     11  O   UNL     1       1.330   8.134  21.500  0.00  0.00    +0.000 OA
ATOM     12  C   UNL     1       1.452   5.616  20.422  0.00  0.00    +0.000 C 
ATOM     13  C   UNL     1       2.744   4.889  20.793  0.00  0.00    +0.000 C 
ENDROOT
BRANCH   1  14
ATOM     14  N   UNL     1       4.613   4.220  16.225  0.00  0.00    +0.000 N 
ATOM     15  H   UNL     1       3.976   3.989  15.479  0.00  0.00    +0.000 HD
BRANCH  14  17
ATOM     16  C   UNL     1       6.083   3.967  14.326  0.00  0.00    +0.000 C 
ATOM     17  C   UNL     1       5.966   3.776  15.846  0.00  0.00    +0.000 C 
ATOM     18  C   UNL     1       7.063   4.580  16.537  0.00  0.00    +0.000 C 
ENDBRANCH  14  17
ENDBRANCH   1  14
BRANCH  10  19
ATOM     19  C   UNL     1       1.799   9.330  19.468  0.00  0.00    +0.000 C 
BRANCH  19  20
ATOM     20  C   UNL     1       0.574  10.250  19.451  0.00  0.00    +0.000 C 
ATOM     21  C   UNL     1       0.928  11.722  19.239  0.00  0.00    +0.000 C 
ATOM     22  C   UNL     1      -0.419  12.362  18.917  0.00  0.00    +0.000 C 
ATOM     23  C   UNL     1      -1.231  11.275  18.212  0.00  0.00    +0.000 C 
ATOM     24  C   UNL     1      -0.390  10.001  18.287  0.00  0.00    +0.000 C 
ENDBRANCH  19  20
ENDBRANCH  10  19
TORSDOF 4
ENDMDL
MODEL 7
REMARK VINA RESULT:      -6.7      6.755      9.368
REMARK  Name = 
REMARK  6 active torsions:
REMARK  status: ('A' for Active; 'I' for Inactive)
REMARK    1  A    between atoms: C_1  and  C_2
REMARK    2  A    between atoms: C_2  and  C_3
REMARK    3  A    between atoms: C_2  and  N_4
REMARK    4  A    between atoms: N_4  and  C_5
REMARK    5  A    between atoms: C_14  and  C_16
REMARK    6  A    between atoms: C_16  and  C_17
REMARK                            x       y       z     vdW  Elec       q    Type
REMARK                         _______ _______ _______ _____ _____    ______ ____
ROOT
ATOM      1  C   UNL     1       6.310   3.857  13.369  0.00  0.00    +0.000 A 
ATOM      2  N   UNL     1       7.237   4.331  12.521  0.00  0.00    +0.000 NA
ATOM      3  C   UNL     1       8.010   5.334  12.950  0.00  0.00    +0.000 A 
ATOM      4  N   UNL     1       7.963   5.901  14.159  0.00  0.00    +0.000 NA
ATOM      5  C   UNL     1       7.028   5.422  15.003  0.00  0.00    +0.000 A 
ATOM      6  C   UNL     1       6.155   4.394  14.658  0.00  0.00    +0.000 A 
ATOM      7  C   UNL     1       5.167   3.865  15.672  0.00  0.00    +0.000 C 
ATOM      8  C   UNL     1       5.871   3.187  16.862  0.00  0.00    +0.000 C 
ATOM      9  N   UNL     1       6.328   4.159  17.864  0.00  0.00    +0.000 N 
ATOM     10  C   UNL     1       5.682   4.419  19.072  0.00  0.00    +0.000 C 
ATOM     11  O   UNL     1       6.001   5.375  19.779  0.00  0.00    +0.000 OA
ATOM     12  C   UNL     1       7.430   5.045  17.462  0.00  0.00    +0.000 C 
ATOM     13  C   UNL     1       7.023   6.049  16.383  0.00  0.00    +0.000 C 
ENDROOT
BRANCH   1  14
ATOM     14  N   UNL     1       5.432   2.860  12.902  0.00  0.00    +0.000 N 
ATOM     15  H   UNL     1       5.703   1.970  13.289  0.00  0.00    +0.000 HD
BRANCH  14  17
ATOM     16  C   UNL     1       5.716   1.284  11.095  0.00  0.00    +0.000 C 
ATOM     17  C   UNL     1       5.293   2.720  11.443  0.00  0.00    +0.000 C 
ATOM     18  C   UNL     1       3.863   2.951  10.963  0.00  0.00    +0.000 C 
ENDBRANCH  14  17
ENDBRANCH   1  14
BRANCH  10  19
ATOM     19  C   UNL     1       4.563   3.470  19.492  0.00  0.00    +0.000 C 
BRANCH  19  20
ATOM     20  C   UNL     1       3.171   4.100  19.387  0.00  0.00    +0.000 C 
ATOM     21  C   UNL     1       2.136   3.174  18.748  0.00  0.00    +0.000 C 
ATOM     22  C   UNL     1       0.811   3.860  19.065  0.00  0.00    +0.000 C 
ATOM     23  C   UNL     1       1.028   4.574  20.401  0.00  0.00    +0.000 C 
ATOM     24  C   UNL     1       2.510   4.407  20.734  0.00  0.00    +0.000 C 
ENDBRANCH  19  20
ENDBRANCH  10  19
TORSDOF 4
ENDMDL
MODEL 8
REMARK VINA RESULT:      -6.6      3.174      8.119
REMARK  Name = 
REMARK  6 active torsions:
REMARK  status: ('A' for Active; 'I' for Inactive)
REMARK    1  A    between atoms: C_1  and  C_2
REMARK    2  A    between atoms: C_2  and  C_3
REMARK    3  A    between atoms: C_2  and  N_4
REMARK    4  A    between atoms: N_4  and  C_5
REMARK    5  A    between atoms: C_14  and  C_16
REMARK    6  A    between atoms: C_16  and  C_17
REMARK                            x       y       z     vdW  Elec       q    Type
REMARK                         _______ _______ _______ _____ _____    ______ ____
ROOT
ATOM      1  C   UNL     1       2.293   6.963  19.782  0.00  0.00    +0.000 A 
ATOM      2  N   UNL     1       3.119   6.650  18.770  0.00  0.00    +0.000 NA
ATOM      3  C   UNL     1       3.156   7.481  17.723  0.00  0.00    +0.000 A 
ATOM      4  N   UNL     1       2.460   8.614  17.595  0.00  0.00    +0.000 NA
ATOM      5  C   UNL     1       1.631   8.921  18.613  0.00  0.00    +0.000 A 
ATOM      6  C   UNL     1       1.495   8.119  19.743  0.00  0.00    +0.000 A 
ATOM      7  C   UNL     1       0.589   8.549  20.874  0.00  0.00    +0.000 C 
ATOM      8  C   UNL     1       1.092   9.835  21.556  0.00  0.00    +0.000 C 
ATOM      9  N   UNL     1       0.695  11.044  20.823  0.00  0.00    +0.000 N 
ATOM     10  C   UNL     1      -0.355  11.887  21.188  0.00  0.00    +0.000 C 
ATOM     11  O   UNL     1      -0.762  12.770  20.434  0.00  0.00    +0.000 OA
ATOM     12  C   UNL     1       1.329  11.255  19.514  0.00  0.00    +0.000 C 
ATOM     13  C   UNL     1       0.887  10.232  18.467  0.00  0.00    +0.000 C 
ENDROOT
BRANCH   1  14
ATOM     14  N   UNL     1       2.178   6.054  20.850  0.00  0.00    +0.000 N 
ATOM     15  H   UNL     1       2.941   6.199  21.494  0.00  0.00    +0.000 HD
BRANCH  14  17
ATOM     16  C   UNL     1       2.436   3.846  21.794  0.00  0.00    +0.000 C 
ATOM     17  C   UNL     1       2.113   4.622  20.508  0.00  0.00    +0.000 C 
ATOM     18  C   UNL     1       0.737   4.201  20.001  0.00  0.00    +0.000 C 
ENDBRANCH  14  17
ENDBRANCH   1  14
BRANCH  10  19
ATOM     19  C   UNL     1      -0.980  11.678  22.565  0.00  0.00    +0.000 C 
BRANCH  19  20
ATOM     20  C   UNL     1      -2.059  12.715  22.896  0.00  0.00    +0.000 C 
ATOM     21  C   UNL     1      -3.213  12.143  23.719  0.00  0.00    +0.000 C 
ATOM     22  C   UNL     1      -3.947  13.389  24.205  0.00  0.00    +0.000 C 
ATOM     23  C   UNL     1      -2.872  14.467  24.349  0.00  0.00    +0.000 C 
ATOM     24  C   UNL     1      -1.584  13.858  23.797  0.00  0.00    +0.000 C 
ENDBRANCH  19  20
ENDBRANCH  10  19
TORSDOF 4
ENDMDL
MODEL 9
REMARK VINA RESULT:      -6.6      2.283      2.912
REMARK  Name = 
REMARK  6 active torsions:
REMARK  status: ('A' for Active; 'I' for Inactive)
REMARK    1  A    between atoms: C_1  and  C_2
REMARK    2  A    between atoms: C_2  and  C_3
REMARK    3  A    between atoms: C_2  and  N_4
REMARK    4  A    between atoms: N_4  and  C_5
REMARK    5  A    between atoms: C_14  and  C_16
REMARK    6  A    between atoms: C_16  and  C_17
REMARK                            x       y       z     vdW  Elec       q    Type
REMARK                         _______ _______ _______ _____ _____    ______ ____
ROOT
ATOM      1  C   UNL     1      -0.802  12.588  20.801  0.00  0.00    +0.000 A 
ATOM      2  N   UNL     1      -1.197  13.243  21.904  0.00  0.00    +0.000 NA
ATOM      3  C   UNL     1      -1.299  12.540  23.037  0.00  0.00    +0.000 A 
ATOM      4  N   UNL     1      -1.023  11.241  23.183  0.00  0.00    +0.000 NA
ATOM      5  C   UNL     1      -0.629  10.589  22.070  0.00  0.00    +0.000 A 
ATOM      6  C   UNL     1      -0.508  11.215  20.832  0.00  0.00    +0.000 A 
ATOM      7  C   UNL     1      -0.007  10.438  19.636  0.00  0.00    +0.000 C 
ATOM      8  C   UNL     1       1.453   9.983  19.816  0.00  0.00    +0.000 C 
ATOM      9  N   UNL     1       1.559   8.756  20.614  0.00  0.00    +0.000 N 
ATOM     10  C   UNL     1       1.779   7.482  20.090  0.00  0.00    +0.000 C 
ATOM     11  O   UNL     1       1.665   6.473  20.784  0.00  0.00    +0.000 OA
ATOM     12  C   UNL     1       1.211   8.868  22.038  0.00  0.00    +0.000 C 
ATOM     13  C   UNL     1      -0.277   9.129  22.269  0.00  0.00    +0.000 C 
ENDROOT
BRANCH   1  14
ATOM     14  N   UNL     1      -0.773  13.295  19.584  0.00  0.00    +0.000 N 
ATOM     15  H   UNL     1      -0.670  12.643  18.822  0.00  0.00    +0.000 HD
BRANCH  14  17
ATOM     16  C   UNL     1       1.374  13.763  18.584  0.00  0.00    +0.000 C 
ATOM     17  C   UNL     1       0.246  14.350  19.445  0.00  0.00    +0.000 C 
ATOM     18  C   UNL     1      -0.297  15.607  18.771  0.00  0.00    +0.000 C 
ENDBRANCH  14  17
ENDBRANCH   1  14
BRANCH  10  19
ATOM     19  C   UNL     1       2.172   7.384  18.618  0.00  0.00    +0.000 C 
BRANCH  19  20
ATOM     20  C   UNL     1       3.211   6.291  18.348  0.00  0.00    +0.000 C 
ATOM     21  C   UNL     1       2.601   5.000  17.803  0.00  0.00    +0.000 C 
ATOM     22  C   UNL     1       3.815   4.225  17.299  0.00  0.00    +0.000 C 
ATOM     23  C   UNL     1       4.820   5.286  16.849  0.00  0.00    +0.000 C 
ATOM     24  C   UNL     1       4.221   6.634  17.249  0.00  0.00    +0.000 C 
ENDBRANCH  19  20
ENDBRANCH  10  19
TORSDOF 4
ENDMDL
