MODEL 1
REMARK VINA RESULT:      -8.4      0.000      0.000
REMARK  Name = 
REMARK  7 active torsions:
REMARK  status: ('A' for Active; 'I' for Inactive)
REMARK    1  A    between atoms: C_1  and  C_2
REMARK    2  A    between atoms: C_5  and  O_6
REMARK    3  A    between atoms: O_6  and  C_7
REMARK    4  A    between atoms: C_7  and  C_8
REMARK    5  A    between atoms: C_14  and  S_15
REMARK    6  A    between atoms: S_15  and  N_18
REMARK    7  A    between atoms: C_21  and  C_22
REMARK                            x       y       z     vdW  Elec       q    Type
REMARK                         _______ _______ _______ _____ _____    ______ ____
ROOT
ATOM      1  C   UNL     1       0.981   8.637  20.828  0.00  0.00    +0.000 C 
ATOM      2  O   UNL     1       0.339   8.943  21.834  0.00  0.00    +0.000 OA
ATOM      3  N   UNL     1       1.619   7.426  20.828  0.00  0.00    +0.000 N 
ATOM      4  C   UNL     1       2.345   6.886  19.806  0.00  0.00    +0.000 A 
ATOM      5  N   UNL     1       2.575   7.328  18.592  0.00  0.00    +0.000 NA
ATOM      6  N   UNL     1       3.378   6.459  17.870  0.00  0.00    +0.000 NA
ATOM      7  C   UNL     1       3.708   5.400  18.582  0.00  0.00    +0.000 A 
ATOM      8  S   UNL     1       3.092   5.394  20.181  0.00  0.00    +0.000 S 
ATOM      9  H   UNL     1       1.513   6.882  21.674  0.00  0.00    +0.000 HD
ENDROOT
BRANCH   7  10
ATOM     10  S   UNL     1       4.681   4.012  18.065  0.00  0.00    +0.000 S 
ATOM     11  O   UNL     1       5.113   3.396  19.303  0.00  0.00    +0.000 OA
ATOM     12  O   UNL     1       3.810   3.294  17.153  0.00  0.00    +0.000 OA
BRANCH  10  13
ATOM     13  N   UNL     1       6.061   4.440  17.187  0.00  0.00    +0.000 NA
ATOM     14  C   UNL     1       7.373   4.534  17.838  0.00  0.00    +0.000 C 
ATOM     15  C   UNL     1       7.624   5.956  18.299  0.00  0.00    +0.000 C 
ATOM     16  C   UNL     1       7.453   6.980  17.163  0.00  0.00    +0.000 C 
ATOM     17  C   UNL     1       7.407   8.390  17.756  0.00  0.00    +0.000 C 
ATOM     18  C   UNL     1       6.215   6.730  16.278  0.00  0.00    +0.000 C 
ATOM     19  C   UNL     1       5.955   5.261  15.972  0.00  0.00    +0.000 C 
ENDBRANCH  10  13
ENDBRANCH   7  10
BRANCH   1  20
ATOM     20  C   UNL     1       1.097   9.603  19.653  0.00  0.00    +0.000 C 
BRANCH  20  21
ATOM     21  O   UNL     1       0.161  10.657  19.828  0.00  0.00    +0.000 OA
BRANCH  21  26
ATOM     22  C   UNL     1      -4.314  11.146  16.366  0.00  0.00    +0.000 C 
ATOM     23  C   UNL     1      -3.132  10.981  17.275  0.00  0.00    +0.000 A 
ATOM     24  C   UNL     1      -3.007  11.748  18.436  0.00  0.00    +0.000 A 
ATOM     25  C   UNL     1      -1.888  11.603  19.260  0.00  0.00    +0.000 A 
ATOM     26  C   UNL     1      -0.886  10.685  18.947  0.00  0.00    +0.000 A 
ATOM     27  C   UNL     1      -1.001   9.919  17.787  0.00  0.00    +0.000 A 
ATOM     28  C   UNL     1      -2.119  10.067  16.956  0.00  0.00    +0.000 A 
ENDBRANCH  21  26
ENDBRANCH  20  21
ENDBRANCH   1  20
TORSDOF 5
ENDMDL
MODEL 2
REMARK VINA RESULT:      -8.2      2.390      3.499
REMARK  Name = 
REMARK  7 active torsions:
REMARK  status: ('A' for Active; 'I' for Inactive)
REMARK    1  A    between atoms: C_1  and  C_2
REMARK    2  A    between atoms: C_5  and  O_6
REMARK    3  A    between atoms: O_6  and  C_7
REMARK    4  A    between atoms: C_7  and  C_8
REMARK    5  A    between atoms: C_14  and  S_15
REMARK    6  A    between atoms: S_15  and  N_18
REMARK    7  A    between atoms: C_21  and  C_22
REMARK                            x       y       z     vdW  Elec       q    Type
REMARK                         _______ _______ _______ _____ _____    ______ ____
ROOT
ATOM      1  C   UNL     1       0.196   9.494  21.330  0.00  0.00    +0.000 C 
ATOM      2  O   UNL     1      -0.452   9.632  22.369  0.00  0.00    +0.000 OA
ATOM      3  N   UNL     1       0.911   8.336  21.177  0.00  0.00    +0.000 N 
ATOM      4  C   UNL     1       1.656   7.974  20.093  0.00  0.00    +0.000 A 
ATOM      5  N   UNL     1       1.842   8.576  18.941  0.00  0.00    +0.000 NA
ATOM      6  N   UNL     1       2.690   7.857  18.114  0.00  0.00    +0.000 NA
ATOM      7  C   UNL     1       3.097   6.743  18.688  0.00  0.00    +0.000 A 
ATOM      8  S   UNL     1       2.502   6.500  20.277  0.00  0.00    +0.000 S 
ATOM      9  H   UNL     1       0.850   7.687  21.950  0.00  0.00    +0.000 HD
ENDROOT
BRANCH   7  10
ATOM     10  S   UNL     1       4.150   5.495  17.999  0.00  0.00    +0.000 S 
ATOM     11  O   UNL     1       4.436   5.967  16.661  0.00  0.00    +0.000 OA
ATOM     12  O   UNL     1       5.217   5.360  18.974  0.00  0.00    +0.000 OA
BRANCH  10  13
ATOM     13  N   UNL     1       3.411   3.979  17.871  0.00  0.00    +0.000 NA
ATOM     14  C   UNL     1       1.965   3.860  17.647  0.00  0.00    +0.000 C 
ATOM     15  C   UNL     1       1.244   3.736  18.975  0.00  0.00    +0.000 C 
ATOM     16  C   UNL     1       1.804   2.595  19.843  0.00  0.00    +0.000 C 
ATOM     17  C   UNL     1       1.257   2.729  21.267  0.00  0.00    +0.000 C 
ATOM     18  C   UNL     1       3.345   2.528  19.865  0.00  0.00    +0.000 C 
ATOM     19  C   UNL     1       4.000   2.799  18.517  0.00  0.00    +0.000 C 
ENDBRANCH  10  13
ENDBRANCH   7  10
BRANCH   1  20
ATOM     20  C   UNL     1       0.235  10.603  20.283  0.00  0.00    +0.000 C 
BRANCH  20  21
ATOM     21  O   UNL     1      -1.077  11.115  20.104  0.00  0.00    +0.000 OA
BRANCH  21  26
ATOM     22  C   UNL     1      -3.745  10.450  15.135  0.00  0.00    +0.000 C 
ATOM     23  C   UNL     1      -3.033  10.590  16.448  0.00  0.00    +0.000 A 
ATOM     24  C   UNL     1      -3.511  11.455  17.435  0.00  0.00    +0.000 A 
ATOM     25  C   UNL     1      -2.824  11.597  18.643  0.00  0.00    +0.000 A 
ATOM     26  C   UNL     1      -1.660  10.869  18.890  0.00  0.00    +0.000 A 
ATOM     27  C   UNL     1      -1.173  10.006  17.908  0.00  0.00    +0.000 A 
ATOM     28  C   UNL     1      -1.858   9.868  16.694  0.00  0.00    +0.000 A 
ENDBRANCH  21  26
ENDBRANCH  20  21
ENDBRANCH   1  20
TORSDOF 5
ENDMDL
MODEL 3
REMARK VINA RESULT:      -8.2      1.983      3.408
REMARK  Name = 
REMARK  7 active torsions:
REMARK  status: ('A' for Active; 'I' for Inactive)
REMARK    1  A    between atoms: C_1  and  C_2
REMARK    2  A    between atoms: C_5  and  O_6
REMARK    3  A    between atoms: O_6  and  C_7
REMARK    4  A    between atoms: C_7  and  C_8
REMARK    5  A    between atoms: C_14  and  S_15
REMARK    6  A    between atoms: S_15  and  N_18
REMARK    7  A    between atoms: C_21  and  C_22
REMARK                            x       y       z     vdW  Elec       q    Type
REMARK                         _______ _______ _______ _____ _____    ______ ____
ROOT
ATOM      1  C   UNL     1       1.038   8.910  20.678  0.00  0.00    +0.000 C 
ATOM      2  O   UNL     1       0.449   9.221  21.714  0.00  0.00    +0.000 OA
ATOM      3  N   UNL     1       1.714   7.720  20.667  0.00  0.00    +0.000 N 
ATOM      4  C   UNL     1       2.394   7.177  19.614  0.00  0.00    +0.000 A 
ATOM      5  N   UNL     1       2.535   7.596  18.378  0.00  0.00    +0.000 NA
ATOM      6  N   UNL     1       3.321   6.735  17.629  0.00  0.00    +0.000 NA
ATOM      7  C   UNL     1       3.728   5.705  18.343  0.00  0.00    +0.000 A 
ATOM      8  S   UNL     1       3.210   5.719  19.976  0.00  0.00    +0.000 S 
ATOM      9  H   UNL     1       1.677   7.194  21.529  0.00  0.00    +0.000 HD
ENDROOT
BRANCH   7  10
ATOM     10  S   UNL     1       4.712   4.335  17.799  0.00  0.00    +0.000 S 
ATOM     11  O   UNL     1       4.740   4.464  16.358  0.00  0.00    +0.000 OA
ATOM     12  O   UNL     1       5.935   4.455  18.571  0.00  0.00    +0.000 OA
BRANCH  10  13
ATOM     13  N   UNL     1       4.043   2.828  18.175  0.00  0.00    +0.000 NA
ATOM     14  C   UNL     1       2.734   2.429  17.645  0.00  0.00    +0.000 C 
ATOM     15  C   UNL     1       1.642   2.794  18.631  0.00  0.00    +0.000 C 
ATOM     16  C   UNL     1       1.908   2.229  20.038  0.00  0.00    +0.000 C 
ATOM     17  C   UNL     1       0.953   2.888  21.036  0.00  0.00    +0.000 C 
ATOM     18  C   UNL     1       3.368   2.387  20.507  0.00  0.00    +0.000 C 
ATOM     19  C   UNL     1       4.403   2.134  19.419  0.00  0.00    +0.000 C 
ENDBRANCH  10  13
ENDBRANCH   7  10
BRANCH   1  20
ATOM     20  C   UNL     1       1.052   9.850  19.477  0.00  0.00    +0.000 C 
BRANCH  20  21
ATOM     21  O   UNL     1       0.157  10.925  19.722  0.00  0.00    +0.000 OA
BRANCH  21  26
ATOM     22  C   UNL     1      -4.775  11.276  16.929  0.00  0.00    +0.000 C 
ATOM     23  C   UNL     1      -3.471  11.147  17.660  0.00  0.00    +0.000 A 
ATOM     24  C   UNL     1      -3.213  11.906  18.804  0.00  0.00    +0.000 A 
ATOM     25  C   UNL     1      -1.985  11.797  19.461  0.00  0.00    +0.000 A 
ATOM     26  C   UNL     1      -1.004  10.922  18.997  0.00  0.00    +0.000 A 
ATOM     27  C   UNL     1      -1.252  10.164  17.853  0.00  0.00    +0.000 A 
ATOM     28  C   UNL     1      -2.480  10.277  17.189  0.00  0.00    +0.000 A 
ENDBRANCH  21  26
ENDBRANCH  20  21
ENDBRANCH   1  20
TORSDOF 5
ENDMDL
MODEL 4
REMARK VINA RESULT:      -8.1      2.802      4.508
REMARK  Name = 
REMARK  7 active torsions:
REMARK  status: ('A' for Active; 'I' for Inactive)
REMARK    1  A    between atoms: C_1  and  C_2
REMARK    2  A    between atoms: C_5  and  O_6
REMARK    3  A    between atoms: O_6  and  C_7
REMARK    4  A    between atoms: C_7  and  C_8
REMARK    5  A    between atoms: C_14  and  S_15
REMARK    6  A    between atoms: S_15  and  N_18
REMARK    7  A    between atoms: C_21  and  C_22
REMARK                            x       y       z     vdW  Elec       q    Type
REMARK                         _______ _______ _______ _____ _____    ______ ____
ROOT
ATOM      1  C   UNL     1       1.727   9.728  18.173  0.00  0.00    +0.000 C 
ATOM      2  O   UNL     1       1.578  10.800  17.584  0.00  0.00    +0.000 OA
ATOM      3  N   UNL     1       2.686   8.873  17.700  0.00  0.00    +0.000 N 
ATOM      4  C   UNL     1       3.033   7.663  18.229  0.00  0.00    +0.000 A 
ATOM      5  N   UNL     1       2.605   7.044  19.304  0.00  0.00    +0.000 NA
ATOM      6  N   UNL     1       3.226   5.817  19.473  0.00  0.00    +0.000 NA
ATOM      7  C   UNL     1       4.097   5.578  18.514  0.00  0.00    +0.000 A 
ATOM      8  S   UNL     1       4.208   6.808  17.327  0.00  0.00    +0.000 S 
ATOM      9  H   UNL     1       3.193   9.199  16.888  0.00  0.00    +0.000 HD
ENDROOT
BRANCH   7  10
ATOM     10  S   UNL     1       5.150   4.163  18.339  0.00  0.00    +0.000 S 
ATOM     11  O   UNL     1       5.450   4.112  16.923  0.00  0.00    +0.000 OA
ATOM     12  O   UNL     1       6.208   4.394  19.305  0.00  0.00    +0.000 OA
BRANCH  10  13
ATOM     13  N   UNL     1       4.406   2.706  18.768  0.00  0.00    +0.000 NA
ATOM     14  C   UNL     1       3.372   2.107  17.916  0.00  0.00    +0.000 C 
ATOM     15  C   UNL     1       1.998   2.564  18.369  0.00  0.00    +0.000 C 
ATOM     16  C   UNL     1       1.757   2.303  19.867  0.00  0.00    +0.000 C 
ATOM     17  C   UNL     1       0.506   3.061  20.317  0.00  0.00    +0.000 C 
ATOM     18  C   UNL     1       2.957   2.667  20.765  0.00  0.00    +0.000 C 
ATOM     19  C   UNL     1       4.311   2.296  20.176  0.00  0.00    +0.000 C 
ENDBRANCH  10  13
ENDBRANCH   7  10
BRANCH   1  20
ATOM     20  C   UNL     1       0.832   9.355  19.351  0.00  0.00    +0.000 C 
BRANCH  20  21
ATOM     21  O   UNL     1       1.159  10.183  20.458  0.00  0.00    +0.000 OA
BRANCH  21  26
ATOM     22  C   UNL     1      -3.081  12.321  23.573  0.00  0.00    +0.000 C 
ATOM     23  C   UNL     1      -1.982  11.760  22.720  0.00  0.00    +0.000 A 
ATOM     24  C   UNL     1      -1.179  10.714  23.181  0.00  0.00    +0.000 A 
ATOM     25  C   UNL     1      -0.141  10.218  22.388  0.00  0.00    +0.000 A 
ATOM     26  C   UNL     1       0.103  10.747  21.121  0.00  0.00    +0.000 A 
ATOM     27  C   UNL     1      -0.691  11.795  20.655  0.00  0.00    +0.000 A 
ATOM     28  C   UNL     1      -1.728  12.298  21.452  0.00  0.00    +0.000 A 
ENDBRANCH  21  26
ENDBRANCH  20  21
ENDBRANCH   1  20
TORSDOF 5
ENDMDL
MODEL 5
REMARK VINA RESULT:      -8.1      1.080      1.481
REMARK  Name = 
REMARK  7 active torsions:
REMARK  status: ('A' for Active; 'I' for Inactive)
REMARK    1  A    between atoms: C_1  and  C_2
REMARK    2  A    between atoms: C_5  and  O_6
REMARK    3  A    between atoms: O_6  and  C_7
REMARK    4  A    between atoms: C_7  and  C_8
REMARK    5  A    between atoms: C_14  and  S_15
REMARK    6  A    between atoms: S_15  and  N_18
REMARK    7  A    between atoms: C_21  and  C_22
REMARK                            x       y       z     vdW  Elec       q    Type
REMARK                         _______ _______ _______ _____ _____    ______ ____
ROOT
ATOM      1  C   UNL     1       1.005   9.443  21.681  0.00  0.00    +0.000 C 
ATOM      2  O   UNL     1       0.642   9.750  22.818  0.00  0.00    +0.000 OA
ATOM      3  N   UNL     1       1.484   8.174  21.489  0.00  0.00    +0.000 N 
ATOM      4  C   UNL     1       1.897   7.628  20.308  0.00  0.00    +0.000 A 
ATOM      5  N   UNL     1       1.901   8.120  19.092  0.00  0.00    +0.000 NA
ATOM      6  N   UNL     1       2.418   7.220  18.174  0.00  0.00    +0.000 NA
ATOM      7  C   UNL     1       2.774   6.090  18.750  0.00  0.00    +0.000 A 
ATOM      8  S   UNL     1       2.532   6.046  20.445  0.00  0.00    +0.000 S 
ATOM      9  H   UNL     1       1.506   7.592  22.315  0.00  0.00    +0.000 HD
ENDROOT
BRANCH   7  10
ATOM     10  S   UNL     1       3.441   4.644  17.972  0.00  0.00    +0.000 S 
ATOM     11  O   UNL     1       4.006   3.879  19.064  0.00  0.00    +0.000 OA
ATOM     12  O   UNL     1       2.329   4.116  17.204  0.00  0.00    +0.000 OA
BRANCH  10  13
ATOM     13  N   UNL     1       4.682   4.977  16.872  0.00  0.00    +0.000 NA
ATOM     14  C   UNL     1       5.903   4.164  16.840  0.00  0.00    +0.000 C 
ATOM     15  C   UNL     1       6.964   4.788  17.726  0.00  0.00    +0.000 C 
ATOM     16  C   UNL     1       7.227   6.263  17.376  0.00  0.00    +0.000 C 
ATOM     17  C   UNL     1       8.058   6.906  18.490  0.00  0.00    +0.000 C 
ATOM     18  C   UNL     1       5.945   7.082  17.123  0.00  0.00    +0.000 C 
ATOM     19  C   UNL     1       4.872   6.335  16.342  0.00  0.00    +0.000 C 
ENDBRANCH  10  13
ENDBRANCH   7  10
BRANCH   1  20
ATOM     20  C   UNL     1       0.968  10.464  20.549  0.00  0.00    +0.000 C 
BRANCH  20  21
ATOM     21  O   UNL     1      -0.236  11.212  20.641  0.00  0.00    +0.000 OA
BRANCH  21  26
ATOM     22  C   UNL     1      -3.498  10.549  16.041  0.00  0.00    +0.000 C 
ATOM     23  C   UNL     1      -2.645  10.760  17.256  0.00  0.00    +0.000 A 
ATOM     24  C   UNL     1      -1.445  10.062  17.420  0.00  0.00    +0.000 A 
ATOM     25  C   UNL     1      -0.672  10.247  18.568  0.00  0.00    +0.000 A 
ATOM     26  C   UNL     1      -1.075  11.139  19.562  0.00  0.00    +0.000 A 
ATOM     27  C   UNL     1      -2.273  11.836  19.409  0.00  0.00    +0.000 A 
ATOM     28  C   UNL     1      -3.053  11.646  18.260  0.00  0.00    +0.000 A 
ENDBRANCH  21  26
ENDBRANCH  20  21
ENDBRANCH   1  20
TORSDOF 5
ENDMDL
MODEL 6
REMARK VINA RESULT:      -8.0      2.211      3.762
REMARK  Name = 
REMARK  7 active torsions:
REMARK  status: ('A' for Active; 'I' for Inactive)
REMARK    1  A    between atoms: C_1  and  C_2
REMARK    2  A    between atoms: C_5  and  O_6
REMARK    3  A    between atoms: O_6  and  C_7
REMARK    4  A    between atoms: C_7  and  C_8
REMARK    5  A    between atoms: C_14  and  S_15
REMARK    6  A    between atoms: S_15  and  N_18
REMARK    7  A    between atoms: C_21  and  C_22
REMARK                            x       y       z     vdW  Elec       q    Type
REMARK                         _______ _______ _______ _____ _____    ______ ____
ROOT
ATOM      1  C   UNL     1       2.000   9.886  18.137  0.00  0.00    +0.000 C 
ATOM      2  O   UNL     1       2.072  11.067  17.790  0.00  0.00    +0.000 OA
ATOM      3  N   UNL     1       2.981   9.037  17.703  0.00  0.00    +0.000 N 
ATOM      4  C   UNL     1       3.106   7.711  18.005  0.00  0.00    +0.000 A 
ATOM      5  N   UNL     1       2.391   6.941  18.791  0.00  0.00    +0.000 NA
ATOM      6  N   UNL     1       2.865   5.639  18.807  0.00  0.00    +0.000 NA
ATOM      7  C   UNL     1       3.921   5.498  18.032  0.00  0.00    +0.000 A 
ATOM      8  S   UNL     1       4.398   6.923  17.210  0.00  0.00    +0.000 S 
ATOM      9  H   UNL     1       3.689   9.458  17.117  0.00  0.00    +0.000 HD
ENDROOT
BRANCH   7  10
ATOM     10  S   UNL     1       4.883   4.033  17.773  0.00  0.00    +0.000 S 
ATOM     11  O   UNL     1       4.957   3.902  16.333  0.00  0.00    +0.000 OA
ATOM     12  O   UNL     1       6.086   4.262  18.552  0.00  0.00    +0.000 OA
BRANCH  10  13
ATOM     13  N   UNL     1       4.163   2.631  18.388  0.00  0.00    +0.000 NA
ATOM     14  C   UNL     1       2.962   2.062  17.764  0.00  0.00    +0.000 C 
ATOM     15  C   UNL     1       1.719   2.606  18.442  0.00  0.00    +0.000 C 
ATOM     16  C   UNL     1       1.746   2.403  19.967  0.00  0.00    +0.000 C 
ATOM     17  C   UNL     1       0.636   3.241  20.608  0.00  0.00    +0.000 C 
ATOM     18  C   UNL     1       3.107   2.730  20.616  0.00  0.00    +0.000 C 
ATOM     19  C   UNL     1       4.311   2.270  19.804  0.00  0.00    +0.000 C 
ENDBRANCH  10  13
ENDBRANCH   7  10
BRANCH   1  20
ATOM     20  C   UNL     1       0.825   9.391  18.976  0.00  0.00    +0.000 C 
BRANCH  20  21
ATOM     21  O   UNL     1       0.079  10.511  19.431  0.00  0.00    +0.000 OA
BRANCH  21  26
ATOM     22  C   UNL     1      -5.006  11.692  17.195  0.00  0.00    +0.000 C 
ATOM     23  C   UNL     1      -3.668  11.344  17.778  0.00  0.00    +0.000 A 
ATOM     24  C   UNL     1      -3.185  12.007  18.909  0.00  0.00    +0.000 A 
ATOM     25  C   UNL     1      -1.926  11.693  19.427  0.00  0.00    +0.000 A 
ATOM     26  C   UNL     1      -1.138  10.706  18.835  0.00  0.00    +0.000 A 
ATOM     27  C   UNL     1      -1.611  10.044  17.703  0.00  0.00    +0.000 A 
ATOM     28  C   UNL     1      -2.870  10.362  17.178  0.00  0.00    +0.000 A 
ENDBRANCH  21  26
ENDBRANCH  20  21
ENDBRANCH   1  20
TORSDOF 5
ENDMDL
MODEL 7
REMARK VINA RESULT:      -8.0      0.474      1.039
REMARK  Name = 
REMARK  7 active torsions:
REMARK  status: ('A' for Active; 'I' for Inactive)
REMARK    1  A    between atoms: C_1  and  C_2
REMARK    2  A    between atoms: C_5  and  O_6
REMARK    3  A    between atoms: O_6  and  C_7
REMARK    4  A    between atoms: C_7  and  C_8
REMARK    5  A    between atoms: C_14  and  S_15
REMARK    6  A    between atoms: S_15  and  N_18
REMARK    7  A    between atoms: C_21  and  C_22
REMARK                            x       y       z     vdW  Elec       q    Type
REMARK                         _______ _______ _______ _____ _____    ______ ____
ROOT
ATOM      1  C   UNL     1       1.158   8.590  20.785  0.00  0.00    +0.000 C 
ATOM      2  O   UNL     1       0.533   8.872  21.809  0.00  0.00    +0.000 OA
ATOM      3  N   UNL     1       1.745   7.354  20.722  0.00  0.00    +0.000 N 
ATOM      4  C   UNL     1       2.443   6.836  19.670  0.00  0.00    +0.000 A 
ATOM      5  N   UNL     1       2.687   7.328  18.477  0.00  0.00    +0.000 NA
ATOM      6  N   UNL     1       3.450   6.463  17.709  0.00  0.00    +0.000 NA
ATOM      7  C   UNL     1       3.738   5.357  18.366  0.00  0.00    +0.000 A 
ATOM      8  S   UNL     1       3.128   5.297  19.966  0.00  0.00    +0.000 S 
ATOM      9  H   UNL     1       1.619   6.774  21.540  0.00  0.00    +0.000 HD
ENDROOT
BRANCH   7  10
ATOM     10  S   UNL     1       4.650   3.957  17.775  0.00  0.00    +0.000 S 
ATOM     11  O   UNL     1       4.543   2.984  18.842  0.00  0.00    +0.000 OA
ATOM     12  O   UNL     1       4.069   3.686  16.473  0.00  0.00    +0.000 OA
BRANCH  10  13
ATOM     13  N   UNL     1       6.292   4.274  17.522  0.00  0.00    +0.000 NA
ATOM     14  C   UNL     1       7.173   4.633  18.639  0.00  0.00    +0.000 C 
ATOM     15  C   UNL     1       7.239   6.141  18.783  0.00  0.00    +0.000 C 
ATOM     16  C   UNL     1       7.634   6.840  17.470  0.00  0.00    +0.000 C 
ATOM     17  C   UNL     1       7.375   8.343  17.600  0.00  0.00    +0.000 C 
ATOM     18  C   UNL     1       6.917   6.278  16.225  0.00  0.00    +0.000 C 
ATOM     19  C   UNL     1       6.771   4.763  16.221  0.00  0.00    +0.000 C 
ENDBRANCH  10  13
ENDBRANCH   7  10
BRANCH   1  20
ATOM     20  C   UNL     1       1.310   9.607  19.659  0.00  0.00    +0.000 C 
BRANCH  20  21
ATOM     21  O   UNL     1       0.496  10.736  19.944  0.00  0.00    +0.000 OA
BRANCH  21  26
ATOM     22  C   UNL     1      -4.090  10.914  16.601  0.00  0.00    +0.000 C 
ATOM     23  C   UNL     1      -2.882  10.903  17.490  0.00  0.00    +0.000 A 
ATOM     24  C   UNL     1      -1.780  10.097  17.192  0.00  0.00    +0.000 A 
ATOM     25  C   UNL     1      -0.672  10.075  18.043  0.00  0.00    +0.000 A 
ATOM     26  C   UNL     1      -0.639  10.865  19.192  0.00  0.00    +0.000 A 
ATOM     27  C   UNL     1      -1.737  11.669  19.498  0.00  0.00    +0.000 A 
ATOM     28  C   UNL     1      -2.852  11.687  18.650  0.00  0.00    +0.000 A 
ENDBRANCH  21  26
ENDBRANCH  20  21
ENDBRANCH   1  20
TORSDOF 5
ENDMDL
MODEL 8
REMARK VINA RESULT:      -8.0      1.332      2.237
REMARK  Name = 
REMARK  7 active torsions:
REMARK  status: ('A' for Active; 'I' for Inactive)
REMARK    1  A    between atoms: C_1  and  C_2
REMARK    2  A    between atoms: C_5  and  O_6
REMARK    3  A    between atoms: O_6  and  C_7
REMARK    4  A    between atoms: C_7  and  C_8
REMARK    5  A    between atoms: C_14  and  S_15
REMARK    6  A    between atoms: S_15  and  N_18
REMARK    7  A    between atoms: C_21  and  C_22
REMARK                            x       y       z     vdW  Elec       q    Type
REMARK                         _______ _______ _______ _____ _____    ______ ____
ROOT
ATOM      1  C   UNL     1       0.134   9.424  21.516  0.00  0.00    +0.000 C 
ATOM      2  O   UNL     1      -0.564   9.600  22.516  0.00  0.00    +0.000 OA
ATOM      3  N   UNL     1       0.758   8.213  21.383  0.00  0.00    +0.000 N 
ATOM      4  C   UNL     1       1.538   7.807  20.339  0.00  0.00    +0.000 A 
ATOM      5  N   UNL     1       1.845   8.410  19.214  0.00  0.00    +0.000 NA
ATOM      6  N   UNL     1       2.681   7.636  18.425  0.00  0.00    +0.000 NA
ATOM      7  C   UNL     1       2.957   6.482  18.999  0.00  0.00    +0.000 A 
ATOM      8  S   UNL     1       2.245   6.264  20.542  0.00  0.00    +0.000 S 
ATOM      9  H   UNL     1       0.596   7.559  22.136  0.00  0.00    +0.000 HD
ENDROOT
BRANCH   7  10
ATOM     10  S   UNL     1       3.944   5.161  18.349  0.00  0.00    +0.000 S 
ATOM     11  O   UNL     1       4.301   4.376  19.512  0.00  0.00    +0.000 OA
ATOM     12  O   UNL     1       3.117   4.589  17.303  0.00  0.00    +0.000 OA
BRANCH  10  13
ATOM     13  N   UNL     1       5.374   5.683  17.612  0.00  0.00    +0.000 NA
ATOM     14  C   UNL     1       5.345   6.641  16.501  0.00  0.00    +0.000 C 
ATOM     15  C   UNL     1       5.318   5.900  15.178  0.00  0.00    +0.000 C 
ATOM     16  C   UNL     1       6.465   4.882  15.052  0.00  0.00    +0.000 C 
ATOM     17  C   UNL     1       6.197   3.965  13.856  0.00  0.00    +0.000 C 
ATOM     18  C   UNL     1       6.700   4.046  16.327  0.00  0.00    +0.000 C 
ATOM     19  C   UNL     1       6.576   4.838  17.622  0.00  0.00    +0.000 C 
ENDBRANCH  10  13
ENDBRANCH   7  10
BRANCH   1  20
ATOM     20  C   UNL     1       0.331  10.543  20.498  0.00  0.00    +0.000 C 
BRANCH  20  21
ATOM     21  O   UNL     1      -0.883  11.268  20.368  0.00  0.00    +0.000 OA
BRANCH  21  26
ATOM     22  C   UNL     1      -3.414  10.288  15.380  0.00  0.00    +0.000 C 
ATOM     23  C   UNL     1      -2.754  10.582  16.695  0.00  0.00    +0.000 A 
ATOM     24  C   UNL     1      -1.579   9.927  17.070  0.00  0.00    +0.000 A 
ATOM     25  C   UNL     1      -0.989  10.190  18.308  0.00  0.00    +0.000 A 
ATOM     26  C   UNL     1      -1.552  11.119  19.184  0.00  0.00    +0.000 A 
ATOM     27  C   UNL     1      -2.727  11.774  18.818  0.00  0.00    +0.000 A 
ATOM     28  C   UNL     1      -3.325  11.506  17.580  0.00  0.00    +0.000 A 
ENDBRANCH  21  26
ENDBRANCH  20  21
ENDBRANCH   1  20
TORSDOF 5
ENDMDL
MODEL 9
REMARK VINA RESULT:      -8.0      1.269      1.329
REMARK  Name = 
REMARK  7 active torsions:
REMARK  status: ('A' for Active; 'I' for Inactive)
REMARK    1  A    between atoms: C_1  and  C_2
REMARK    2  A    between atoms: C_5  and  O_6
REMARK    3  A    between atoms: O_6  and  C_7
REMARK    4  A    between atoms: C_7  and  C_8
REMARK    5  A    between atoms: C_14  and  S_15
REMARK    6  A    between atoms: S_15  and  N_18
REMARK    7  A    between atoms: C_21  and  C_22
REMARK                            x       y       z     vdW  Elec       q    Type
REMARK                         _______ _______ _______ _____ _____    ______ ____
ROOT
ATOM      1  C   UNL     1       1.173   9.381  21.474  0.00  0.00    +0.000 C 
ATOM      2  O   UNL     1       0.814   9.846  22.557  0.00  0.00    +0.000 OA
ATOM      3  N   UNL     1       1.405   8.033  21.408  0.00  0.00    +0.000 N 
ATOM      4  C   UNL     1       1.769   7.321  20.302  0.00  0.00    +0.000 A 
ATOM      5  N   UNL     1       1.938   7.700  19.056  0.00  0.00    +0.000 NA
ATOM      6  N   UNL     1       2.320   6.644  18.244  0.00  0.00    +0.000 NA
ATOM      7  C   UNL     1       2.415   5.519  18.924  0.00  0.00    +0.000 A 
ATOM      8  S   UNL     1       2.073   5.664  20.596  0.00  0.00    +0.000 S 
ATOM      9  H   UNL     1       1.266   7.529  22.273  0.00  0.00    +0.000 HD
ENDROOT
BRANCH   7  10
ATOM     10  S   UNL     1       2.829   3.913  18.300  0.00  0.00    +0.000 S 
ATOM     11  O   UNL     1       2.580   3.022  19.414  0.00  0.00    +0.000 OA
ATOM     12  O   UNL     1       2.050   3.799  17.081  0.00  0.00    +0.000 OA
BRANCH  10  13
ATOM     13  N   UNL     1       4.453   3.755  17.858  0.00  0.00    +0.000 NA
ATOM     14  C   UNL     1       5.527   3.978  18.834  0.00  0.00    +0.000 C 
ATOM     15  C   UNL     1       5.990   5.421  18.774  0.00  0.00    +0.000 C 
ATOM     16  C   UNL     1       6.385   5.852  17.350  0.00  0.00    +0.000 C 
ATOM     17  C   UNL     1       6.533   7.375  17.306  0.00  0.00    +0.000 C 
ATOM     18  C   UNL     1       5.402   5.378  16.260  0.00  0.00    +0.000 C 
ATOM     19  C   UNL     1       4.878   3.963  16.467  0.00  0.00    +0.000 C 
ENDBRANCH  10  13
ENDBRANCH   7  10
BRANCH   1  20
ATOM     20  C   UNL     1       1.401  10.293  20.272  0.00  0.00    +0.000 C 
BRANCH  20  21
ATOM     21  O   UNL     1       0.389  11.289  20.250  0.00  0.00    +0.000 OA
BRANCH  21  26
ATOM     22  C   UNL     1      -4.015  10.856  16.693  0.00  0.00    +0.000 C 
ATOM     23  C   UNL     1      -2.848  10.934  17.631  0.00  0.00    +0.000 A 
ATOM     24  C   UNL     1      -2.846  11.832  18.701  0.00  0.00    +0.000 A 
ATOM     25  C   UNL     1      -1.741  11.915  19.551  0.00  0.00    +0.000 A 
ATOM     26  C   UNL     1      -0.629  11.094  19.358  0.00  0.00    +0.000 A 
ATOM     27  C   UNL     1      -0.621  10.198  18.289  0.00  0.00    +0.000 A 
ATOM     28  C   UNL     1      -1.726  10.119  17.431  0.00  0.00    +0.000 A 
ENDBRANCH  21  26
ENDBRANCH  20  21
ENDBRANCH   1  20
TORSDOF 5
ENDMDL
