MODEL 1
REMARK VINA RESULT:      -7.1      0.000      0.000
REMARK  Name = 
REMARK  5 active torsions:
REMARK  status: ('A' for Active; 'I' for Inactive)
REMARK    1  A    between atoms: C_1  and  O_2
REMARK    2  A    between atoms: O_2  and  C_3
REMARK    3  A    between atoms: C_3  and  C_5
REMARK    4  A    between atoms: C_5  and  C_6
REMARK    5  A    between atoms: N_13  and  C_14
REMARK                            x       y       z     vdW  Elec       q    Type
REMARK                         _______ _______ _______ _____ _____    ______ ____
ROOT
ATOM      1  C   UNL     1       5.441   4.523  18.001  0.00  0.00    +0.000 C 
ATOM      2  C   UNL     1       4.554   5.532  17.796  0.00  0.00    +0.000 C 
ATOM      3  S   UNL     1       4.855   6.859  16.695  0.00  0.00    +0.000 S 
ATOM      4  C   UNL     1       3.684   7.955  17.507  0.00  0.00    +0.000 C 
ATOM      5  C   UNL     1       2.782   7.062  18.313  0.00  0.00    +0.000 C 
ATOM      6  O   UNL     1       1.730   7.474  18.791  0.00  0.00    +0.000 OA
ATOM      7  N   UNL     1       3.322   5.762  18.445  0.00  0.00    +0.000 N 
ENDROOT
BRANCH   7   8
ATOM      8  C   UNL     1       2.521   4.810  19.151  0.00  0.00    +0.000 A 
ATOM      9  C   UNL     1       2.466   4.840  20.555  0.00  0.00    +0.000 A 
ATOM     10  C   UNL     1       1.692   3.913  21.260  0.00  0.00    +0.000 A 
ATOM     11  C   UNL     1       0.941   2.968  20.565  0.00  0.00    +0.000 A 
ATOM     12  C   UNL     1       0.963   2.968  19.173  0.00  0.00    +0.000 A 
ATOM     13  F   UNL     1       0.214   2.080  18.506  0.00  0.00    +0.000 F 
ATOM     14  C   UNL     1       1.743   3.876  18.459  0.00  0.00    +0.000 A 
ENDBRANCH   7   8
BRANCH   1  15
ATOM     15  C   UNL     1       6.776   4.457  17.353  0.00  0.00    +0.000 C 
ATOM     16  O   UNL     1       6.974   4.356  16.153  0.00  0.00    +0.000 OA
BRANCH  15  18
ATOM     17  C   UNL     1       7.852   5.833  18.896  0.00  0.00    +0.000 C 
ATOM     18  O   UNL     1       7.763   4.541  18.283  0.00  0.00    +0.000 OA
ENDBRANCH  15  18
ENDBRANCH   1  15
BRANCH   1  19
ATOM     19  C   UNL     1       5.134   3.470  19.054  0.00  0.00    +0.000 C 
ATOM     20  N   UNL     1       4.880   2.597  19.928  0.00  0.00    +0.000 NA
ENDBRANCH   1  19
TORSDOF 4
ENDMDL
MODEL 2
REMARK VINA RESULT:      -7.1      0.684      1.254
REMARK  Name = 
REMARK  5 active torsions:
REMARK  status: ('A' for Active; 'I' for Inactive)
REMARK    1  A    between atoms: C_1  and  O_2
REMARK    2  A    between atoms: O_2  and  C_3
REMARK    3  A    between atoms: C_3  and  C_5
REMARK    4  A    between atoms: C_5  and  C_6
REMARK    5  A    between atoms: N_13  and  C_14
REMARK                            x       y       z     vdW  Elec       q    Type
REMARK                         _______ _______ _______ _____ _____    ______ ____
ROOT
ATOM      1  C   UNL     1       5.337   4.529  17.758  0.00  0.00    +0.000 C 
ATOM      2  C   UNL     1       4.463   5.565  17.660  0.00  0.00    +0.000 C 
ATOM      3  S   UNL     1       4.700   6.915  16.573  0.00  0.00    +0.000 S 
ATOM      4  C   UNL     1       3.635   8.015  17.516  0.00  0.00    +0.000 C 
ATOM      5  C   UNL     1       2.785   7.121  18.376  0.00  0.00    +0.000 C 
ATOM      6  O   UNL     1       1.791   7.544  18.957  0.00  0.00    +0.000 OA
ATOM      7  N   UNL     1       3.300   5.804  18.424  0.00  0.00    +0.000 N 
ENDROOT
BRANCH   7   8
ATOM      8  C   UNL     1       2.541   4.853  19.174  0.00  0.00    +0.000 A 
ATOM      9  C   UNL     1       2.580   4.870  20.579  0.00  0.00    +0.000 A 
ATOM     10  C   UNL     1       1.848   3.942  21.325  0.00  0.00    +0.000 A 
ATOM     11  C   UNL     1       1.044   3.009  20.674  0.00  0.00    +0.000 A 
ATOM     12  C   UNL     1       0.973   3.022  19.284  0.00  0.00    +0.000 A 
ATOM     13  F   UNL     1       0.173   2.146  18.661  0.00  0.00    +0.000 F 
ATOM     14  C   UNL     1       1.710   3.931  18.528  0.00  0.00    +0.000 A 
ENDBRANCH   7   8
BRANCH   1  15
ATOM     15  C   UNL     1       6.607   4.450  16.991  0.00  0.00    +0.000 C 
ATOM     16  O   UNL     1       7.695   4.842  17.384  0.00  0.00    +0.000 OA
BRANCH  15  18
ATOM     17  C   UNL     1       6.929   4.617  14.690  0.00  0.00    +0.000 C 
ATOM     18  O   UNL     1       6.400   3.860  15.785  0.00  0.00    +0.000 OA
ENDBRANCH  15  18
ENDBRANCH   1  15
BRANCH   1  19
ATOM     19  C   UNL     1       5.098   3.454  18.807  0.00  0.00    +0.000 C 
ATOM     20  N   UNL     1       4.900   2.561  19.675  0.00  0.00    +0.000 NA
ENDBRANCH   1  19
TORSDOF 4
ENDMDL
MODEL 3
REMARK VINA RESULT:      -6.8      0.977      1.453
REMARK  Name = 
REMARK  5 active torsions:
REMARK  status: ('A' for Active; 'I' for Inactive)
REMARK    1  A    between atoms: C_1  and  O_2
REMARK    2  A    between atoms: O_2  and  C_3
REMARK    3  A    between atoms: C_3  and  C_5
REMARK    4  A    between atoms: C_5  and  C_6
REMARK    5  A    between atoms: N_13  and  C_14
REMARK                            x       y       z     vdW  Elec       q    Type
REMARK                         _______ _______ _______ _____ _____    ______ ____
ROOT
ATOM      1  C   UNL     1       5.598   4.542  18.016  0.00  0.00    +0.000 C 
ATOM      2  C   UNL     1       4.707   5.530  17.737  0.00  0.00    +0.000 C 
ATOM      3  S   UNL     1       5.089   6.899  16.716  0.00  0.00    +0.000 S 
ATOM      4  C   UNL     1       3.796   7.934  17.417  0.00  0.00    +0.000 C 
ATOM      5  C   UNL     1       2.838   6.989  18.088  0.00  0.00    +0.000 C 
ATOM      6  O   UNL     1       1.724   7.355  18.452  0.00  0.00    +0.000 OA
ATOM      7  N   UNL     1       3.402   5.702  18.245  0.00  0.00    +0.000 N 
ENDROOT
BRANCH   7   8
ATOM      8  C   UNL     1       2.557   4.706  18.828  0.00  0.00    +0.000 A 
ATOM      9  C   UNL     1       1.871   3.795  18.006  0.00  0.00    +0.000 A 
ATOM     10  C   UNL     1       1.038   2.819  18.560  0.00  0.00    +0.000 A 
ATOM     11  C   UNL     1       0.907   2.726  19.944  0.00  0.00    +0.000 A 
ATOM     12  C   UNL     1       1.620   3.601  20.758  0.00  0.00    +0.000 A 
ATOM     13  F   UNL     1       1.520   3.487  22.089  0.00  0.00    +0.000 F 
ATOM     14  C   UNL     1       2.443   4.588  20.218  0.00  0.00    +0.000 A 
ENDBRANCH   7   8
BRANCH   1  15
ATOM     15  C   UNL     1       7.000   4.536  17.526  0.00  0.00    +0.000 C 
ATOM     16  O   UNL     1       7.338   4.479  16.354  0.00  0.00    +0.000 OA
BRANCH  15  18
ATOM     17  C   UNL     1       7.958   5.937  19.123  0.00  0.00    +0.000 C 
ATOM     18  O   UNL     1       7.870   4.620  18.566  0.00  0.00    +0.000 OA
ENDBRANCH  15  18
ENDBRANCH   1  15
BRANCH   1  19
ATOM     19  C   UNL     1       5.207   3.448  18.997  0.00  0.00    +0.000 C 
ATOM     20  N   UNL     1       4.884   2.540  19.811  0.00  0.00    +0.000 NA
ENDBRANCH   1  19
TORSDOF 4
ENDMDL
MODEL 4
REMARK VINA RESULT:      -6.7      1.324      2.017
REMARK  Name = 
REMARK  5 active torsions:
REMARK  status: ('A' for Active; 'I' for Inactive)
REMARK    1  A    between atoms: C_1  and  O_2
REMARK    2  A    between atoms: O_2  and  C_3
REMARK    3  A    between atoms: C_3  and  C_5
REMARK    4  A    between atoms: C_5  and  C_6
REMARK    5  A    between atoms: N_13  and  C_14
REMARK                            x       y       z     vdW  Elec       q    Type
REMARK                         _______ _______ _______ _____ _____    ______ ____
ROOT
ATOM      1  C   UNL     1       5.277   4.439  17.572  0.00  0.00    +0.000 C 
ATOM      2  C   UNL     1       4.439   5.508  17.529  0.00  0.00    +0.000 C 
ATOM      3  S   UNL     1       4.690   6.876  16.467  0.00  0.00    +0.000 S 
ATOM      4  C   UNL     1       3.699   7.990  17.472  0.00  0.00    +0.000 C 
ATOM      5  C   UNL     1       2.845   7.106  18.339  0.00  0.00    +0.000 C 
ATOM      6  O   UNL     1       1.887   7.550  18.963  0.00  0.00    +0.000 OA
ATOM      7  N   UNL     1       3.312   5.770  18.337  0.00  0.00    +0.000 N 
ENDROOT
BRANCH   7   8
ATOM      8  C   UNL     1       2.542   4.828  19.089  0.00  0.00    +0.000 A 
ATOM      9  C   UNL     1       1.625   3.987  18.436  0.00  0.00    +0.000 A 
ATOM     10  C   UNL     1       0.862   3.065  19.158  0.00  0.00    +0.000 A 
ATOM     11  C   UNL     1       1.032   2.955  20.537  0.00  0.00    +0.000 A 
ATOM     12  C   UNL     1       1.971   3.759  21.175  0.00  0.00    +0.000 A 
ATOM     13  F   UNL     1       2.158   3.628  22.495  0.00  0.00    +0.000 F 
ATOM     14  C   UNL     1       2.727   4.693  20.469  0.00  0.00    +0.000 A 
ENDBRANCH   7   8
BRANCH   1  15
ATOM     15  C   UNL     1       6.517   4.333  16.761  0.00  0.00    +0.000 C 
ATOM     16  O   UNL     1       7.617   4.746  17.096  0.00  0.00    +0.000 OA
BRANCH  15  18
ATOM     17  C   UNL     1       6.684   4.439  14.439  0.00  0.00    +0.000 C 
ATOM     18  O   UNL     1       6.268   3.693  15.589  0.00  0.00    +0.000 OA
ENDBRANCH  15  18
ENDBRANCH   1  15
BRANCH   1  19
ATOM     19  C   UNL     1       5.033   3.347  18.601  0.00  0.00    +0.000 C 
ATOM     20  N   UNL     1       4.830   2.441  19.455  0.00  0.00    +0.000 NA
ENDBRANCH   1  19
TORSDOF 4
ENDMDL
MODEL 5
REMARK VINA RESULT:      -6.6      1.695      1.921
REMARK  Name = 
REMARK  5 active torsions:
REMARK  status: ('A' for Active; 'I' for Inactive)
REMARK    1  A    between atoms: C_1  and  O_2
REMARK    2  A    between atoms: O_2  and  C_3
REMARK    3  A    between atoms: C_3  and  C_5
REMARK    4  A    between atoms: C_5  and  C_6
REMARK    5  A    between atoms: N_13  and  C_14
REMARK                            x       y       z     vdW  Elec       q    Type
REMARK                         _______ _______ _______ _____ _____    ______ ____
ROOT
ATOM      1  C   UNL     1       4.223   6.092  17.759  0.00  0.00    +0.000 C 
ATOM      2  C   UNL     1       3.188   6.790  18.297  0.00  0.00    +0.000 C 
ATOM      3  S   UNL     1       2.789   8.425  17.820  0.00  0.00    +0.000 S 
ATOM      4  C   UNL     1       1.916   8.785  19.351  0.00  0.00    +0.000 C 
ATOM      5  C   UNL     1       1.588   7.449  19.956  0.00  0.00    +0.000 C 
ATOM      6  O   UNL     1       0.785   7.340  20.877  0.00  0.00    +0.000 OA
ATOM      7  N   UNL     1       2.326   6.407  19.347  0.00  0.00    +0.000 N 
ENDROOT
BRANCH   7   8
ATOM      8  C   UNL     1       2.055   5.082  19.810  0.00  0.00    +0.000 A 
ATOM      9  C   UNL     1       2.460   4.689  21.097  0.00  0.00    +0.000 A 
ATOM     10  C   UNL     1       2.207   3.395  21.562  0.00  0.00    +0.000 A 
ATOM     11  C   UNL     1       1.519   2.492  20.755  0.00  0.00    +0.000 A 
ATOM     12  C   UNL     1       1.081   2.897  19.498  0.00  0.00    +0.000 A 
ATOM     13  F   UNL     1       0.389   2.038  18.737  0.00  0.00    +0.000 F 
ATOM     14  C   UNL     1       1.340   4.178  19.016  0.00  0.00    +0.000 A 
ENDBRANCH   7   8
BRANCH   1  15
ATOM     15  C   UNL     1       5.153   6.652  16.745  0.00  0.00    +0.000 C 
ATOM     16  O   UNL     1       5.042   6.519  15.536  0.00  0.00    +0.000 OA
BRANCH  15  18
ATOM     17  C   UNL     1       7.410   6.676  17.324  0.00  0.00    +0.000 C 
ATOM     18  O   UNL     1       6.149   7.354  17.346  0.00  0.00    +0.000 OA
ENDBRANCH  15  18
ENDBRANCH   1  15
BRANCH   1  19
ATOM     19  C   UNL     1       4.556   4.715  18.312  0.00  0.00    +0.000 C 
ATOM     20  N   UNL     1       4.832   3.574  18.771  0.00  0.00    +0.000 NA
ENDBRANCH   1  19
TORSDOF 4
ENDMDL
MODEL 6
REMARK VINA RESULT:      -6.2      2.733      5.547
REMARK  Name = 
REMARK  5 active torsions:
REMARK  status: ('A' for Active; 'I' for Inactive)
REMARK    1  A    between atoms: C_1  and  O_2
REMARK    2  A    between atoms: O_2  and  C_3
REMARK    3  A    between atoms: C_3  and  C_5
REMARK    4  A    between atoms: C_5  and  C_6
REMARK    5  A    between atoms: N_13  and  C_14
REMARK                            x       y       z     vdW  Elec       q    Type
REMARK                         _______ _______ _______ _____ _____    ______ ____
ROOT
ATOM      1  C   UNL     1       3.163   6.668  18.556  0.00  0.00    +0.000 C 
ATOM      2  C   UNL     1       3.141   5.377  18.980  0.00  0.00    +0.000 C 
ATOM      3  S   UNL     1       1.869   4.724  19.988  0.00  0.00    +0.000 S 
ATOM      4  C   UNL     1       2.888   3.380  20.610  0.00  0.00    +0.000 C 
ATOM      5  C   UNL     1       4.026   3.248  19.637  0.00  0.00    +0.000 C 
ATOM      6  O   UNL     1       4.764   2.268  19.641  0.00  0.00    +0.000 OA
ATOM      7  N   UNL     1       4.117   4.376  18.789  0.00  0.00    +0.000 N 
ENDROOT
BRANCH   7   8
ATOM      8  C   UNL     1       5.136   4.335  17.786  0.00  0.00    +0.000 A 
ATOM      9  C   UNL     1       6.479   4.558  18.136  0.00  0.00    +0.000 A 
ATOM     10  C   UNL     1       7.485   4.527  17.166  0.00  0.00    +0.000 A 
ATOM     11  C   UNL     1       7.161   4.241  15.841  0.00  0.00    +0.000 A 
ATOM     12  C   UNL     1       5.836   3.979  15.504  0.00  0.00    +0.000 A 
ATOM     13  F   UNL     1       5.531   3.671  14.237  0.00  0.00    +0.000 F 
ATOM     14  C   UNL     1       4.822   4.022  16.459  0.00  0.00    +0.000 A 
ENDBRANCH   7   8
BRANCH   1  15
ATOM     15  C   UNL     1       2.138   7.675  18.934  0.00  0.00    +0.000 C 
ATOM     16  O   UNL     1       1.797   7.940  20.076  0.00  0.00    +0.000 OA
BRANCH  15  18
ATOM     17  C   UNL     1       1.716   9.712  17.883  0.00  0.00    +0.000 C 
ATOM     18  O   UNL     1       1.635   8.283  17.828  0.00  0.00    +0.000 OA
ENDBRANCH  15  18
ENDBRANCH   1  15
BRANCH   1  19
ATOM     19  C   UNL     1       4.364   7.170  17.770  0.00  0.00    +0.000 C 
ATOM     20  N   UNL     1       5.359   7.587  17.118  0.00  0.00    +0.000 NA
ENDBRANCH   1  19
TORSDOF 4
ENDMDL
MODEL 7
REMARK VINA RESULT:      -6.2      2.980      5.188
REMARK  Name = 
REMARK  5 active torsions:
REMARK  status: ('A' for Active; 'I' for Inactive)
REMARK    1  A    between atoms: C_1  and  O_2
REMARK    2  A    between atoms: O_2  and  C_3
REMARK    3  A    between atoms: C_3  and  C_5
REMARK    4  A    between atoms: C_5  and  C_6
REMARK    5  A    between atoms: N_13  and  C_14
REMARK                            x       y       z     vdW  Elec       q    Type
REMARK                         _______ _______ _______ _____ _____    ______ ____
ROOT
ATOM      1  C   UNL     1       2.875   3.698  19.811  0.00  0.00    +0.000 C 
ATOM      2  C   UNL     1       2.959   5.034  19.575  0.00  0.00    +0.000 C 
ATOM      3  S   UNL     1       2.091   6.225  20.518  0.00  0.00    +0.000 S 
ATOM      4  C   UNL     1       2.162   7.474  19.226  0.00  0.00    +0.000 C 
ATOM      5  C   UNL     1       3.268   7.042  18.303  0.00  0.00    +0.000 C 
ATOM      6  O   UNL     1       3.733   7.801  17.458  0.00  0.00    +0.000 OA
ATOM      7  N   UNL     1       3.644   5.699  18.536  0.00  0.00    +0.000 N 
ENDROOT
BRANCH   7   8
ATOM      8  C   UNL     1       4.727   5.197  17.748  0.00  0.00    +0.000 A 
ATOM      9  C   UNL     1       4.527   4.890  16.391  0.00  0.00    +0.000 A 
ATOM     10  C   UNL     1       5.574   4.393  15.609  0.00  0.00    +0.000 A 
ATOM     11  C   UNL     1       6.839   4.229  16.170  0.00  0.00    +0.000 A 
ATOM     12  C   UNL     1       7.045   4.575  17.502  0.00  0.00    +0.000 A 
ATOM     13  F   UNL     1       8.270   4.448  18.030  0.00  0.00    +0.000 F 
ATOM     14  C   UNL     1       6.007   5.056  18.296  0.00  0.00    +0.000 A 
ENDBRANCH   7   8
BRANCH   1  15
ATOM     15  C   UNL     1       2.009   3.100  20.859  0.00  0.00    +0.000 C 
ATOM     16  O   UNL     1       2.390   2.716  21.954  0.00  0.00    +0.000 OA
BRANCH  15  18
ATOM     17  C   UNL     1       0.558   2.383  19.183  0.00  0.00    +0.000 C 
ATOM     18  O   UNL     1       0.718   3.050  20.440  0.00  0.00    +0.000 OA
ENDBRANCH  15  18
ENDBRANCH   1  15
BRANCH   1  19
ATOM     19  C   UNL     1       3.585   2.735  18.872  0.00  0.00    +0.000 C 
ATOM     20  N   UNL     1       4.172   1.935  18.094  0.00  0.00    +0.000 NA
ENDBRANCH   1  19
TORSDOF 4
ENDMDL
MODEL 8
REMARK VINA RESULT:      -6.2      2.685      4.974
REMARK  Name = 
REMARK  5 active torsions:
REMARK  status: ('A' for Active; 'I' for Inactive)
REMARK    1  A    between atoms: C_1  and  O_2
REMARK    2  A    between atoms: O_2  and  C_3
REMARK    3  A    between atoms: C_3  and  C_5
REMARK    4  A    between atoms: C_5  and  C_6
REMARK    5  A    between atoms: N_13  and  C_14
REMARK                            x       y       z     vdW  Elec       q    Type
REMARK                         _______ _______ _______ _____ _____    ______ ____
ROOT
ATOM      1  C   UNL     1       2.978   4.212  20.059  0.00  0.00    +0.000 C 
ATOM      2  C   UNL     1       3.012   5.489  19.597  0.00  0.00    +0.000 C 
ATOM      3  S   UNL     1       1.933   6.741  20.171  0.00  0.00    +0.000 S 
ATOM      4  C   UNL     1       2.126   7.750  18.694  0.00  0.00    +0.000 C 
ATOM      5  C   UNL     1       3.388   7.268  18.035  0.00  0.00    +0.000 C 
ATOM      6  O   UNL     1       3.930   7.909  17.139  0.00  0.00    +0.000 OA
ATOM      7  N   UNL     1       3.808   6.025  18.562  0.00  0.00    +0.000 N 
ENDROOT
BRANCH   7   8
ATOM      8  C   UNL     1       5.031   5.495  18.042  0.00  0.00    +0.000 A 
ATOM      9  C   UNL     1       6.213   5.581  18.797  0.00  0.00    +0.000 A 
ATOM     10  C   UNL     1       7.417   5.073  18.300  0.00  0.00    +0.000 A 
ATOM     11  C   UNL     1       7.442   4.446  17.055  0.00  0.00    +0.000 A 
ATOM     12  C   UNL     1       6.262   4.325  16.328  0.00  0.00    +0.000 A 
ATOM     13  F   UNL     1       6.282   3.692  15.147  0.00  0.00    +0.000 F 
ATOM     14  C   UNL     1       5.059   4.840  16.806  0.00  0.00    +0.000 A 
ENDBRANCH   7   8
BRANCH   1  15
ATOM     15  C   UNL     1       1.999   3.727  21.065  0.00  0.00    +0.000 C 
ATOM     16  O   UNL     1       2.260   3.436  22.222  0.00  0.00    +0.000 OA
BRANCH  15  18
ATOM     17  C   UNL     1       0.645   2.707  19.466  0.00  0.00    +0.000 C 
ATOM     18  O   UNL     1       0.753   3.664  20.527  0.00  0.00    +0.000 OA
ENDBRANCH  15  18
ENDBRANCH   1  15
BRANCH   1  19
ATOM     19  C   UNL     1       3.886   3.169  19.425  0.00  0.00    +0.000 C 
ATOM     20  N   UNL     1       4.639   2.305  18.899  0.00  0.00    +0.000 NA
ENDBRANCH   1  19
TORSDOF 4
ENDMDL
MODEL 9
REMARK VINA RESULT:      -6.1      1.978      2.419
REMARK  Name = 
REMARK  5 active torsions:
REMARK  status: ('A' for Active; 'I' for Inactive)
REMARK    1  A    between atoms: C_1  and  O_2
REMARK    2  A    between atoms: O_2  and  C_3
REMARK    3  A    between atoms: C_3  and  C_5
REMARK    4  A    between atoms: C_5  and  C_6
REMARK    5  A    between atoms: N_13  and  C_14
REMARK                            x       y       z     vdW  Elec       q    Type
REMARK                         _______ _______ _______ _____ _____    ______ ____
ROOT
ATOM      1  C   UNL     1       4.270   6.072  17.418  0.00  0.00    +0.000 C 
ATOM      2  C   UNL     1       3.263   6.723  18.059  0.00  0.00    +0.000 C 
ATOM      3  S   UNL     1       2.876   8.404  17.769  0.00  0.00    +0.000 S 
ATOM      4  C   UNL     1       2.055   8.612  19.355  0.00  0.00    +0.000 C 
ATOM      5  C   UNL     1       1.725   7.224  19.828  0.00  0.00    +0.000 C 
ATOM      6  O   UNL     1       0.949   7.029  20.758  0.00  0.00    +0.000 OA
ATOM      7  N   UNL     1       2.428   6.243  19.090  0.00  0.00    +0.000 N 
ENDROOT
BRANCH   7   8
ATOM      8  C   UNL     1       2.150   4.880  19.421  0.00  0.00    +0.000 A 
ATOM      9  C   UNL     1       1.413   4.075  18.534  0.00  0.00    +0.000 A 
ATOM     10  C   UNL     1       1.129   2.743  18.846  0.00  0.00    +0.000 A 
ATOM     11  C   UNL     1       1.605   2.193  20.034  0.00  0.00    +0.000 A 
ATOM     12  C   UNL     1       2.371   2.979  20.891  0.00  0.00    +0.000 A 
ATOM     13  F   UNL     1       2.857   2.439  22.017  0.00  0.00    +0.000 F 
ATOM     14  C   UNL     1       2.648   4.313  20.599  0.00  0.00    +0.000 A 
ENDBRANCH   7   8
BRANCH   1  15
ATOM     15  C   UNL     1       5.177   6.724  16.438  0.00  0.00    +0.000 C 
ATOM     16  O   UNL     1       5.061   6.670  15.224  0.00  0.00    +0.000 OA
BRANCH  15  18
ATOM     17  C   UNL     1       7.364   6.652  17.240  0.00  0.00    +0.000 C 
ATOM     18  O   UNL     1       6.159   7.410  17.080  0.00  0.00    +0.000 OA
ENDBRANCH  15  18
ENDBRANCH   1  15
BRANCH   1  19
ATOM     19  C   UNL     1       4.597   4.641  17.813  0.00  0.00    +0.000 C 
ATOM     20  N   UNL     1       4.869   3.454  18.139  0.00  0.00    +0.000 NA
ENDBRANCH   1  19
TORSDOF 4
ENDMDL
