MODEL 1
REMARK VINA RESULT:      -8.4      0.000      0.000
REMARK  Name = 
REMARK  5 active torsions:
REMARK  status: ('A' for Active; 'I' for Inactive)
REMARK    1  A    between atoms: C_7  and  C_8
REMARK    2  A    between atoms: C_11  and  O_12
REMARK    3  A    between atoms: O_12  and  C_13
REMARK    4  A    between atoms: C_13  and  C_14
REMARK    5  A    between atoms: C_18  and  N_19
REMARK                            x       y       z     vdW  Elec       q    Type
REMARK                         _______ _______ _______ _____ _____    ______ ____
ROOT
ATOM      1  C   UNL     1       5.525   5.041  17.312  0.00  0.00    +0.000 A 
ATOM      2  C   UNL     1       5.420   6.304  16.727  0.00  0.00    +0.000 A 
ATOM      3  C   UNL     1       6.358   7.291  17.018  0.00  0.00    +0.000 A 
ATOM      4  C   UNL     1       7.388   7.034  17.924  0.00  0.00    +0.000 A 
ATOM      5  C   UNL     1       7.532   5.753  18.459  0.00  0.00    +0.000 A 
ATOM      6  C   UNL     1       6.600   4.756  18.159  0.00  0.00    +0.000 A 
ENDROOT
BRANCH   1  13
ATOM      7  O   UNL     1       0.426   2.355  18.517  0.00  0.00    +0.000 OA
ATOM      8  C   UNL     1       1.396   3.085  18.431  0.00  0.00    +0.000 C 
ATOM      9  N   UNL     1       1.661   4.178  19.212  0.00  0.00    +0.000 N 
ATOM     10  C   UNL     1       2.848   4.765  18.868  0.00  0.00    +0.000 C 
ATOM     11  O   UNL     1       3.352   5.743  19.381  0.00  0.00    +0.000 OA
ATOM     12  C   UNL     1       3.362   3.931  17.733  0.00  0.00    +0.000 C 
ATOM     13  C   UNL     1       4.494   4.046  17.035  0.00  0.00    +0.000 C 
ATOM     14  N   UNL     1       2.434   2.950  17.528  0.00  0.00    +0.000 N 
ATOM     15  H   UNL     1       1.064   4.499  19.952  0.00  0.00    +0.000 HD
ATOM     16  H   UNL     1       2.481   2.201  16.852  0.00  0.00    +0.000 HD
ENDBRANCH   1  13
BRANCH   4  17
ATOM     17  O   UNL     1       8.290   7.972  18.355  0.00  0.00    +0.000 OA
BRANCH  17  18
ATOM     18  C   UNL     1       8.191   9.229  17.685  0.00  0.00    +0.000 C 
BRANCH  18  19
ATOM     19  C   UNL     1       8.987  10.254  18.448  0.00  0.00    +0.000 A 
ATOM     20  C   UNL     1       9.184  10.127  19.829  0.00  0.00    +0.000 A 
ATOM     21  C   UNL     1       9.927  11.079  20.530  0.00  0.00    +0.000 A 
ATOM     22  C   UNL     1      10.474  12.174  19.860  0.00  0.00    +0.000 A 
ATOM     23  C   UNL     1      10.273  12.310  18.480  0.00  0.00    +0.000 A 
ATOM     24  C   UNL     1       9.531  11.357  17.773  0.00  0.00    +0.000 A 
BRANCH  23  25
ATOM     25  N   UNL     1      10.848  13.455  17.767  0.00  0.00    +0.000 N 
ATOM     26  O   UNL     1      10.682  14.582  18.255  0.00  0.00    +0.000 OA
ATOM     27  O   UNL     1      11.475  13.230  16.720  0.00  0.00    +0.000 OA
ENDBRANCH  23  25
ENDBRANCH  18  19
ENDBRANCH  17  18
ENDBRANCH   4  17
TORSDOF 5
ENDMDL
MODEL 2
REMARK VINA RESULT:      -8.4      0.426      1.054
REMARK  Name = 
REMARK  5 active torsions:
REMARK  status: ('A' for Active; 'I' for Inactive)
REMARK    1  A    between atoms: C_7  and  C_8
REMARK    2  A    between atoms: C_11  and  O_12
REMARK    3  A    between atoms: O_12  and  C_13
REMARK    4  A    between atoms: C_13  and  C_14
REMARK    5  A    between atoms: C_18  and  N_19
REMARK                            x       y       z     vdW  Elec       q    Type
REMARK                         _______ _______ _______ _____ _____    ______ ____
ROOT
ATOM      1  C   UNL     1       5.591   5.345  17.549  0.00  0.00    +0.000 A 
ATOM      2  C   UNL     1       6.598   4.990  18.449  0.00  0.00    +0.000 A 
ATOM      3  C   UNL     1       7.583   5.912  18.796  0.00  0.00    +0.000 A 
ATOM      4  C   UNL     1       7.588   7.183  18.220  0.00  0.00    +0.000 A 
ATOM      5  C   UNL     1       6.546   7.560  17.371  0.00  0.00    +0.000 A 
ATOM      6  C   UNL     1       5.549   6.642  17.030  0.00  0.00    +0.000 A 
ENDROOT
BRANCH   1  13
ATOM      7  O   UNL     1       0.569   2.380  18.365  0.00  0.00    +0.000 OA
ATOM      8  C   UNL     1       1.512   3.150  18.370  0.00  0.00    +0.000 C 
ATOM      9  N   UNL     1       1.711   4.182  19.247  0.00  0.00    +0.000 N 
ATOM     10  C   UNL     1       2.883   4.839  18.991  0.00  0.00    +0.000 C 
ATOM     11  O   UNL     1       3.333   5.790  19.599  0.00  0.00    +0.000 OA
ATOM     12  C   UNL     1       3.462   4.124  17.807  0.00  0.00    +0.000 C 
ATOM     13  C   UNL     1       4.608   4.339  17.157  0.00  0.00    +0.000 C 
ATOM     14  N   UNL     1       2.579   3.130  17.492  0.00  0.00    +0.000 N 
ATOM     15  H   UNL     1       1.081   4.418  19.992  0.00  0.00    +0.000 HD
ATOM     16  H   UNL     1       2.675   2.443  16.759  0.00  0.00    +0.000 HD
ENDBRANCH   1  13
BRANCH   4  17
ATOM     17  O   UNL     1       8.573   8.115  18.415  0.00  0.00    +0.000 OA
BRANCH  17  18
ATOM     18  C   UNL     1       8.260   9.412  17.904  0.00  0.00    +0.000 C 
BRANCH  18  19
ATOM     19  C   UNL     1       9.111  10.434  18.609  0.00  0.00    +0.000 A 
ATOM     20  C   UNL     1       9.319  10.365  19.992  0.00  0.00    +0.000 A 
ATOM     21  C   UNL     1      10.112  11.314  20.638  0.00  0.00    +0.000 A 
ATOM     22  C   UNL     1      10.702  12.348  19.910  0.00  0.00    +0.000 A 
ATOM     23  C   UNL     1      10.491  12.426  18.527  0.00  0.00    +0.000 A 
ATOM     24  C   UNL     1       9.698  11.476  17.874  0.00  0.00    +0.000 A 
BRANCH  23  25
ATOM     25  N   UNL     1      11.111  13.507  17.753  0.00  0.00    +0.000 N 
ATOM     26  O   UNL     1      10.380  14.426  17.356  0.00  0.00    +0.000 OA
ATOM     27  O   UNL     1      12.333  13.445  17.547  0.00  0.00    +0.000 OA
ENDBRANCH  23  25
ENDBRANCH  18  19
ENDBRANCH  17  18
ENDBRANCH   4  17
TORSDOF 5
ENDMDL
MODEL 3
REMARK VINA RESULT:      -8.0      3.162      3.911
REMARK  Name = 
REMARK  5 active torsions:
REMARK  status: ('A' for Active; 'I' for Inactive)
REMARK    1  A    between atoms: C_7  and  C_8
REMARK    2  A    between atoms: C_11  and  O_12
REMARK    3  A    between atoms: O_12  and  C_13
REMARK    4  A    between atoms: C_13  and  C_14
REMARK    5  A    between atoms: C_18  and  N_19
REMARK                            x       y       z     vdW  Elec       q    Type
REMARK                         _______ _______ _______ _____ _____    ______ ____
ROOT
ATOM      1  C   UNL     1       6.518   5.378  16.700  0.00  0.00    +0.000 A 
ATOM      2  C   UNL     1       7.485   5.023  17.644  0.00  0.00    +0.000 A 
ATOM      3  C   UNL     1       8.124   6.006  18.395  0.00  0.00    +0.000 A 
ATOM      4  C   UNL     1       7.829   7.353  18.184  0.00  0.00    +0.000 A 
ATOM      5  C   UNL     1       6.817   7.705  17.289  0.00  0.00    +0.000 A 
ATOM      6  C   UNL     1       6.163   6.721  16.543  0.00  0.00    +0.000 A 
ENDROOT
BRANCH   1  13
ATOM      7  O   UNL     1       5.767   2.522  11.607  0.00  0.00    +0.000 OA
ATOM      8  C   UNL     1       6.125   3.211  12.544  0.00  0.00    +0.000 C 
ATOM      9  N   UNL     1       7.113   4.158  12.524  0.00  0.00    +0.000 N 
ATOM     10  C   UNL     1       7.248   4.768  13.740  0.00  0.00    +0.000 C 
ATOM     11  O   UNL     1       8.033   5.649  14.030  0.00  0.00    +0.000 OA
ATOM     12  C   UNL     1       6.221   4.104  14.608  0.00  0.00    +0.000 C 
ATOM     13  C   UNL     1       5.909   4.332  15.886  0.00  0.00    +0.000 C 
ATOM     14  N   UNL     1       5.595   3.181  13.821  0.00  0.00    +0.000 N 
ATOM     15  H   UNL     1       7.661   4.383  11.713  0.00  0.00    +0.000 HD
ATOM     16  H   UNL     1       4.833   2.574  14.085  0.00  0.00    +0.000 HD
ENDBRANCH   1  13
BRANCH   4  17
ATOM     17  O   UNL     1       8.481   8.392  18.794  0.00  0.00    +0.000 OA
BRANCH  17  18
ATOM     18  C   UNL     1       8.598   9.564  17.987  0.00  0.00    +0.000 C 
BRANCH  18  19
ATOM     19  C   UNL     1       9.387  10.601  18.741  0.00  0.00    +0.000 A 
ATOM     20  C   UNL     1       9.376  10.633  20.142  0.00  0.00    +0.000 A 
ATOM     21  C   UNL     1      10.113  11.595  20.834  0.00  0.00    +0.000 A 
ATOM     22  C   UNL     1      10.863  12.541  20.136  0.00  0.00    +0.000 A 
ATOM     23  C   UNL     1      10.872  12.518  18.735  0.00  0.00    +0.000 A 
ATOM     24  C   UNL     1      10.137  11.555  18.035  0.00  0.00    +0.000 A 
BRANCH  23  25
ATOM     25  N   UNL     1      11.662  13.506  17.992  0.00  0.00    +0.000 N 
ATOM     26  O   UNL     1      11.624  14.683  18.377  0.00  0.00    +0.000 OA
ATOM     27  O   UNL     1      12.330  13.105  17.026  0.00  0.00    +0.000 OA
ENDBRANCH  23  25
ENDBRANCH  18  19
ENDBRANCH  17  18
ENDBRANCH   4  17
TORSDOF 5
ENDMDL
MODEL 4
REMARK VINA RESULT:      -8.0      5.822      8.003
REMARK  Name = 
REMARK  5 active torsions:
REMARK  status: ('A' for Active; 'I' for Inactive)
REMARK    1  A    between atoms: C_7  and  C_8
REMARK    2  A    between atoms: C_11  and  O_12
REMARK    3  A    between atoms: O_12  and  C_13
REMARK    4  A    between atoms: C_13  and  C_14
REMARK    5  A    between atoms: C_18  and  N_19
REMARK                            x       y       z     vdW  Elec       q    Type
REMARK                         _______ _______ _______ _____ _____    ______ ____
ROOT
ATOM      1  C   UNL     1       3.011   6.037  18.984  0.00  0.00    +0.000 A 
ATOM      2  C   UNL     1       2.386   5.158  18.097  0.00  0.00    +0.000 A 
ATOM      3  C   UNL     1       3.150   4.330  17.278  0.00  0.00    +0.000 A 
ATOM      4  C   UNL     1       4.543   4.401  17.313  0.00  0.00    +0.000 A 
ATOM      5  C   UNL     1       5.168   5.231  18.245  0.00  0.00    +0.000 A 
ATOM      6  C   UNL     1       4.405   6.054  19.078  0.00  0.00    +0.000 A 
ENDROOT
BRANCH   1  13
ATOM      7  O   UNL     1       0.316  11.188  19.918  0.00  0.00    +0.000 OA
ATOM      8  C   UNL     1       0.893  10.208  19.486  0.00  0.00    +0.000 C 
ATOM      9  N   UNL     1       1.459  10.078  18.247  0.00  0.00    +0.000 N 
ATOM     10  C   UNL     1       2.049   8.855  18.089  0.00  0.00    +0.000 C 
ATOM     11  O   UNL     1       2.634   8.451  17.104  0.00  0.00    +0.000 OA
ATOM     12  C   UNL     1       1.805   8.152  19.390  0.00  0.00    +0.000 C 
ATOM     13  C   UNL     1       2.186   6.935  19.786  0.00  0.00    +0.000 C 
ATOM     14  N   UNL     1       1.103   9.025  20.170  0.00  0.00    +0.000 N 
ATOM     15  H   UNL     1       1.450  10.798  17.546  0.00  0.00    +0.000 HD
ATOM     16  H   UNL     1       0.796   8.878  21.121  0.00  0.00    +0.000 HD
ENDBRANCH   1  13
BRANCH   4  17
ATOM     17  O   UNL     1       5.373   3.708  16.472  0.00  0.00    +0.000 OA
BRANCH  17  18
ATOM     18  C   UNL     1       6.572   4.405  16.128  0.00  0.00    +0.000 C 
BRANCH  18  19
ATOM     19  C   UNL     1       6.734   4.390  14.631  0.00  0.00    +0.000 A 
ATOM     20  C   UNL     1       7.667   5.223  14.001  0.00  0.00    +0.000 A 
ATOM     21  C   UNL     1       7.814   5.201  12.613  0.00  0.00    +0.000 A 
ATOM     22  C   UNL     1       7.025   4.351  11.838  0.00  0.00    +0.000 A 
ATOM     23  C   UNL     1       6.084   3.522  12.462  0.00  0.00    +0.000 A 
ATOM     24  C   UNL     1       5.934   3.539  13.853  0.00  0.00    +0.000 A 
BRANCH  23  25
ATOM     25  N   UNL     1       5.253   2.622  11.655  0.00  0.00    +0.000 N 
ATOM     26  O   UNL     1       4.130   3.022  11.316  0.00  0.00    +0.000 OA
ATOM     27  O   UNL     1       5.725   1.515  11.350  0.00  0.00    +0.000 OA
ENDBRANCH  23  25
ENDBRANCH  18  19
ENDBRANCH  17  18
ENDBRANCH   4  17
TORSDOF 5
ENDMDL
MODEL 5
REMARK VINA RESULT:      -8.0      1.893      2.195
REMARK  Name = 
REMARK  5 active torsions:
REMARK  status: ('A' for Active; 'I' for Inactive)
REMARK    1  A    between atoms: C_7  and  C_8
REMARK    2  A    between atoms: C_11  and  O_12
REMARK    3  A    between atoms: O_12  and  C_13
REMARK    4  A    between atoms: C_13  and  C_14
REMARK    5  A    between atoms: C_18  and  N_19
REMARK                            x       y       z     vdW  Elec       q    Type
REMARK                         _______ _______ _______ _____ _____    ______ ____
ROOT
ATOM      1  C   UNL     1       5.980   5.220  17.538  0.00  0.00    +0.000 A 
ATOM      2  C   UNL     1       6.005   6.428  16.836  0.00  0.00    +0.000 A 
ATOM      3  C   UNL     1       6.915   7.422  17.185  0.00  0.00    +0.000 A 
ATOM      4  C   UNL     1       7.783   7.232  18.261  0.00  0.00    +0.000 A 
ATOM      5  C   UNL     1       7.804   6.003  18.921  0.00  0.00    +0.000 A 
ATOM      6  C   UNL     1       6.901   4.997  18.565  0.00  0.00    +0.000 A 
ENDROOT
BRANCH   1  13
ATOM      7  O   UNL     1       0.783   2.568  18.328  0.00  0.00    +0.000 OA
ATOM      8  C   UNL     1       1.759   3.295  18.316  0.00  0.00    +0.000 C 
ATOM      9  N   UNL     1       1.955   4.405  19.093  0.00  0.00    +0.000 N 
ATOM     10  C   UNL     1       3.170   4.982  18.847  0.00  0.00    +0.000 C 
ATOM     11  O   UNL     1       3.628   5.972  19.382  0.00  0.00    +0.000 OA
ATOM     12  C   UNL     1       3.784   4.123  17.783  0.00  0.00    +0.000 C 
ATOM     13  C   UNL     1       4.976   4.221  17.190  0.00  0.00    +0.000 C 
ATOM     14  N   UNL     1       2.875   3.139  17.515  0.00  0.00    +0.000 N 
ATOM     15  H   UNL     1       1.293   4.743  19.768  0.00  0.00    +0.000 HD
ATOM     16  H   UNL     1       2.982   2.375  16.864  0.00  0.00    +0.000 HD
ENDBRANCH   1  13
BRANCH   4  17
ATOM     17  O   UNL     1       8.634   8.191  18.745  0.00  0.00    +0.000 OA
BRANCH  17  18
ATOM     18  C   UNL     1       8.506   9.463  18.107  0.00  0.00    +0.000 C 
BRANCH  18  19
ATOM     19  C   UNL     1       9.328  10.473  18.863  0.00  0.00    +0.000 A 
ATOM     20  C   UNL     1      10.537  10.949  18.341  0.00  0.00    +0.000 A 
ATOM     21  C   UNL     1      11.291  11.889  19.046  0.00  0.00    +0.000 A 
ATOM     22  C   UNL     1      10.850  12.358  20.284  0.00  0.00    +0.000 A 
ATOM     23  C   UNL     1       9.644  11.879  20.813  0.00  0.00    +0.000 A 
ATOM     24  C   UNL     1       8.883  10.938  20.110  0.00  0.00    +0.000 A 
BRANCH  23  25
ATOM     25  N   UNL     1       9.169  12.370  22.111  0.00  0.00    +0.000 N 
ATOM     26  O   UNL     1       8.437  11.625  22.778  0.00  0.00    +0.000 OA
ATOM     27  O   UNL     1       9.534  13.500  22.472  0.00  0.00    +0.000 OA
ENDBRANCH  23  25
ENDBRANCH  18  19
ENDBRANCH  17  18
ENDBRANCH   4  17
TORSDOF 5
ENDMDL
MODEL 6
REMARK VINA RESULT:      -7.8      1.154      1.174
REMARK  Name = 
REMARK  5 active torsions:
REMARK  status: ('A' for Active; 'I' for Inactive)
REMARK    1  A    between atoms: C_7  and  C_8
REMARK    2  A    between atoms: C_11  and  O_12
REMARK    3  A    between atoms: O_12  and  C_13
REMARK    4  A    between atoms: C_13  and  C_14
REMARK    5  A    between atoms: C_18  and  N_19
REMARK                            x       y       z     vdW  Elec       q    Type
REMARK                         _______ _______ _______ _____ _____    ______ ____
ROOT
ATOM      1  C   UNL     1       6.285   5.294  17.562  0.00  0.00    +0.000 A 
ATOM      2  C   UNL     1       6.175   6.494  16.856  0.00  0.00    +0.000 A 
ATOM      3  C   UNL     1       6.985   7.577  17.188  0.00  0.00    +0.000 A 
ATOM      4  C   UNL     1       7.885   7.481  18.250  0.00  0.00    +0.000 A 
ATOM      5  C   UNL     1       8.042   6.263  18.913  0.00  0.00    +0.000 A 
ATOM      6  C   UNL     1       7.240   5.169  18.574  0.00  0.00    +0.000 A 
ENDROOT
BRANCH   1  13
ATOM      7  O   UNL     1       1.469   2.047  18.526  0.00  0.00    +0.000 OA
ATOM      8  C   UNL     1       2.355   2.881  18.488  0.00  0.00    +0.000 C 
ATOM      9  N   UNL     1       2.466   3.984  19.290  0.00  0.00    +0.000 N 
ATOM     10  C   UNL     1       3.593   4.702  19.002  0.00  0.00    +0.000 C 
ATOM     11  O   UNL     1       3.966   5.723  19.546  0.00  0.00    +0.000 OA
ATOM     12  C   UNL     1       4.242   3.947  17.881  0.00  0.00    +0.000 C 
ATOM     13  C   UNL     1       5.382   4.196  17.232  0.00  0.00    +0.000 C 
ATOM     14  N   UNL     1       3.437   2.874  17.627  0.00  0.00    +0.000 N 
ATOM     15  H   UNL     1       1.808   4.226  20.008  0.00  0.00    +0.000 HD
ATOM     16  H   UNL     1       3.593   2.144  16.947  0.00  0.00    +0.000 HD
ENDBRANCH   1  13
BRANCH   4  17
ATOM     17  O   UNL     1       8.642   8.523  18.718  0.00  0.00    +0.000 OA
BRANCH  17  18
ATOM     18  C   UNL     1       8.505   9.729  17.966  0.00  0.00    +0.000 C 
BRANCH  18  19
ATOM     19  C   UNL     1       9.161  10.854  18.722  0.00  0.00    +0.000 A 
ATOM     20  C   UNL     1       9.934  10.598  19.863  0.00  0.00    +0.000 A 
ATOM     21  C   UNL     1      10.542  11.646  20.556  0.00  0.00    +0.000 A 
ATOM     22  C   UNL     1      10.379  12.962  20.123  0.00  0.00    +0.000 A 
ATOM     23  C   UNL     1       9.602  13.224  18.987  0.00  0.00    +0.000 A 
ATOM     24  C   UNL     1       8.991  12.177  18.287  0.00  0.00    +0.000 A 
BRANCH  23  25
ATOM     25  N   UNL     1       9.430  14.604  18.521  0.00  0.00    +0.000 N 
ATOM     26  O   UNL     1      10.216  15.461  18.951  0.00  0.00    +0.000 OA
ATOM     27  O   UNL     1       8.512  14.834  17.718  0.00  0.00    +0.000 OA
ENDBRANCH  23  25
ENDBRANCH  18  19
ENDBRANCH  17  18
ENDBRANCH   4  17
TORSDOF 5
ENDMDL
MODEL 7
REMARK VINA RESULT:      -7.8      5.946      7.906
REMARK  Name = 
REMARK  5 active torsions:
REMARK  status: ('A' for Active; 'I' for Inactive)
REMARK    1  A    between atoms: C_7  and  C_8
REMARK    2  A    between atoms: C_11  and  O_12
REMARK    3  A    between atoms: O_12  and  C_13
REMARK    4  A    between atoms: C_13  and  C_14
REMARK    5  A    between atoms: C_18  and  N_19
REMARK                            x       y       z     vdW  Elec       q    Type
REMARK                         _______ _______ _______ _____ _____    ______ ____
ROOT
ATOM      1  C   UNL     1       2.993   5.402  19.254  0.00  0.00    +0.000 A 
ATOM      2  C   UNL     1       4.372   5.524  19.438  0.00  0.00    +0.000 A 
ATOM      3  C   UNL     1       5.252   5.022  18.483  0.00  0.00    +0.000 A 
ATOM      4  C   UNL     1       4.762   4.363  17.354  0.00  0.00    +0.000 A 
ATOM      5  C   UNL     1       3.385   4.299  17.137  0.00  0.00    +0.000 A 
ATOM      6  C   UNL     1       2.498   4.813  18.087  0.00  0.00    +0.000 A 
ENDROOT
BRANCH   1  13
ATOM      7  O   UNL     1      -0.112   9.647  21.901  0.00  0.00    +0.000 OA
ATOM      8  C   UNL     1       0.543   8.936  21.162  0.00  0.00    +0.000 C 
ATOM      9  N   UNL     1       1.120   9.308  19.979  0.00  0.00    +0.000 N 
ATOM     10  C   UNL     1       1.808   8.273  19.408  0.00  0.00    +0.000 C 
ATOM     11  O   UNL     1       2.427   8.298  18.363  0.00  0.00    +0.000 OA
ATOM     12  C   UNL     1       1.619   7.129  20.358  0.00  0.00    +0.000 C 
ATOM     13  C   UNL     1       2.096   5.883  20.299  0.00  0.00    +0.000 C 
ATOM     14  N   UNL     1       0.846   7.604  21.379  0.00  0.00    +0.000 N 
ATOM     15  H   UNL     1       1.055  10.230  19.586  0.00  0.00    +0.000 HD
ATOM     16  H   UNL     1       0.549   7.100  22.202  0.00  0.00    +0.000 HD
ENDBRANCH   1  13
BRANCH   4  17
ATOM     17  O   UNL     1       5.549   3.744  16.419  0.00  0.00    +0.000 OA
BRANCH  17  18
ATOM     18  C   UNL     1       6.691   4.503  16.020  0.00  0.00    +0.000 C 
BRANCH  18  19
ATOM     19  C   UNL     1       6.812   4.452  14.520  0.00  0.00    +0.000 A 
ATOM     20  C   UNL     1       7.732   5.265  13.846  0.00  0.00    +0.000 A 
ATOM     21  C   UNL     1       7.842   5.208  12.455  0.00  0.00    +0.000 A 
ATOM     22  C   UNL     1       7.028   4.345  11.722  0.00  0.00    +0.000 A 
ATOM     23  C   UNL     1       6.101   3.535  12.391  0.00  0.00    +0.000 A 
ATOM     24  C   UNL     1       5.988   3.586  13.785  0.00  0.00    +0.000 A 
BRANCH  23  25
ATOM     25  N   UNL     1       5.244   2.620  11.628  0.00  0.00    +0.000 N 
ATOM     26  O   UNL     1       4.114   3.017  11.312  0.00  0.00    +0.000 OA
ATOM     27  O   UNL     1       5.703   1.505  11.336  0.00  0.00    +0.000 OA
ENDBRANCH  23  25
ENDBRANCH  18  19
ENDBRANCH  17  18
ENDBRANCH   4  17
TORSDOF 5
ENDMDL
MODEL 8
REMARK VINA RESULT:      -7.8      1.760      2.290
REMARK  Name = 
REMARK  5 active torsions:
REMARK  status: ('A' for Active; 'I' for Inactive)
REMARK    1  A    between atoms: C_7  and  C_8
REMARK    2  A    between atoms: C_11  and  O_12
REMARK    3  A    between atoms: O_12  and  C_13
REMARK    4  A    between atoms: C_13  and  C_14
REMARK    5  A    between atoms: C_18  and  N_19
REMARK                            x       y       z     vdW  Elec       q    Type
REMARK                         _______ _______ _______ _____ _____    ______ ____
ROOT
ATOM      1  C   UNL     1       5.588   5.326  17.528  0.00  0.00    +0.000 A 
ATOM      2  C   UNL     1       6.588   4.949  18.428  0.00  0.00    +0.000 A 
ATOM      3  C   UNL     1       7.579   5.856  18.794  0.00  0.00    +0.000 A 
ATOM      4  C   UNL     1       7.600   7.135  18.236  0.00  0.00    +0.000 A 
ATOM      5  C   UNL     1       6.566   7.534  17.387  0.00  0.00    +0.000 A 
ATOM      6  C   UNL     1       5.562   6.631  17.028  0.00  0.00    +0.000 A 
ENDROOT
BRANCH   1  13
ATOM      7  O   UNL     1       0.613   2.288  18.352  0.00  0.00    +0.000 OA
ATOM      8  C   UNL     1       1.551   3.063  18.367  0.00  0.00    +0.000 C 
ATOM      9  N   UNL     1       1.774   4.049  19.290  0.00  0.00    +0.000 N 
ATOM     10  C   UNL     1       2.933   4.727  19.030  0.00  0.00    +0.000 C 
ATOM     11  O   UNL     1       3.399   5.646  19.673  0.00  0.00    +0.000 OA
ATOM     12  C   UNL     1       3.476   4.079  17.792  0.00  0.00    +0.000 C 
ATOM     13  C   UNL     1       4.598   4.336  17.117  0.00  0.00    +0.000 C 
ATOM     14  N   UNL     1       2.588   3.097  17.454  0.00  0.00    +0.000 N 
ATOM     15  H   UNL     1       1.168   4.240  20.067  0.00  0.00    +0.000 HD
ATOM     16  H   UNL     1       2.663   2.450  16.683  0.00  0.00    +0.000 HD
ENDBRANCH   1  13
BRANCH   4  17
ATOM     17  O   UNL     1       8.592   8.055  18.451  0.00  0.00    +0.000 OA
BRANCH  17  18
ATOM     18  C   UNL     1       8.382   9.306  17.794  0.00  0.00    +0.000 C 
BRANCH  18  19
ATOM     19  C   UNL     1       9.185  10.368  18.496  0.00  0.00    +0.000 A 
ATOM     20  C   UNL     1      10.284  10.969  17.869  0.00  0.00    +0.000 A 
ATOM     21  C   UNL     1      11.021  11.956  18.525  0.00  0.00    +0.000 A 
ATOM     22  C   UNL     1      10.675  12.348  19.818  0.00  0.00    +0.000 A 
ATOM     23  C   UNL     1       9.581  11.744  20.452  0.00  0.00    +0.000 A 
ATOM     24  C   UNL     1       8.837  10.756  19.799  0.00  0.00    +0.000 A 
BRANCH  23  25
ATOM     25  N   UNL     1       9.207  12.154  21.810  0.00  0.00    +0.000 N 
ATOM     26  O   UNL     1       9.675  13.217  22.243  0.00  0.00    +0.000 OA
ATOM     27  O   UNL     1       8.436  11.417  22.446  0.00  0.00    +0.000 OA
ENDBRANCH  23  25
ENDBRANCH  18  19
ENDBRANCH  17  18
ENDBRANCH   4  17
TORSDOF 5
ENDMDL
MODEL 9
REMARK VINA RESULT:      -7.7      6.077      9.004
REMARK  Name = 
REMARK  5 active torsions:
REMARK  status: ('A' for Active; 'I' for Inactive)
REMARK    1  A    between atoms: C_7  and  C_8
REMARK    2  A    between atoms: C_11  and  O_12
REMARK    3  A    between atoms: O_12  and  C_13
REMARK    4  A    between atoms: C_13  and  C_14
REMARK    5  A    between atoms: C_18  and  N_19
REMARK                            x       y       z     vdW  Elec       q    Type
REMARK                         _______ _______ _______ _____ _____    ______ ____
ROOT
ATOM      1  C   UNL     1       3.171   6.511  18.827  0.00  0.00    +0.000 A 
ATOM      2  C   UNL     1       2.301   6.923  19.840  0.00  0.00    +0.000 A 
ATOM      3  C   UNL     1       1.581   8.107  19.705  0.00  0.00    +0.000 A 
ATOM      4  C   UNL     1       1.750   8.906  18.573  0.00  0.00    +0.000 A 
ATOM      5  C   UNL     1       2.568   8.463  17.532  0.00  0.00    +0.000 A 
ATOM      6  C   UNL     1       3.283   7.269  17.658  0.00  0.00    +0.000 A 
ENDROOT
BRANCH   1  13
ATOM      7  O   UNL     1       3.934   0.685  18.454  0.00  0.00    +0.000 OA
ATOM      8  C   UNL     1       3.583   1.847  18.372  0.00  0.00    +0.000 C 
ATOM      9  N   UNL     1       2.444   2.311  17.772  0.00  0.00    +0.000 N 
ATOM     10  C   UNL     1       2.338   3.670  17.878  0.00  0.00    +0.000 C 
ATOM     11  O   UNL     1       1.438   4.366  17.450  0.00  0.00    +0.000 OA
ATOM     12  C   UNL     1       3.568   4.084  18.628  0.00  0.00    +0.000 C 
ATOM     13  C   UNL     1       3.958   5.298  19.023  0.00  0.00    +0.000 C 
ATOM     14  N   UNL     1       4.264   2.937  18.882  0.00  0.00    +0.000 N 
ATOM     15  H   UNL     1       1.766   1.723  17.321  0.00  0.00    +0.000 HD
ATOM     16  H   UNL     1       5.131   2.853  19.393  0.00  0.00    +0.000 HD
ENDBRANCH   1  13
BRANCH   4  17
ATOM     17  O   UNL     1       1.170  10.135  18.401  0.00  0.00    +0.000 OA
BRANCH  17  18
ATOM     18  C   UNL     1       0.115  10.418  19.322  0.00  0.00    +0.000 C 
BRANCH  18  19
ATOM     19  C   UNL     1      -1.181  10.524  18.564  0.00  0.00    +0.000 A 
ATOM     20  C   UNL     1      -1.340   9.897  17.322  0.00  0.00    +0.000 A 
ATOM     21  C   UNL     1      -2.547   9.997  16.627  0.00  0.00    +0.000 A 
ATOM     22  C   UNL     1      -3.606  10.732  17.161  0.00  0.00    +0.000 A 
ATOM     23  C   UNL     1      -3.449  11.368  18.400  0.00  0.00    +0.000 A 
ATOM     24  C   UNL     1      -2.242  11.269  19.102  0.00  0.00    +0.000 A 
BRANCH  23  25
ATOM     25  N   UNL     1      -4.558  12.138  18.971  0.00  0.00    +0.000 N 
ATOM     26  O   UNL     1      -5.665  12.053  18.420  0.00  0.00    +0.000 OA
ATOM     27  O   UNL     1      -4.328  12.826  19.978  0.00  0.00    +0.000 OA
ENDBRANCH  23  25
ENDBRANCH  18  19
ENDBRANCH  17  18
ENDBRANCH   4  17
TORSDOF 5
ENDMDL
