MODEL 1
REMARK VINA RESULT:      -8.4      0.000      0.000
REMARK  Name = 
REMARK  9 active torsions:
REMARK  status: ('A' for Active; 'I' for Inactive)
REMARK    1  A    between atoms: C_1  and  N_2
REMARK    2  A    between atoms: C_4  and  C_5
REMARK    3  A    between atoms: C_5  and  C_6
REMARK    4  A    between atoms: C_5  and  C_7
REMARK    5  A    between atoms: C_5  and  C_8
REMARK    6  A    between atoms: C_10  and  N_11
REMARK    7  A    between atoms: N_11  and  C_12
REMARK    8  A    between atoms: C_12  and  C_13
REMARK    9  A    between atoms: C_16  and  C_17
REMARK                            x       y       z     vdW  Elec       q    Type
REMARK                         _______ _______ _______ _____ _____    ______ ____
ROOT
ATOM      1  C   UNL     1       0.678   9.625  18.791  0.00  0.00    +0.000 A 
ATOM      2  C   UNL     1       0.991   9.370  20.104  0.00  0.00    +0.000 A 
ATOM      3  O   UNL     1       1.862   8.326  20.138  0.00  0.00    +0.000 OA
ATOM      4  C   UNL     1       2.043   7.990  18.818  0.00  0.00    +0.000 A 
ATOM      5  N   UNL     1       1.367   8.754  17.981  0.00  0.00    +0.000 NA
ENDROOT
BRANCH   4   6
ATOM      6  C   UNL     1       2.944   6.867  18.547  0.00  0.00    +0.000 A 
ATOM      7  C   UNL     1       3.914   7.022  17.539  0.00  0.00    +0.000 A 
ATOM      8  C   UNL     1       4.775   5.978  17.205  0.00  0.00    +0.000 A 
ATOM      9  C   UNL     1       4.677   4.765  17.877  0.00  0.00    +0.000 A 
ATOM     10  C   UNL     1       3.731   4.575  18.895  0.00  0.00    +0.000 A 
ATOM     11  C   UNL     1       3.672   3.340  19.562  0.00  0.00    +0.000 A 
ATOM     12  C   UNL     1       2.754   3.118  20.587  0.00  0.00    +0.000 A 
ATOM     13  C   UNL     1       1.889   4.133  20.965  0.00  0.00    +0.000 A 
ATOM     14  C   UNL     1       1.939   5.366  20.309  0.00  0.00    +0.000 A 
ATOM     15  C   UNL     1       2.850   5.627  19.255  0.00  0.00    +0.000 A 
ENDBRANCH   4   6
BRANCH   1  16
ATOM     16  C   UNL     1      -0.227  10.667  18.230  0.00  0.00    +0.000 C 
BRANCH  16  17
ATOM     17  N   UNL     1      -1.160  10.186  17.215  0.00  0.00    +0.000 N 
ATOM     18  H   UNL     1      -0.804   9.409  16.664  0.00  0.00    +0.000 HD
BRANCH  17  24
ATOM     19  C   UNL     1      -2.872  10.193  14.728  0.00  0.00    +0.000 C 
ATOM     20  N   UNL     1      -3.240  10.591  16.064  0.00  0.00    +0.000 N 
ATOM     21  N   UNL     1      -4.477  11.084  16.273  0.00  0.00    +0.000 NA
ATOM     22  C   UNL     1      -4.495  11.408  17.571  0.00  0.00    +0.000 A 
ATOM     23  C   UNL     1      -3.271  11.064  18.194  0.00  0.00    +0.000 A 
ATOM     24  C   UNL     1      -2.457  10.579  17.197  0.00  0.00    +0.000 A 
BRANCH  22  25
ATOM     25  C   UNL     1      -5.718  12.048  18.203  0.00  0.00    +0.000 C 
ATOM     26  C   UNL     1      -6.764  10.964  18.526  0.00  0.00    +0.000 C 
ATOM     27  C   UNL     1      -5.339  12.778  19.510  0.00  0.00    +0.000 C 
ATOM     28  C   UNL     1      -6.360  13.088  17.260  0.00  0.00    +0.000 C 
ENDBRANCH  22  25
ENDBRANCH  17  24
ENDBRANCH  16  17
ENDBRANCH   1  16
TORSDOF 5
ENDMDL
MODEL 2
REMARK VINA RESULT:      -8.3      2.747      3.310
REMARK  Name = 
REMARK  9 active torsions:
REMARK  status: ('A' for Active; 'I' for Inactive)
REMARK    1  A    between atoms: C_1  and  N_2
REMARK    2  A    between atoms: C_4  and  C_5
REMARK    3  A    between atoms: C_5  and  C_6
REMARK    4  A    between atoms: C_5  and  C_7
REMARK    5  A    between atoms: C_5  and  C_8
REMARK    6  A    between atoms: C_10  and  N_11
REMARK    7  A    between atoms: N_11  and  C_12
REMARK    8  A    between atoms: C_12  and  C_13
REMARK    9  A    between atoms: C_16  and  C_17
REMARK                            x       y       z     vdW  Elec       q    Type
REMARK                         _______ _______ _______ _____ _____    ______ ____
ROOT
ATOM      1  C   UNL     1       1.450   8.981  19.452  0.00  0.00    +0.000 A 
ATOM      2  C   UNL     1       1.534   9.487  18.177  0.00  0.00    +0.000 A 
ATOM      3  O   UNL     1       2.269   8.624  17.426  0.00  0.00    +0.000 OA
ATOM      4  C   UNL     1       2.603   7.614  18.295  0.00  0.00    +0.000 A 
ATOM      5  N   UNL     1       2.117   7.781  19.511  0.00  0.00    +0.000 NA
ENDROOT
BRANCH   4   6
ATOM      6  C   UNL     1       3.420   6.526  17.750  0.00  0.00    +0.000 A 
ATOM      7  C   UNL     1       4.636   6.858  17.125  0.00  0.00    +0.000 A 
ATOM      8  C   UNL     1       5.440   5.874  16.551  0.00  0.00    +0.000 A 
ATOM      9  C   UNL     1       5.036   4.544  16.597  0.00  0.00    +0.000 A 
ATOM     10  C   UNL     1       3.836   4.172  17.221  0.00  0.00    +0.000 A 
ATOM     11  C   UNL     1       3.468   2.818  17.261  0.00  0.00    +0.000 A 
ATOM     12  C   UNL     1       2.290   2.408  17.882  0.00  0.00    +0.000 A 
ATOM     13  C   UNL     1       1.468   3.350  18.481  0.00  0.00    +0.000 A 
ATOM     14  C   UNL     1       1.823   4.701  18.448  0.00  0.00    +0.000 A 
ATOM     15  C   UNL     1       3.007   5.158  17.817  0.00  0.00    +0.000 A 
ENDBRANCH   4   6
BRANCH   1  16
ATOM     16  C   UNL     1       0.753   9.550  20.640  0.00  0.00    +0.000 C 
BRANCH  16  17
ATOM     17  N   UNL     1       0.582  10.999  20.614  0.00  0.00    +0.000 N 
ATOM     18  H   UNL     1       1.395  11.504  20.268  0.00  0.00    +0.000 HD
BRANCH  17  24
ATOM     19  C   UNL     1      -1.057  12.188  18.374  0.00  0.00    +0.000 C 
ATOM     20  N   UNL     1      -1.378  12.128  19.779  0.00  0.00    +0.000 N 
ATOM     21  N   UNL     1      -2.519  12.705  20.205  0.00  0.00    +0.000 NA
ATOM     22  C   UNL     1      -2.507  12.535  21.533  0.00  0.00    +0.000 A 
ATOM     23  C   UNL     1      -1.369  11.793  21.935  0.00  0.00    +0.000 A 
ATOM     24  C   UNL     1      -0.630  11.577  20.795  0.00  0.00    +0.000 A 
BRANCH  22  25
ATOM     25  C   UNL     1      -3.617  13.091  22.405  0.00  0.00    +0.000 C 
ATOM     26  C   UNL     1      -3.547  12.454  23.805  0.00  0.00    +0.000 C 
ATOM     27  C   UNL     1      -3.483  14.623  22.549  0.00  0.00    +0.000 C 
ATOM     28  C   UNL     1      -5.007  12.802  21.799  0.00  0.00    +0.000 C 
ENDBRANCH  22  25
ENDBRANCH  17  24
ENDBRANCH  16  17
ENDBRANCH   1  16
TORSDOF 5
ENDMDL
MODEL 3
REMARK VINA RESULT:      -8.3      2.234      2.802
REMARK  Name = 
REMARK  9 active torsions:
REMARK  status: ('A' for Active; 'I' for Inactive)
REMARK    1  A    between atoms: C_1  and  N_2
REMARK    2  A    between atoms: C_4  and  C_5
REMARK    3  A    between atoms: C_5  and  C_6
REMARK    4  A    between atoms: C_5  and  C_7
REMARK    5  A    between atoms: C_5  and  C_8
REMARK    6  A    between atoms: C_10  and  N_11
REMARK    7  A    between atoms: N_11  and  C_12
REMARK    8  A    between atoms: C_12  and  C_13
REMARK    9  A    between atoms: C_16  and  C_17
REMARK                            x       y       z     vdW  Elec       q    Type
REMARK                         _______ _______ _______ _____ _____    ______ ____
ROOT
ATOM      1  C   UNL     1       1.646   9.097  18.708  0.00  0.00    +0.000 A 
ATOM      2  C   UNL     1       1.702   8.455  19.922  0.00  0.00    +0.000 A 
ATOM      3  O   UNL     1       2.294   7.245  19.737  0.00  0.00    +0.000 OA
ATOM      4  C   UNL     1       2.580   7.207  18.393  0.00  0.00    +0.000 A 
ATOM      5  N   UNL     1       2.224   8.302  17.747  0.00  0.00    +0.000 NA
ENDROOT
BRANCH   4   6
ATOM      6  C   UNL     1       3.227   5.991  17.897  0.00  0.00    +0.000 A 
ATOM      7  C   UNL     1       4.405   6.128  17.138  0.00  0.00    +0.000 A 
ATOM      8  C   UNL     1       5.047   5.012  16.602  0.00  0.00    +0.000 A 
ATOM      9  C   UNL     1       4.519   3.745  16.820  0.00  0.00    +0.000 A 
ATOM     10  C   UNL     1       3.353   3.566  17.581  0.00  0.00    +0.000 A 
ATOM     11  C   UNL     1       2.858   2.269  17.793  0.00  0.00    +0.000 A 
ATOM     12  C   UNL     1       1.710   2.051  18.553  0.00  0.00    +0.000 A 
ATOM     13  C   UNL     1       1.048   3.129  19.119  0.00  0.00    +0.000 A 
ATOM     14  C   UNL     1       1.532   4.424  18.916  0.00  0.00    +0.000 A 
ATOM     15  C   UNL     1       2.689   4.688  18.140  0.00  0.00    +0.000 A 
ENDBRANCH   4   6
BRANCH   1  16
ATOM     16  C   UNL     1       1.095  10.443  18.385  0.00  0.00    +0.000 C 
BRANCH  16  17
ATOM     17  N   UNL     1      -0.339  10.468  18.115  0.00  0.00    +0.000 N 
ATOM     18  H   UNL     1      -0.631   9.829  17.378  0.00  0.00    +0.000 HD
BRANCH  17  24
ATOM     19  C   UNL     1      -3.085  11.393  17.267  0.00  0.00    +0.000 C 
ATOM     20  N   UNL     1      -2.460  11.526  18.559  0.00  0.00    +0.000 N 
ATOM     21  N   UNL     1      -3.123  12.183  19.532  0.00  0.00    +0.000 NA
ATOM     22  C   UNL     1      -2.277  12.188  20.570  0.00  0.00    +0.000 A 
ATOM     23  C   UNL     1      -1.093  11.477  20.258  0.00  0.00    +0.000 A 
ATOM     24  C   UNL     1      -1.210  11.095  18.942  0.00  0.00    +0.000 A 
BRANCH  22  25
ATOM     25  C   UNL     1      -2.637  12.882  21.871  0.00  0.00    +0.000 C 
ATOM     26  C   UNL     1      -4.139  13.221  21.882  0.00  0.00    +0.000 C 
ATOM     27  C   UNL     1      -2.322  11.973  23.079  0.00  0.00    +0.000 C 
ATOM     28  C   UNL     1      -1.834  14.188  22.052  0.00  0.00    +0.000 C 
ENDBRANCH  22  25
ENDBRANCH  17  24
ENDBRANCH  16  17
ENDBRANCH   1  16
TORSDOF 5
ENDMDL
MODEL 4
REMARK VINA RESULT:      -8.2      1.992      2.782
REMARK  Name = 
REMARK  9 active torsions:
REMARK  status: ('A' for Active; 'I' for Inactive)
REMARK    1  A    between atoms: C_1  and  N_2
REMARK    2  A    between atoms: C_4  and  C_5
REMARK    3  A    between atoms: C_5  and  C_6
REMARK    4  A    between atoms: C_5  and  C_7
REMARK    5  A    between atoms: C_5  and  C_8
REMARK    6  A    between atoms: C_10  and  N_11
REMARK    7  A    between atoms: N_11  and  C_12
REMARK    8  A    between atoms: C_12  and  C_13
REMARK    9  A    between atoms: C_16  and  C_17
REMARK                            x       y       z     vdW  Elec       q    Type
REMARK                         _______ _______ _______ _____ _____    ______ ____
ROOT
ATOM      1  C   UNL     1       1.479   9.105  19.126  0.00  0.00    +0.000 A 
ATOM      2  C   UNL     1       1.697   9.534  17.838  0.00  0.00    +0.000 A 
ATOM      3  O   UNL     1       2.477   8.613  17.211  0.00  0.00    +0.000 OA
ATOM      4  C   UNL     1       2.700   7.648  18.163  0.00  0.00    +0.000 A 
ATOM      5  N   UNL     1       2.106   7.897  19.315  0.00  0.00    +0.000 NA
ENDROOT
BRANCH   4   6
ATOM      6  C   UNL     1       3.535   6.514  17.761  0.00  0.00    +0.000 A 
ATOM      7  C   UNL     1       4.830   6.781  17.277  0.00  0.00    +0.000 A 
ATOM      8  C   UNL     1       5.659   5.748  16.841  0.00  0.00    +0.000 A 
ATOM      9  C   UNL     1       5.204   4.436  16.885  0.00  0.00    +0.000 A 
ATOM     10  C   UNL     1       3.924   4.129  17.371  0.00  0.00    +0.000 A 
ATOM     11  C   UNL     1       3.504   2.789  17.415  0.00  0.00    +0.000 A 
ATOM     12  C   UNL     1       2.246   2.443  17.902  0.00  0.00    +0.000 A 
ATOM     13  C   UNL     1       1.393   3.435  18.362  0.00  0.00    +0.000 A 
ATOM     14  C   UNL     1       1.800   4.771  18.325  0.00  0.00    +0.000 A 
ATOM     15  C   UNL     1       3.067   5.164  17.826  0.00  0.00    +0.000 A 
ENDBRANCH   4   6
BRANCH   1  16
ATOM     16  C   UNL     1       0.689   9.757  20.208  0.00  0.00    +0.000 C 
BRANCH  16  17
ATOM     17  N   UNL     1       0.249  11.117  19.911  0.00  0.00    +0.000 N 
ATOM     18  H   UNL     1       1.007  11.795  19.869  0.00  0.00    +0.000 HD
BRANCH  17  24
ATOM     19  C   UNL     1      -1.645  12.977  21.349  0.00  0.00    +0.000 C 
ATOM     20  N   UNL     1      -1.880  12.223  20.142  0.00  0.00    +0.000 N 
ATOM     21  N   UNL     1      -3.101  12.283  19.573  0.00  0.00    +0.000 NA
ATOM     22  C   UNL     1      -3.024  11.451  18.526  0.00  0.00    +0.000 A 
ATOM     23  C   UNL     1      -1.722  10.908  18.410  0.00  0.00    +0.000 A 
ATOM     24  C   UNL     1      -1.010  11.383  19.486  0.00  0.00    +0.000 A 
BRANCH  22  25
ATOM     25  C   UNL     1      -4.226  11.198  17.635  0.00  0.00    +0.000 C 
ATOM     26  C   UNL     1      -5.211  12.377  17.743  0.00  0.00    +0.000 C 
ATOM     27  C   UNL     1      -3.792  11.047  16.161  0.00  0.00    +0.000 C 
ATOM     28  C   UNL     1      -4.962   9.901  18.038  0.00  0.00    +0.000 C 
ENDBRANCH  22  25
ENDBRANCH  17  24
ENDBRANCH  16  17
ENDBRANCH   1  16
TORSDOF 5
ENDMDL
MODEL 5
REMARK VINA RESULT:      -8.1      1.786      2.292
REMARK  Name = 
REMARK  9 active torsions:
REMARK  status: ('A' for Active; 'I' for Inactive)
REMARK    1  A    between atoms: C_1  and  N_2
REMARK    2  A    between atoms: C_4  and  C_5
REMARK    3  A    between atoms: C_5  and  C_6
REMARK    4  A    between atoms: C_5  and  C_7
REMARK    5  A    between atoms: C_5  and  C_8
REMARK    6  A    between atoms: C_10  and  N_11
REMARK    7  A    between atoms: N_11  and  C_12
REMARK    8  A    between atoms: C_12  and  C_13
REMARK    9  A    between atoms: C_16  and  C_17
REMARK                            x       y       z     vdW  Elec       q    Type
REMARK                         _______ _______ _______ _____ _____    ______ ____
ROOT
ATOM      1  C   UNL     1       1.567   9.349  18.874  0.00  0.00    +0.000 A 
ATOM      2  C   UNL     1       1.542   8.622  20.040  0.00  0.00    +0.000 A 
ATOM      3  O   UNL     1       2.152   7.429  19.811  0.00  0.00    +0.000 OA
ATOM      4  C   UNL     1       2.530   7.487  18.491  0.00  0.00    +0.000 A 
ATOM      5  N   UNL     1       2.214   8.624  17.901  0.00  0.00    +0.000 NA
ENDROOT
BRANCH   4   6
ATOM      6  C   UNL     1       3.217   6.309  17.956  0.00  0.00    +0.000 A 
ATOM      7  C   UNL     1       4.396   6.508  17.214  0.00  0.00    +0.000 A 
ATOM      8  C   UNL     1       5.075   5.432  16.643  0.00  0.00    +0.000 A 
ATOM      9  C   UNL     1       4.582   4.143  16.809  0.00  0.00    +0.000 A 
ATOM     10  C   UNL     1       3.416   3.902  17.551  0.00  0.00    +0.000 A 
ATOM     11  C   UNL     1       2.956   2.585  17.710  0.00  0.00    +0.000 A 
ATOM     12  C   UNL     1       1.809   2.305  18.450  0.00  0.00    +0.000 A 
ATOM     13  C   UNL     1       1.111   3.342  19.049  0.00  0.00    +0.000 A 
ATOM     14  C   UNL     1       1.558   4.657  18.899  0.00  0.00    +0.000 A 
ATOM     15  C   UNL     1       2.714   4.983  18.145  0.00  0.00    +0.000 A 
ENDBRANCH   4   6
BRANCH   1  16
ATOM     16  C   UNL     1       1.032  10.714  18.609  0.00  0.00    +0.000 C 
BRANCH  16  17
ATOM     17  N   UNL     1      -0.245  10.745  17.903  0.00  0.00    +0.000 N 
ATOM     18  H   UNL     1      -0.251  10.208  17.038  0.00  0.00    +0.000 HD
BRANCH  17  24
ATOM     19  C   UNL     1      -2.918  10.900  16.507  0.00  0.00    +0.000 C 
ATOM     20  N   UNL     1      -2.587  11.312  17.849  0.00  0.00    +0.000 N 
ATOM     21  N   UNL     1      -3.546  11.893  18.599  0.00  0.00    +0.000 NA
ATOM     22  C   UNL     1      -2.930  12.206  19.746  0.00  0.00    +0.000 A 
ATOM     23  C   UNL     1      -1.584  11.767  19.732  0.00  0.00    +0.000 A 
ATOM     24  C   UNL     1      -1.369  11.232  18.483  0.00  0.00    +0.000 A 
BRANCH  22  25
ATOM     25  C   UNL     1      -3.666  12.928  20.860  0.00  0.00    +0.000 C 
ATOM     26  C   UNL     1      -3.472  14.449  20.712  0.00  0.00    +0.000 C 
ATOM     27  C   UNL     1      -5.177  12.613  20.810  0.00  0.00    +0.000 C 
ATOM     28  C   UNL     1      -3.148  12.496  22.249  0.00  0.00    +0.000 C 
ENDBRANCH  22  25
ENDBRANCH  17  24
ENDBRANCH  16  17
ENDBRANCH   1  16
TORSDOF 5
ENDMDL
MODEL 6
REMARK VINA RESULT:      -8.1      1.203      1.474
REMARK  Name = 
REMARK  9 active torsions:
REMARK  status: ('A' for Active; 'I' for Inactive)
REMARK    1  A    between atoms: C_1  and  N_2
REMARK    2  A    between atoms: C_4  and  C_5
REMARK    3  A    between atoms: C_5  and  C_6
REMARK    4  A    between atoms: C_5  and  C_7
REMARK    5  A    between atoms: C_5  and  C_8
REMARK    6  A    between atoms: C_10  and  N_11
REMARK    7  A    between atoms: N_11  and  C_12
REMARK    8  A    between atoms: C_12  and  C_13
REMARK    9  A    between atoms: C_16  and  C_17
REMARK                            x       y       z     vdW  Elec       q    Type
REMARK                         _______ _______ _______ _____ _____    ______ ____
ROOT
ATOM      1  C   UNL     1       0.947   9.527  19.510  0.00  0.00    +0.000 A 
ATOM      2  C   UNL     1       1.251   8.767  20.615  0.00  0.00    +0.000 A 
ATOM      3  O   UNL     1       2.034   7.730  20.214  0.00  0.00    +0.000 OA
ATOM      4  C   UNL     1       2.176   7.912  18.860  0.00  0.00    +0.000 A 
ATOM      5  N   UNL     1       1.556   8.985  18.404  0.00  0.00    +0.000 NA
ENDROOT
BRANCH   4   6
ATOM      6  C   UNL     1       2.981   6.918  18.147  0.00  0.00    +0.000 A 
ATOM      7  C   UNL     1       4.100   7.367  17.420  0.00  0.00    +0.000 A 
ATOM      8  C   UNL     1       4.884   6.476  16.687  0.00  0.00    +0.000 A 
ATOM      9  C   UNL     1       4.558   5.125  16.674  0.00  0.00    +0.000 A 
ATOM     10  C   UNL     1       3.457   4.638  17.394  0.00  0.00    +0.000 A 
ATOM     11  C   UNL     1       3.167   3.264  17.368  0.00  0.00    +0.000 A 
ATOM     12  C   UNL     1       2.090   2.740  18.080  0.00  0.00    +0.000 A 
ATOM     13  C   UNL     1       1.293   3.585  18.836  0.00  0.00    +0.000 A 
ATOM     14  C   UNL     1       1.571   4.954  18.870  0.00  0.00    +0.000 A 
ATOM     15  C   UNL     1       2.651   5.526  18.151  0.00  0.00    +0.000 A 
ENDBRANCH   4   6
BRANCH   1  16
ATOM     16  C   UNL     1       0.123  10.765  19.424  0.00  0.00    +0.000 C 
BRANCH  16  17
ATOM     17  N   UNL     1      -0.598  10.935  18.166  0.00  0.00    +0.000 N 
ATOM     18  H   UNL     1      -0.027  10.776  17.339  0.00  0.00    +0.000 HD
BRANCH  17  24
ATOM     19  C   UNL     1      -2.322   9.622  16.064  0.00  0.00    +0.000 C 
ATOM     20  N   UNL     1      -2.738  10.452  17.167  0.00  0.00    +0.000 N 
ATOM     21  N   UNL     1      -4.047  10.751  17.291  0.00  0.00    +0.000 NA
ATOM     22  C   UNL     1      -4.107  11.565  18.353  0.00  0.00    +0.000 A 
ATOM     23  C   UNL     1      -2.826  11.731  18.932  0.00  0.00    +0.000 A 
ATOM     24  C   UNL     1      -1.949  11.042  18.128  0.00  0.00    +0.000 A 
BRANCH  22  25
ATOM     25  C   UNL     1      -5.423  12.169  18.805  0.00  0.00    +0.000 C 
ATOM     26  C   UNL     1      -6.022  13.020  17.670  0.00  0.00    +0.000 C 
ATOM     27  C   UNL     1      -6.432  11.063  19.183  0.00  0.00    +0.000 C 
ATOM     28  C   UNL     1      -5.233  13.067  20.047  0.00  0.00    +0.000 C 
ENDBRANCH  22  25
ENDBRANCH  17  24
ENDBRANCH  16  17
ENDBRANCH   1  16
TORSDOF 5
ENDMDL
MODEL 7
REMARK VINA RESULT:      -8.1      4.772      8.797
REMARK  Name = 
REMARK  9 active torsions:
REMARK  status: ('A' for Active; 'I' for Inactive)
REMARK    1  A    between atoms: C_1  and  N_2
REMARK    2  A    between atoms: C_4  and  C_5
REMARK    3  A    between atoms: C_5  and  C_6
REMARK    4  A    between atoms: C_5  and  C_7
REMARK    5  A    between atoms: C_5  and  C_8
REMARK    6  A    between atoms: C_10  and  N_11
REMARK    7  A    between atoms: N_11  and  C_12
REMARK    8  A    between atoms: C_12  and  C_13
REMARK    9  A    between atoms: C_16  and  C_17
REMARK                            x       y       z     vdW  Elec       q    Type
REMARK                         _______ _______ _______ _____ _____    ______ ____
ROOT
ATOM      1  C   UNL     1       2.514   4.065  20.696  0.00  0.00    +0.000 A 
ATOM      2  C   UNL     1       1.141   4.059  20.629  0.00  0.00    +0.000 A 
ATOM      3  O   UNL     1       0.732   5.285  20.207  0.00  0.00    +0.000 OA
ATOM      4  C   UNL     1       1.896   5.993  20.031  0.00  0.00    +0.000 A 
ATOM      5  N   UNL     1       2.984   5.293  20.296  0.00  0.00    +0.000 NA
ENDROOT
BRANCH   4   6
ATOM      6  C   UNL     1       1.757   7.379  19.579  0.00  0.00    +0.000 A 
ATOM      7  C   UNL     1       2.236   7.711  18.298  0.00  0.00    +0.000 A 
ATOM      8  C   UNL     1       2.170   9.021  17.825  0.00  0.00    +0.000 A 
ATOM      9  C   UNL     1       1.624  10.015  18.628  0.00  0.00    +0.000 A 
ATOM     10  C   UNL     1       1.126   9.722  19.907  0.00  0.00    +0.000 A 
ATOM     11  C   UNL     1       0.567  10.749  20.684  0.00  0.00    +0.000 A 
ATOM     12  C   UNL     1       0.051  10.495  21.953  0.00  0.00    +0.000 A 
ATOM     13  C   UNL     1       0.080   9.204  22.458  0.00  0.00    +0.000 A 
ATOM     14  C   UNL     1       0.633   8.173  21.694  0.00  0.00    +0.000 A 
ATOM     15  C   UNL     1       1.178   8.394  20.404  0.00  0.00    +0.000 A 
ENDBRANCH   4   6
BRANCH   1  16
ATOM     16  C   UNL     1       3.436   2.966  21.098  0.00  0.00    +0.000 C 
BRANCH  16  17
ATOM     17  N   UNL     1       4.313   2.482  20.036  0.00  0.00    +0.000 N 
ATOM     18  H   UNL     1       4.590   1.508  20.142  0.00  0.00    +0.000 HD
BRANCH  17  24
ATOM     19  C   UNL     1       2.623   2.192  17.550  0.00  0.00    +0.000 C 
ATOM     20  N   UNL     1       3.755   3.059  17.762  0.00  0.00    +0.000 N 
ATOM     21  N   UNL     1       4.186   3.821  16.736  0.00  0.00    +0.000 NA
ATOM     22  C   UNL     1       5.260   4.457  17.218  0.00  0.00    +0.000 A 
ATOM     23  C   UNL     1       5.472   4.130  18.579  0.00  0.00    +0.000 A 
ATOM     24  C   UNL     1       4.517   3.193  18.901  0.00  0.00    +0.000 A 
BRANCH  22  25
ATOM     25  C   UNL     1       6.074   5.395  16.345  0.00  0.00    +0.000 C 
ATOM     26  C   UNL     1       6.721   4.603  15.193  0.00  0.00    +0.000 C 
ATOM     27  C   UNL     1       5.177   6.501  15.747  0.00  0.00    +0.000 C 
ATOM     28  C   UNL     1       7.190   6.091  17.154  0.00  0.00    +0.000 C 
ENDBRANCH  22  25
ENDBRANCH  17  24
ENDBRANCH  16  17
ENDBRANCH   1  16
TORSDOF 5
ENDMDL
MODEL 8
REMARK VINA RESULT:      -8.0      3.419      4.264
REMARK  Name = 
REMARK  9 active torsions:
REMARK  status: ('A' for Active; 'I' for Inactive)
REMARK    1  A    between atoms: C_1  and  N_2
REMARK    2  A    between atoms: C_4  and  C_5
REMARK    3  A    between atoms: C_5  and  C_6
REMARK    4  A    between atoms: C_5  and  C_7
REMARK    5  A    between atoms: C_5  and  C_8
REMARK    6  A    between atoms: C_10  and  N_11
REMARK    7  A    between atoms: N_11  and  C_12
REMARK    8  A    between atoms: C_12  and  C_13
REMARK    9  A    between atoms: C_16  and  C_17
REMARK                            x       y       z     vdW  Elec       q    Type
REMARK                         _______ _______ _______ _____ _____    ______ ____
ROOT
ATOM      1  C   UNL     1       1.271   9.016  19.653  0.00  0.00    +0.000 A 
ATOM      2  C   UNL     1       1.503   8.129  20.677  0.00  0.00    +0.000 A 
ATOM      3  O   UNL     1       2.248   7.102  20.190  0.00  0.00    +0.000 OA
ATOM      4  C   UNL     1       2.441   7.418  18.867  0.00  0.00    +0.000 A 
ATOM      5  N   UNL     1       1.888   8.563  18.511  0.00  0.00    +0.000 NA
ENDROOT
BRANCH   4   6
ATOM      6  C   UNL     1       3.219   6.464  18.073  0.00  0.00    +0.000 A 
ATOM      7  C   UNL     1       4.312   6.951  17.332  0.00  0.00    +0.000 A 
ATOM      8  C   UNL     1       5.068   6.102  16.525  0.00  0.00    +0.000 A 
ATOM      9  C   UNL     1       4.741   4.753  16.451  0.00  0.00    +0.000 A 
ATOM     10  C   UNL     1       3.666   4.227  17.184  0.00  0.00    +0.000 A 
ATOM     11  C   UNL     1       3.374   2.856  17.095  0.00  0.00    +0.000 A 
ATOM     12  C   UNL     1       2.323   2.294  17.817  0.00  0.00    +0.000 A 
ATOM     13  C   UNL     1       1.554   3.097  18.645  0.00  0.00    +0.000 A 
ATOM     14  C   UNL     1       1.835   4.463  18.742  0.00  0.00    +0.000 A 
ATOM     15  C   UNL     1       2.888   5.073  18.016  0.00  0.00    +0.000 A 
ENDBRANCH   4   6
BRANCH   1  16
ATOM     16  C   UNL     1       0.512  10.298  19.677  0.00  0.00    +0.000 C 
BRANCH  16  17
ATOM     17  N   UNL     1       0.805  11.161  20.818  0.00  0.00    +0.000 N 
ATOM     18  H   UNL     1       1.734  11.575  20.792  0.00  0.00    +0.000 HD
BRANCH  17  24
ATOM     19  C   UNL     1      -0.048   9.564  23.234  0.00  0.00    +0.000 C 
ATOM     20  N   UNL     1      -0.562  10.831  22.776  0.00  0.00    +0.000 N 
ATOM     21  N   UNL     1      -1.587  11.391  23.448  0.00  0.00    +0.000 NA
ATOM     22  C   UNL     1      -1.869  12.506  22.763  0.00  0.00    +0.000 A 
ATOM     23  C   UNL     1      -0.972  12.672  21.680  0.00  0.00    +0.000 A 
ATOM     24  C   UNL     1      -0.164  11.559  21.678  0.00  0.00    +0.000 A 
BRANCH  22  25
ATOM     25  C   UNL     1      -3.012  13.414  23.177  0.00  0.00    +0.000 C 
ATOM     26  C   UNL     1      -2.465  14.605  23.984  0.00  0.00    +0.000 C 
ATOM     27  C   UNL     1      -3.758  13.954  21.937  0.00  0.00    +0.000 C 
ATOM     28  C   UNL     1      -4.043  12.660  24.046  0.00  0.00    +0.000 C 
ENDBRANCH  22  25
ENDBRANCH  17  24
ENDBRANCH  16  17
ENDBRANCH   1  16
TORSDOF 5
ENDMDL
MODEL 9
REMARK VINA RESULT:      -8.0      2.074      8.781
REMARK  Name = 
REMARK  9 active torsions:
REMARK  status: ('A' for Active; 'I' for Inactive)
REMARK    1  A    between atoms: C_1  and  N_2
REMARK    2  A    between atoms: C_4  and  C_5
REMARK    3  A    between atoms: C_5  and  C_6
REMARK    4  A    between atoms: C_5  and  C_7
REMARK    5  A    between atoms: C_5  and  C_8
REMARK    6  A    between atoms: C_10  and  N_11
REMARK    7  A    between atoms: N_11  and  C_12
REMARK    8  A    between atoms: C_12  and  C_13
REMARK    9  A    between atoms: C_16  and  C_17
REMARK                            x       y       z     vdW  Elec       q    Type
REMARK                         _______ _______ _______ _____ _____    ______ ____
ROOT
ATOM      1  C   UNL     1       0.059   9.784  20.211  0.00  0.00    +0.000 A 
ATOM      2  C   UNL     1       0.545  10.967  19.709  0.00  0.00    +0.000 A 
ATOM      3  O   UNL     1      -0.294  11.388  18.726  0.00  0.00    +0.000 OA
ATOM      4  C   UNL     1      -1.272  10.425  18.676  0.00  0.00    +0.000 A 
ATOM      5  N   UNL     1      -1.107   9.459  19.560  0.00  0.00    +0.000 NA
ENDROOT
BRANCH   4   6
ATOM      6  C   UNL     1      -2.329  10.616  17.680  0.00  0.00    +0.000 A 
ATOM      7  C   UNL     1      -2.141  10.066  16.398  0.00  0.00    +0.000 A 
ATOM      8  C   UNL     1      -3.091  10.248  15.393  0.00  0.00    +0.000 A 
ATOM      9  C   UNL     1      -4.241  10.982  15.659  0.00  0.00    +0.000 A 
ATOM     10  C   UNL     1      -4.469  11.537  16.927  0.00  0.00    +0.000 A 
ATOM     11  C   UNL     1      -5.650  12.260  17.164  0.00  0.00    +0.000 A 
ATOM     12  C   UNL     1      -5.918  12.815  18.413  0.00  0.00    +0.000 A 
ATOM     13  C   UNL     1      -5.010  12.646  19.447  0.00  0.00    +0.000 A 
ATOM     14  C   UNL     1      -3.832  11.928  19.225  0.00  0.00    +0.000 A 
ATOM     15  C   UNL     1      -3.518  11.358  17.966  0.00  0.00    +0.000 A 
ENDBRANCH   4   6
BRANCH   1  16
ATOM     16  C   UNL     1       0.614   8.930  21.299  0.00  0.00    +0.000 C 
BRANCH  16  17
ATOM     17  N   UNL     1       1.929   8.360  21.018  0.00  0.00    +0.000 N 
ATOM     18  H   UNL     1       2.685   8.790  21.547  0.00  0.00    +0.000 HD
BRANCH  17  24
ATOM     19  C   UNL     1       2.634   8.268  18.084  0.00  0.00    +0.000 C 
ATOM     20  N   UNL     1       2.386   7.163  18.976  0.00  0.00    +0.000 N 
ATOM     21  N   UNL     1       2.410   5.911  18.475  0.00  0.00    +0.000 NA
ATOM     22  C   UNL     1       2.094   5.127  19.514  0.00  0.00    +0.000 A 
ATOM     23  C   UNL     1       1.924   5.895  20.691  0.00  0.00    +0.000 A 
ATOM     24  C   UNL     1       2.073   7.210  20.316  0.00  0.00    +0.000 A 
BRANCH  22  25
ATOM     25  C   UNL     1       1.969   3.624  19.352  0.00  0.00    +0.000 C 
ATOM     26  C   UNL     1       3.324   2.954  19.648  0.00  0.00    +0.000 C 
ATOM     27  C   UNL     1       0.911   3.055  20.322  0.00  0.00    +0.000 C 
ATOM     28  C   UNL     1       1.534   3.246  17.919  0.00  0.00    +0.000 C 
ENDBRANCH  22  25
ENDBRANCH  17  24
ENDBRANCH  16  17
ENDBRANCH   1  16
TORSDOF 5
ENDMDL
