MODEL 1
REMARK VINA RESULT:      -7.3      0.000      0.000
REMARK  Name = 
REMARK  6 active torsions:
REMARK  status: ('A' for Active; 'I' for Inactive)
REMARK    1  A    between atoms: N_1  and  C_2
REMARK    2  A    between atoms: C_2  and  C_3
REMARK    3  A    between atoms: C_3  and  C_4
REMARK    4  A    between atoms: C_3  and  N_14
REMARK    5  A    between atoms: C_7  and  C_8
REMARK    6  A    between atoms: N_17  and  C_18
REMARK                            x       y       z     vdW  Elec       q    Type
REMARK                         _______ _______ _______ _____ _____    ______ ____
ROOT
ATOM      1  N   UNL     1       3.025   5.812  18.108  0.00  0.00    +0.000 NA
ATOM      2  C   UNL     1       2.304   5.562  19.365  0.00  0.00    +0.000 C 
ATOM      3  C   UNL     1       2.364   6.693  20.396  0.00  0.00    +0.000 C 
ATOM      4  N   UNL     1       2.038   8.001  19.815  0.00  0.00    +0.000 N 
ATOM      5  C   UNL     1       2.387   8.319  18.427  0.00  0.00    +0.000 C 
ATOM      6  C   UNL     1       2.509   7.064  17.517  0.00  0.00    +0.000 C 
ENDROOT
BRANCH   4   7
ATOM      7  C   UNL     1       1.141   8.799  20.501  0.00  0.00    +0.000 A 
ATOM      8  N   UNL     1       1.122   8.682  21.846  0.00  0.00    +0.000 NA
ATOM      9  C   UNL     1       0.273   9.460  22.526  0.00  0.00    +0.000 A 
ATOM     10  N   UNL     1      -0.554  10.369  22.002  0.00  0.00    +0.000 NA
ATOM     11  C   UNL     1      -0.521  10.486  20.666  0.00  0.00    +0.000 A 
ATOM     12  N   UNL     1      -1.317  11.501  20.134  0.00  0.00    +0.000 N 
ATOM     13  C   UNL     1       0.302   9.711  19.866  0.00  0.00    +0.000 A 
ATOM     14  F   UNL     1       0.311   9.869  18.534  0.00  0.00    +0.000 F 
ATOM     15  H   UNL     1      -1.891  11.886  20.880  0.00  0.00    +0.000 HD
ATOM     16  H   UNL     1      -1.857  11.192  19.332  0.00  0.00    +0.000 HD
ENDBRANCH   4   7
BRANCH   1  17
ATOM     17  C   UNL     1       4.509   5.702  18.158  0.00  0.00    +0.000 C 
BRANCH  17  18
ATOM     18  C   UNL     1       5.107   5.199  16.821  0.00  0.00    +0.000 A 
ATOM     19  C   UNL     1       5.386   6.071  15.755  0.00  0.00    +0.000 A 
ATOM     20  C   UNL     1       5.674   5.597  14.473  0.00  0.00    +0.000 A 
ATOM     21  C   UNL     1       5.727   4.226  14.219  0.00  0.00    +0.000 A 
ATOM     22  C   UNL     1       5.566   3.342  15.295  0.00  0.00    +0.000 A 
ATOM     23  C   UNL     1       5.255   3.823  16.577  0.00  0.00    +0.000 A 
BRANCH  21  24
ATOM     24  C   UNL     1       5.903   3.718  12.811  0.00  0.00    +0.000 C 
ATOM     25  F   UNL     1       4.770   3.806  12.055  0.00  0.00    +0.000 F 
ATOM     26  F   UNL     1       6.862   4.389  12.119  0.00  0.00    +0.000 F 
ATOM     27  F   UNL     1       6.264   2.404  12.774  0.00  0.00    +0.000 F 
ENDBRANCH  21  24
ENDBRANCH  17  18
BRANCH  17  28
ATOM     28  C   UNL     1       5.127   5.008  19.428  0.00  0.00    +0.000 C 
BRANCH  28  29
ATOM     29  N   UNL     1       6.544   5.296  19.709  0.00  0.00    +0.000 NA
ATOM     30  H   UNL     1       6.972   4.461  20.110  0.00  0.00    +0.000 HD
ATOM     31  H   UNL     1       6.612   6.026  20.414  0.00  0.00    +0.000 HD
ENDBRANCH  28  29
ENDBRANCH  17  28
ENDBRANCH   1  17
TORSDOF 6
ENDMDL
MODEL 2
REMARK VINA RESULT:      -7.3      1.805      2.194
REMARK  Name = 
REMARK  6 active torsions:
REMARK  status: ('A' for Active; 'I' for Inactive)
REMARK    1  A    between atoms: N_1  and  C_2
REMARK    2  A    between atoms: C_2  and  C_3
REMARK    3  A    between atoms: C_3  and  C_4
REMARK    4  A    between atoms: C_3  and  N_14
REMARK    5  A    between atoms: C_7  and  C_8
REMARK    6  A    between atoms: N_17  and  C_18
REMARK                            x       y       z     vdW  Elec       q    Type
REMARK                         _______ _______ _______ _____ _____    ______ ____
ROOT
ATOM      1  N   UNL     1       2.193   4.336  19.376  0.00  0.00    +0.000 NA
ATOM      2  C   UNL     1       1.426   4.890  20.502  0.00  0.00    +0.000 C 
ATOM      3  C   UNL     1       1.884   6.265  20.998  0.00  0.00    +0.000 C 
ATOM      4  N   UNL     1       2.047   7.231  19.904  0.00  0.00    +0.000 N 
ATOM      5  C   UNL     1       2.491   6.799  18.576  0.00  0.00    +0.000 C 
ATOM      6  C   UNL     1       2.159   5.311  18.267  0.00  0.00    +0.000 C 
ENDROOT
BRANCH   4   7
ATOM      7  C   UNL     1       1.493   8.487  20.073  0.00  0.00    +0.000 A 
ATOM      8  N   UNL     1       1.221   8.871  21.338  0.00  0.00    +0.000 NA
ATOM      9  C   UNL     1       0.701  10.091  21.519  0.00  0.00    +0.000 A 
ATOM     10  N   UNL     1       0.441  10.986  20.562  0.00  0.00    +0.000 NA
ATOM     11  C   UNL     1       0.723  10.598  19.309  0.00  0.00    +0.000 A 
ATOM     12  N   UNL     1       0.538  11.570  18.326  0.00  0.00    +0.000 N 
ATOM     13  C   UNL     1       1.239   9.349  19.009  0.00  0.00    +0.000 A 
ATOM     14  F   UNL     1       1.518   9.008  17.742  0.00  0.00    +0.000 F 
ATOM     15  H   UNL     1       0.081  12.376  18.749  0.00  0.00    +0.000 HD
ATOM     16  H   UNL     1       0.046  11.213  17.513  0.00  0.00    +0.000 HD
ENDBRANCH   4   7
BRANCH   1  17
ATOM     17  C   UNL     1       3.539   3.786  19.692  0.00  0.00    +0.000 C 
BRANCH  17  18
ATOM     18  C   UNL     1       4.487   3.809  18.468  0.00  0.00    +0.000 A 
ATOM     19  C   UNL     1       5.647   4.603  18.439  0.00  0.00    +0.000 A 
ATOM     20  C   UNL     1       6.354   4.827  17.256  0.00  0.00    +0.000 A 
ATOM     21  C   UNL     1       5.944   4.236  16.060  0.00  0.00    +0.000 A 
ATOM     22  C   UNL     1       4.858   3.349  16.094  0.00  0.00    +0.000 A 
ATOM     23  C   UNL     1       4.137   3.144  17.280  0.00  0.00    +0.000 A 
BRANCH  21  24
ATOM     24  C   UNL     1       6.626   4.587  14.763  0.00  0.00    +0.000 C 
ATOM     25  F   UNL     1       6.717   3.538  13.895  0.00  0.00    +0.000 F 
ATOM     26  F   UNL     1       5.993   5.578  14.081  0.00  0.00    +0.000 F 
ATOM     27  F   UNL     1       7.906   5.018  14.949  0.00  0.00    +0.000 F 
ENDBRANCH  21  24
ENDBRANCH  17  18
BRANCH  17  28
ATOM     28  C   UNL     1       3.583   2.436  20.500  0.00  0.00    +0.000 C 
BRANCH  28  29
ATOM     29  N   UNL     1       4.918   1.918  20.841  0.00  0.00    +0.000 NA
ATOM     30  H   UNL     1       4.944   0.920  20.628  0.00  0.00    +0.000 HD
ATOM     31  H   UNL     1       5.075   2.006  21.843  0.00  0.00    +0.000 HD
ENDBRANCH  28  29
ENDBRANCH  17  28
ENDBRANCH   1  17
TORSDOF 6
ENDMDL
MODEL 3
REMARK VINA RESULT:      -7.3      3.074      8.533
REMARK  Name = 
REMARK  6 active torsions:
REMARK  status: ('A' for Active; 'I' for Inactive)
REMARK    1  A    between atoms: N_1  and  C_2
REMARK    2  A    between atoms: C_2  and  C_3
REMARK    3  A    between atoms: C_3  and  C_4
REMARK    4  A    between atoms: C_3  and  N_14
REMARK    5  A    between atoms: C_7  and  C_8
REMARK    6  A    between atoms: N_17  and  C_18
REMARK                            x       y       z     vdW  Elec       q    Type
REMARK                         _______ _______ _______ _____ _____    ______ ____
ROOT
ATOM      1  N   UNL     1       4.200   4.932  19.130  0.00  0.00    +0.000 NA
ATOM      2  C   UNL     1       4.626   3.691  18.466  0.00  0.00    +0.000 C 
ATOM      3  C   UNL     1       4.389   3.637  16.954  0.00  0.00    +0.000 C 
ATOM      4  N   UNL     1       4.880   4.836  16.265  0.00  0.00    +0.000 N 
ATOM      5  C   UNL     1       4.848   6.149  16.918  0.00  0.00    +0.000 C 
ATOM      6  C   UNL     1       4.877   6.067  18.471  0.00  0.00    +0.000 C 
ENDROOT
BRANCH   4   7
ATOM      7  C   UNL     1       5.638   4.652  15.123  0.00  0.00    +0.000 A 
ATOM      8  N   UNL     1       5.109   3.872  14.156  0.00  0.00    +0.000 NA
ATOM      9  C   UNL     1       5.822   3.699  13.038  0.00  0.00    +0.000 A 
ATOM     10  N   UNL     1       7.012   4.244  12.770  0.00  0.00    +0.000 NA
ATOM     11  C   UNL     1       7.526   5.024  13.733  0.00  0.00    +0.000 A 
ATOM     12  N   UNL     1       8.722   5.665  13.409  0.00  0.00    +0.000 N 
ATOM     13  C   UNL     1       6.883   5.250  14.938  0.00  0.00    +0.000 A 
ATOM     14  F   UNL     1       7.428   6.048  15.868  0.00  0.00    +0.000 F 
ATOM     15  H   UNL     1       9.055   5.298  12.519  0.00  0.00    +0.000 HD
ATOM     16  H   UNL     1       9.411   5.600  14.151  0.00  0.00    +0.000 HD
ENDBRANCH   4   7
BRANCH   1  17
ATOM     17  C   UNL     1       2.737   5.106  19.343  0.00  0.00    +0.000 C 
BRANCH  17  18
ATOM     18  C   UNL     1       2.339   6.593  19.510  0.00  0.00    +0.000 A 
ATOM     19  C   UNL     1       1.887   7.110  20.736  0.00  0.00    +0.000 A 
ATOM     20  C   UNL     1       1.285   8.367  20.827  0.00  0.00    +0.000 A 
ATOM     21  C   UNL     1       1.144   9.170  19.695  0.00  0.00    +0.000 A 
ATOM     22  C   UNL     1       1.693   8.719  18.486  0.00  0.00    +0.000 A 
ATOM     23  C   UNL     1       2.277   7.446  18.394  0.00  0.00    +0.000 A 
BRANCH  21  24
ATOM     24  C   UNL     1       0.374  10.464  19.769  0.00  0.00    +0.000 C 
ATOM     25  F   UNL     1      -0.714  10.404  20.590  0.00  0.00    +0.000 F 
ATOM     26  F   UNL     1       1.124  11.503  20.223  0.00  0.00    +0.000 F 
ATOM     27  F   UNL     1      -0.108  10.851  18.554  0.00  0.00    +0.000 F 
ENDBRANCH  21  24
ENDBRANCH  17  18
BRANCH  17  28
ATOM     28  C   UNL     1       2.052   4.147  20.387  0.00  0.00    +0.000 C 
BRANCH  28  29
ATOM     29  N   UNL     1       0.678   3.717  20.080  0.00  0.00    +0.000 NA
ATOM     30  H   UNL     1       0.472   3.957  19.110  0.00  0.00    +0.000 HD
ATOM     31  H   UNL     1       0.019   4.237  20.655  0.00  0.00    +0.000 HD
ENDBRANCH  28  29
ENDBRANCH  17  28
ENDBRANCH   1  17
TORSDOF 6
ENDMDL
MODEL 4
REMARK VINA RESULT:      -7.3      3.830      5.676
REMARK  Name = 
REMARK  6 active torsions:
REMARK  status: ('A' for Active; 'I' for Inactive)
REMARK    1  A    between atoms: N_1  and  C_2
REMARK    2  A    between atoms: C_2  and  C_3
REMARK    3  A    between atoms: C_3  and  C_4
REMARK    4  A    between atoms: C_3  and  N_14
REMARK    5  A    between atoms: C_7  and  C_8
REMARK    6  A    between atoms: N_17  and  C_18
REMARK                            x       y       z     vdW  Elec       q    Type
REMARK                         _______ _______ _______ _____ _____    ______ ____
ROOT
ATOM      1  N   UNL     1       0.819   9.352  19.215  0.00  0.00    +0.000 NA
ATOM      2  C   UNL     1      -0.173  10.308  19.731  0.00  0.00    +0.000 C 
ATOM      3  C   UNL     1       0.395  11.634  20.245  0.00  0.00    +0.000 C 
ATOM      4  N   UNL     1       1.325  12.253  19.293  0.00  0.00    +0.000 N 
ATOM      5  C   UNL     1       2.178  11.432  18.427  0.00  0.00    +0.000 C 
ATOM      6  C   UNL     1       1.594  10.018  18.149  0.00  0.00    +0.000 C 
ENDROOT
BRANCH   4   7
ATOM      7  C   UNL     1       1.163  13.600  19.025  0.00  0.00    +0.000 A 
ATOM      8  N   UNL     1      -0.103  14.057  18.927  0.00  0.00    +0.000 NA
ATOM      9  C   UNL     1      -0.276  15.361  18.686  0.00  0.00    +0.000 A 
ATOM     10  N   UNL     1       0.691  16.273  18.552  0.00  0.00    +0.000 NA
ATOM     11  C   UNL     1       1.946  15.811  18.661  0.00  0.00    +0.000 A 
ATOM     12  N   UNL     1       2.947  16.782  18.615  0.00  0.00    +0.000 N 
ATOM     13  C   UNL     1       2.237  14.477  18.884  0.00  0.00    +0.000 A 
ATOM     14  F   UNL     1       3.507  14.061  18.999  0.00  0.00    +0.000 F 
ATOM     15  H   UNL     1       2.521  17.673  18.366  0.00  0.00    +0.000 HD
ATOM     16  H   UNL     1       3.714  16.521  18.005  0.00  0.00    +0.000 HD
ENDBRANCH   4   7
BRANCH   1  17
ATOM     17  C   UNL     1       1.633   8.624  20.227  0.00  0.00    +0.000 C 
BRANCH  17  18
ATOM     18  C   UNL     1       2.000   7.191  19.768  0.00  0.00    +0.000 A 
ATOM     19  C   UNL     1       2.581   6.937  18.514  0.00  0.00    +0.000 A 
ATOM     20  C   UNL     1       2.671   5.644  17.994  0.00  0.00    +0.000 A 
ATOM     21  C   UNL     1       2.210   4.550  18.728  0.00  0.00    +0.000 A 
ATOM     22  C   UNL     1       1.734   4.773  20.028  0.00  0.00    +0.000 A 
ATOM     23  C   UNL     1       1.625   6.076  20.538  0.00  0.00    +0.000 A 
BRANCH  21  24
ATOM     24  C   UNL     1       2.183   3.175  18.111  0.00  0.00    +0.000 C 
ATOM     25  F   UNL     1       0.976   2.550  18.229  0.00  0.00    +0.000 F 
ATOM     26  F   UNL     1       2.467   3.184  16.781  0.00  0.00    +0.000 F 
ATOM     27  F   UNL     1       3.088   2.331  18.683  0.00  0.00    +0.000 F 
ENDBRANCH  21  24
ENDBRANCH  17  18
BRANCH  17  28
ATOM     28  C   UNL     1       1.144   8.703  21.722  0.00  0.00    +0.000 C 
BRANCH  28  29
ATOM     29  N   UNL     1       2.048   9.369  22.674  0.00  0.00    +0.000 NA
ATOM     30  H   UNL     1       2.224   8.735  23.453  0.00  0.00    +0.000 HD
ATOM     31  H   UNL     1       1.592  10.190  23.064  0.00  0.00    +0.000 HD
ENDBRANCH  28  29
ENDBRANCH  17  28
ENDBRANCH   1  17
TORSDOF 6
ENDMDL
MODEL 5
REMARK VINA RESULT:      -7.3      3.602      6.027
REMARK  Name = 
REMARK  6 active torsions:
REMARK  status: ('A' for Active; 'I' for Inactive)
REMARK    1  A    between atoms: N_1  and  C_2
REMARK    2  A    between atoms: C_2  and  C_3
REMARK    3  A    between atoms: C_3  and  C_4
REMARK    4  A    between atoms: C_3  and  N_14
REMARK    5  A    between atoms: C_7  and  C_8
REMARK    6  A    between atoms: N_17  and  C_18
REMARK                            x       y       z     vdW  Elec       q    Type
REMARK                         _______ _______ _______ _____ _____    ______ ____
ROOT
ATOM      1  N   UNL     1       1.145  10.460  21.003  0.00  0.00    +0.000 NA
ATOM      2  C   UNL     1       1.114  11.926  20.879  0.00  0.00    +0.000 C 
ATOM      3  C   UNL     1      -0.265  12.572  21.035  0.00  0.00    +0.000 C 
ATOM      4  N   UNL     1      -0.975  12.097  22.230  0.00  0.00    +0.000 N 
ATOM      5  C   UNL     1      -0.802  10.725  22.715  0.00  0.00    +0.000 C 
ATOM      6  C   UNL     1       0.559  10.093  22.308  0.00  0.00    +0.000 C 
ENDROOT
BRANCH   4   7
ATOM      7  C   UNL     1      -1.566  13.048  23.042  0.00  0.00    +0.000 A 
ATOM      8  N   UNL     1      -0.765  14.017  23.533  0.00  0.00    +0.000 NA
ATOM      9  C   UNL     1      -1.325  14.954  24.306  0.00  0.00    +0.000 A 
ATOM     10  N   UNL     1      -2.619  15.040  24.627  0.00  0.00    +0.000 NA
ATOM     11  C   UNL     1      -3.409  14.078  24.127  0.00  0.00    +0.000 A 
ATOM     12  N   UNL     1      -4.772  14.226  24.388  0.00  0.00    +0.000 N 
ATOM     13  C   UNL     1      -2.928  13.048  23.337  0.00  0.00    +0.000 A 
ATOM     14  F   UNL     1      -3.756  12.113  22.848  0.00  0.00    +0.000 F 
ATOM     15  H   UNL     1      -4.893  14.995  25.045  0.00  0.00    +0.000 HD
ATOM     16  H   UNL     1      -5.204  13.362  24.698  0.00  0.00    +0.000 HD
ENDBRANCH   4   7
BRANCH   1  17
ATOM     17  C   UNL     1       0.636   9.682  19.840  0.00  0.00    +0.000 C 
BRANCH  17  18
ATOM     18  C   UNL     1       1.664   8.641  19.333  0.00  0.00    +0.000 A 
ATOM     19  C   UNL     1       2.261   8.741  18.065  0.00  0.00    +0.000 A 
ATOM     20  C   UNL     1       2.978   7.681  17.505  0.00  0.00    +0.000 A 
ATOM     21  C   UNL     1       3.151   6.490  18.209  0.00  0.00    +0.000 A 
ATOM     22  C   UNL     1       2.661   6.415  19.521  0.00  0.00    +0.000 A 
ATOM     23  C   UNL     1       1.923   7.474  20.072  0.00  0.00    +0.000 A 
BRANCH  21  24
ATOM     24  C   UNL     1       3.805   5.302  17.551  0.00  0.00    +0.000 C 
ATOM     25  F   UNL     1       2.921   4.334  17.173  0.00  0.00    +0.000 F 
ATOM     26  F   UNL     1       4.496   5.631  16.428  0.00  0.00    +0.000 F 
ATOM     27  F   UNL     1       4.697   4.679  18.372  0.00  0.00    +0.000 F 
ENDBRANCH  21  24
ENDBRANCH  17  18
BRANCH  17  28
ATOM     28  C   UNL     1      -0.057  10.500  18.687  0.00  0.00    +0.000 C 
BRANCH  28  29
ATOM     29  N   UNL     1      -1.496  10.259  18.485  0.00  0.00    +0.000 NA
ATOM     30  H   UNL     1      -1.640   9.260  18.335  0.00  0.00    +0.000 HD
ATOM     31  H   UNL     1      -1.806  10.728  17.637  0.00  0.00    +0.000 HD
ENDBRANCH  28  29
ENDBRANCH  17  28
ENDBRANCH   1  17
TORSDOF 6
ENDMDL
MODEL 6
REMARK VINA RESULT:      -7.3      1.074      1.617
REMARK  Name = 
REMARK  6 active torsions:
REMARK  status: ('A' for Active; 'I' for Inactive)
REMARK    1  A    between atoms: N_1  and  C_2
REMARK    2  A    between atoms: C_2  and  C_3
REMARK    3  A    between atoms: C_3  and  C_4
REMARK    4  A    between atoms: C_3  and  N_14
REMARK    5  A    between atoms: C_7  and  C_8
REMARK    6  A    between atoms: N_17  and  C_18
REMARK                            x       y       z     vdW  Elec       q    Type
REMARK                         _______ _______ _______ _____ _____    ______ ____
ROOT
ATOM      1  N   UNL     1       2.993   5.811  18.237  0.00  0.00    +0.000 NA
ATOM      2  C   UNL     1       2.296   5.738  19.530  0.00  0.00    +0.000 C 
ATOM      3  C   UNL     1       2.321   7.021  20.366  0.00  0.00    +0.000 C 
ATOM      4  N   UNL     1       1.934   8.205  19.589  0.00  0.00    +0.000 N 
ATOM      5  C   UNL     1       2.255   8.310  18.162  0.00  0.00    +0.000 C 
ATOM      6  C   UNL     1       2.419   6.931  17.463  0.00  0.00    +0.000 C 
ENDROOT
BRANCH   4   7
ATOM      7  C   UNL     1       1.013   9.068  20.155  0.00  0.00    +0.000 A 
ATOM      8  N   UNL     1       0.361   9.902  19.318  0.00  0.00    +0.000 NA
ATOM      9  C   UNL     1      -0.546  10.730  19.848  0.00  0.00    +0.000 A 
ATOM     10  N   UNL     1      -0.890  10.801  21.137  0.00  0.00    +0.000 NA
ATOM     11  C   UNL     1      -0.243   9.961  21.960  0.00  0.00    +0.000 A 
ATOM     12  N   UNL     1      -0.674   9.974  23.287  0.00  0.00    +0.000 N 
ATOM     13  C   UNL     1       0.731   9.082  21.519  0.00  0.00    +0.000 A 
ATOM     14  F   UNL     1       1.344   8.251  22.375  0.00  0.00    +0.000 F 
ATOM     15  H   UNL     1      -1.332  10.741  23.406  0.00  0.00    +0.000 HD
ATOM     16  H   UNL     1       0.098  10.001  23.946  0.00  0.00    +0.000 HD
ENDBRANCH   4   7
BRANCH   1  17
ATOM     17  C   UNL     1       4.480   5.769  18.278  0.00  0.00    +0.000 C 
BRANCH  17  18
ATOM     18  C   UNL     1       5.091   5.241  16.956  0.00  0.00    +0.000 A 
ATOM     19  C   UNL     1       5.466   6.104  15.912  0.00  0.00    +0.000 A 
ATOM     20  C   UNL     1       5.768   5.626  14.636  0.00  0.00    +0.000 A 
ATOM     21  C   UNL     1       5.736   4.257  14.365  0.00  0.00    +0.000 A 
ATOM     22  C   UNL     1       5.477   3.374  15.423  0.00  0.00    +0.000 A 
ATOM     23  C   UNL     1       5.154   3.860  16.699  0.00  0.00    +0.000 A 
BRANCH  21  24
ATOM     24  C   UNL     1       5.928   3.754  12.957  0.00  0.00    +0.000 C 
ATOM     25  F   UNL     1       6.311   2.446  12.893  0.00  0.00    +0.000 F 
ATOM     26  F   UNL     1       4.801   3.847  12.202  0.00  0.00    +0.000 F 
ATOM     27  F   UNL     1       6.889   4.447  12.283  0.00  0.00    +0.000 F 
ENDBRANCH  21  24
ENDBRANCH  17  18
BRANCH  17  28
ATOM     28  C   UNL     1       5.138   5.152  19.569  0.00  0.00    +0.000 C 
BRANCH  28  29
ATOM     29  N   UNL     1       6.591   5.336  19.716  0.00  0.00    +0.000 NA
ATOM     30  H   UNL     1       7.035   5.157  18.815  0.00  0.00    +0.000 HD
ATOM     31  H   UNL     1       6.960   4.645  20.365  0.00  0.00    +0.000 HD
ENDBRANCH  28  29
ENDBRANCH  17  28
ENDBRANCH   1  17
TORSDOF 6
ENDMDL
MODEL 7
REMARK VINA RESULT:      -7.2      2.844      8.862
REMARK  Name = 
REMARK  6 active torsions:
REMARK  status: ('A' for Active; 'I' for Inactive)
REMARK    1  A    between atoms: N_1  and  C_2
REMARK    2  A    between atoms: C_2  and  C_3
REMARK    3  A    between atoms: C_3  and  C_4
REMARK    4  A    between atoms: C_3  and  N_14
REMARK    5  A    between atoms: C_7  and  C_8
REMARK    6  A    between atoms: N_17  and  C_18
REMARK                            x       y       z     vdW  Elec       q    Type
REMARK                         _______ _______ _______ _____ _____    ______ ____
ROOT
ATOM      1  N   UNL     1       4.587   5.751  18.343  0.00  0.00    +0.000 NA
ATOM      2  C   UNL     1       5.242   4.492  17.960  0.00  0.00    +0.000 C 
ATOM      3  C   UNL     1       5.028   4.051  16.509  0.00  0.00    +0.000 C 
ATOM      4  N   UNL     1       5.290   5.131  15.550  0.00  0.00    +0.000 N 
ATOM      5  C   UNL     1       5.008   6.529  15.891  0.00  0.00    +0.000 C 
ATOM      6  C   UNL     1       5.042   6.810  17.420  0.00  0.00    +0.000 C 
ENDROOT
BRANCH   4   7
ATOM      7  C   UNL     1       6.076   4.833  14.452  0.00  0.00    +0.000 A 
ATOM      8  N   UNL     1       7.244   5.499  14.335  0.00  0.00    +0.000 NA
ATOM      9  C   UNL     1       8.023   5.209  13.287  0.00  0.00    +0.000 A 
ATOM     10  N   UNL     1       7.767   4.299  12.343  0.00  0.00    +0.000 NA
ATOM     11  C   UNL     1       6.608   3.635  12.473  0.00  0.00    +0.000 A 
ATOM     12  N   UNL     1       6.391   2.623  11.538  0.00  0.00    +0.000 N 
ATOM     13  C   UNL     1       5.718   3.876  13.504  0.00  0.00    +0.000 A 
ATOM     14  F   UNL     1       4.575   3.181  13.601  0.00  0.00    +0.000 F 
ATOM     15  H   UNL     1       7.123   2.672  10.831  0.00  0.00    +0.000 HD
ATOM     16  H   UNL     1       5.455   2.648  11.147  0.00  0.00    +0.000 HD
ENDBRANCH   4   7
BRANCH   1  17
ATOM     17  C   UNL     1       3.116   5.697  18.565  0.00  0.00    +0.000 C 
BRANCH  17  18
ATOM     18  C   UNL     1       2.525   7.078  18.941  0.00  0.00    +0.000 A 
ATOM     19  C   UNL     1       2.077   7.368  20.241  0.00  0.00    +0.000 A 
ATOM     20  C   UNL     1       1.313   8.503  20.519  0.00  0.00    +0.000 A 
ATOM     21  C   UNL     1       0.997   9.412  19.508  0.00  0.00    +0.000 A 
ATOM     22  C   UNL     1       1.533   9.199  18.230  0.00  0.00    +0.000 A 
ATOM     23  C   UNL     1       2.282   8.046  17.950  0.00  0.00    +0.000 A 
BRANCH  21  24
ATOM     24  C   UNL     1       0.061  10.561  19.781  0.00  0.00    +0.000 C 
ATOM     25  F   UNL     1      -0.293  10.675  21.094  0.00  0.00    +0.000 F 
ATOM     26  F   UNL     1       0.584  11.766  19.432  0.00  0.00    +0.000 F 
ATOM     27  F   UNL     1      -1.113  10.449  19.096  0.00  0.00    +0.000 F 
ENDBRANCH  21  24
ENDBRANCH  17  18
BRANCH  17  28
ATOM     28  C   UNL     1       2.575   4.515  19.454  0.00  0.00    +0.000 C 
BRANCH  28  29
ATOM     29  N   UNL     1       1.383   3.810  18.953  0.00  0.00    +0.000 NA
ATOM     30  H   UNL     1       1.542   2.806  19.034  0.00  0.00    +0.000 HD
ATOM     31  H   UNL     1       1.260   4.006  17.962  0.00  0.00    +0.000 HD
ENDBRANCH  28  29
ENDBRANCH  17  28
ENDBRANCH   1  17
TORSDOF 6
ENDMDL
MODEL 8
REMARK VINA RESULT:      -7.1      1.831      2.463
REMARK  Name = 
REMARK  6 active torsions:
REMARK  status: ('A' for Active; 'I' for Inactive)
REMARK    1  A    between atoms: N_1  and  C_2
REMARK    2  A    between atoms: C_2  and  C_3
REMARK    3  A    between atoms: C_3  and  C_4
REMARK    4  A    between atoms: C_3  and  N_14
REMARK    5  A    between atoms: C_7  and  C_8
REMARK    6  A    between atoms: N_17  and  C_18
REMARK                            x       y       z     vdW  Elec       q    Type
REMARK                         _______ _______ _______ _____ _____    ______ ____
ROOT
ATOM      1  N   UNL     1       2.301   4.438  19.287  0.00  0.00    +0.000 NA
ATOM      2  C   UNL     1       1.534   5.008  20.405  0.00  0.00    +0.000 C 
ATOM      3  C   UNL     1       1.955   6.414  20.845  0.00  0.00    +0.000 C 
ATOM      4  N   UNL     1       2.071   7.344  19.715  0.00  0.00    +0.000 N 
ATOM      5  C   UNL     1       2.508   6.878  18.395  0.00  0.00    +0.000 C 
ATOM      6  C   UNL     1       2.219   5.371  18.145  0.00  0.00    +0.000 C 
ENDROOT
BRANCH   4   7
ATOM      7  C   UNL     1       1.479   8.587  19.848  0.00  0.00    +0.000 A 
ATOM      8  N   UNL     1       1.320   9.313  18.721  0.00  0.00    +0.000 NA
ATOM      9  C   UNL     1       0.733  10.510  18.831  0.00  0.00    +0.000 A 
ATOM     10  N   UNL     1       0.264  11.057  19.956  0.00  0.00    +0.000 NA
ATOM     11  C   UNL     1       0.419  10.324  21.069  0.00  0.00    +0.000 A 
ATOM     12  N   UNL     1      -0.156  10.859  22.222  0.00  0.00    +0.000 N 
ATOM     13  C   UNL     1       1.034   9.085  21.071  0.00  0.00    +0.000 A 
ATOM     14  F   UNL     1       1.157   8.380  22.206  0.00  0.00    +0.000 F 
ATOM     15  H   UNL     1      -0.481  11.801  22.014  0.00  0.00    +0.000 HD
ATOM     16  H   UNL     1       0.466  10.817  23.022  0.00  0.00    +0.000 HD
ENDBRANCH   4   7
BRANCH   1  17
ATOM     17  C   UNL     1       3.669   3.943  19.601  0.00  0.00    +0.000 C 
BRANCH  17  18
ATOM     18  C   UNL     1       4.595   3.943  18.360  0.00  0.00    +0.000 A 
ATOM     19  C   UNL     1       5.766   4.719  18.304  0.00  0.00    +0.000 A 
ATOM     20  C   UNL     1       6.455   4.925  17.108  0.00  0.00    +0.000 A 
ATOM     21  C   UNL     1       6.015   4.333  15.924  0.00  0.00    +0.000 A 
ATOM     22  C   UNL     1       4.916   3.463  15.982  0.00  0.00    +0.000 A 
ATOM     23  C   UNL     1       4.213   3.276  17.183  0.00  0.00    +0.000 A 
BRANCH  21  24
ATOM     24  C   UNL     1       6.678   4.666  14.612  0.00  0.00    +0.000 C 
ATOM     25  F   UNL     1       7.968   5.089  14.746  0.00  0.00    +0.000 F 
ATOM     26  F   UNL     1       6.722   3.610  13.756  0.00  0.00    +0.000 F 
ATOM     27  F   UNL     1       6.035   5.665  13.943  0.00  0.00    +0.000 F 
ENDBRANCH  21  24
ENDBRANCH  17  18
BRANCH  17  28
ATOM     28  C   UNL     1       3.768   2.628  20.462  0.00  0.00    +0.000 C 
BRANCH  28  29
ATOM     29  N   UNL     1       5.010   1.849  20.330  0.00  0.00    +0.000 NA
ATOM     30  H   UNL     1       5.495   2.152  19.485  0.00  0.00    +0.000 HD
ATOM     31  H   UNL     1       4.786   0.865  20.200  0.00  0.00    +0.000 HD
ENDBRANCH  28  29
ENDBRANCH  17  28
ENDBRANCH   1  17
TORSDOF 6
ENDMDL
MODEL 9
REMARK VINA RESULT:      -7.1      3.961      6.511
REMARK  Name = 
REMARK  6 active torsions:
REMARK  status: ('A' for Active; 'I' for Inactive)
REMARK    1  A    between atoms: N_1  and  C_2
REMARK    2  A    between atoms: C_2  and  C_3
REMARK    3  A    between atoms: C_3  and  C_4
REMARK    4  A    between atoms: C_3  and  N_14
REMARK    5  A    between atoms: C_7  and  C_8
REMARK    6  A    between atoms: N_17  and  C_18
REMARK                            x       y       z     vdW  Elec       q    Type
REMARK                         _______ _______ _______ _____ _____    ______ ____
ROOT
ATOM      1  N   UNL     1       0.205  11.386  19.871  0.00  0.00    +0.000 NA
ATOM      2  C   UNL     1      -0.764  12.488  19.783  0.00  0.00    +0.000 C 
ATOM      3  C   UNL     1      -2.021  12.332  20.645  0.00  0.00    +0.000 C 
ATOM      4  N   UNL     1      -1.707  11.973  22.033  0.00  0.00    +0.000 N 
ATOM      5  C   UNL     1      -0.547  11.136  22.354  0.00  0.00    +0.000 C 
ATOM      6  C   UNL     1       0.583  11.213  21.289  0.00  0.00    +0.000 C 
ENDROOT
BRANCH   4   7
ATOM      7  C   UNL     1      -2.347  12.680  23.035  0.00  0.00    +0.000 A 
ATOM      8  N   UNL     1      -3.514  12.178  23.490  0.00  0.00    +0.000 NA
ATOM      9  C   UNL     1      -4.136  12.841  24.472  0.00  0.00    +0.000 A 
ATOM     10  N   UNL     1      -3.701  13.953  25.069  0.00  0.00    +0.000 NA
ATOM     11  C   UNL     1      -2.535  14.440  24.617  0.00  0.00    +0.000 A 
ATOM     12  N   UNL     1      -2.041  15.547  25.308  0.00  0.00    +0.000 N 
ATOM     13  C   UNL     1      -1.823  13.847  23.589  0.00  0.00    +0.000 A 
ATOM     14  F   UNL     1      -0.655  14.361  23.176  0.00  0.00    +0.000 F 
ATOM     15  H   UNL     1      -2.752  15.863  25.964  0.00  0.00    +0.000 HD
ATOM     16  H   UNL     1      -1.715  16.280  24.686  0.00  0.00    +0.000 HD
ENDBRANCH   4   7
BRANCH   1  17
ATOM     17  C   UNL     1      -0.145  10.130  19.153  0.00  0.00    +0.000 C 
BRANCH  17  18
ATOM     18  C   UNL     1       1.064   9.172  19.018  0.00  0.00    +0.000 A 
ATOM     19  C   UNL     1       1.834   9.105  17.844  0.00  0.00    +0.000 A 
ATOM     20  C   UNL     1       2.748   8.073  17.622  0.00  0.00    +0.000 A 
ATOM     21  C   UNL     1       2.949   7.084  18.585  0.00  0.00    +0.000 A 
ATOM     22  C   UNL     1       2.275   7.199  19.809  0.00  0.00    +0.000 A 
ATOM     23  C   UNL     1       1.342   8.226  20.020  0.00  0.00    +0.000 A 
BRANCH  21  24
ATOM     24  C   UNL     1       3.832   5.899  18.289  0.00  0.00    +0.000 C 
ATOM     25  F   UNL     1       3.150   4.720  18.202  0.00  0.00    +0.000 F 
ATOM     26  F   UNL     1       4.510   6.021  17.116  0.00  0.00    +0.000 F 
ATOM     27  F   UNL     1       4.778   5.702  19.250  0.00  0.00    +0.000 F 
ENDBRANCH  21  24
ENDBRANCH  17  18
BRANCH  17  28
ATOM     28  C   UNL     1      -0.984  10.280  17.829  0.00  0.00    +0.000 C 
BRANCH  28  29
ATOM     29  N   UNL     1      -2.399   9.880  17.900  0.00  0.00    +0.000 NA
ATOM     30  H   UNL     1      -2.928  10.436  17.228  0.00  0.00    +0.000 HD
ATOM     31  H   UNL     1      -2.772  10.103  18.820  0.00  0.00    +0.000 HD
ENDBRANCH  28  29
ENDBRANCH  17  28
ENDBRANCH   1  17
TORSDOF 6
ENDMDL
