MODEL 1
REMARK VINA RESULT:      -7.4      0.000      0.000
REMARK  Name = 
REMARK  4 active torsions:
REMARK  status: ('A' for Active; 'I' for Inactive)
REMARK    1  A    between atoms: C_1  and  C_2
REMARK    2  A    between atoms: C_2  and  C_3
REMARK    3  A    between atoms: C_3  and  N_4
REMARK    4  A    between atoms: C_8  and  C_10
REMARK                            x       y       z     vdW  Elec       q    Type
REMARK                         _______ _______ _______ _____ _____    ______ ____
ROOT
ATOM      1  N   UNL     1       5.742   5.328  17.203  0.00  0.00    +0.000 NA
ATOM      2  C   UNL     1       4.873   6.416  16.744  0.00  0.00    +0.000 C 
ATOM      3  C   UNL     1       3.905   6.991  17.789  0.00  0.00    +0.000 C 
ATOM      4  N   UNL     1       3.246   6.048  18.710  0.00  0.00    +0.000 N 
ATOM      5  C   UNL     1       2.322   6.570  19.666  0.00  0.00    +0.000 C 
ATOM      6  O   UNL     1       2.021   5.945  20.682  0.00  0.00    +0.000 OA
ATOM      7  C   UNL     1       4.065   4.872  19.117  0.00  0.00    +0.000 C 
ATOM      8  C   UNL     1       3.318   3.615  19.605  0.00  0.00    +0.000 C 
ATOM      9  S   UNL     1       2.993   2.626  18.154  0.00  0.00    +0.000 S 
ATOM     10  O   UNL     1       3.607   1.327  18.344  0.00  0.00    +0.000 OA
ATOM     11  O   UNL     1       1.608   2.772  17.770  0.00  0.00    +0.000 OA
ATOM     12  C   UNL     1       4.003   3.557  17.033  0.00  0.00    +0.000 C 
ATOM     13  C   UNL     1       4.956   4.333  17.953  0.00  0.00    +0.000 C 
ENDROOT
BRANCH   5  14
ATOM     14  C   UNL     1       1.754   7.963  19.531  0.00  0.00    +0.000 A 
ATOM     15  C   UNL     1       1.313   8.632  20.666  0.00  0.00    +0.000 A 
ATOM     16  N   UNL     1       0.894   9.927  20.638  0.00  0.00    +0.000 NA
ATOM     17  C   UNL     1       0.920  10.526  19.426  0.00  0.00    +0.000 A 
ATOM     18  C   UNL     1       1.334   9.858  18.288  0.00  0.00    +0.000 A 
ATOM     19  N   UNL     1       1.744   8.571  18.316  0.00  0.00    +0.000 NA
ENDBRANCH   5  14
BRANCH   1  20
ATOM     20  C   UNL     1       6.915   5.860  17.912  0.00  0.00    +0.000 C 
BRANCH  20  22
ATOM     21  C   UNL     1       8.186   8.054  18.280  0.00  0.00    +0.000 C 
ATOM     22  C   UNL     1       7.566   7.096  17.272  0.00  0.00    +0.000 C 
ENDBRANCH  20  22
ENDBRANCH   1  20
TORSDOF 3
ENDMDL
MODEL 2
REMARK VINA RESULT:      -7.4      2.757      4.270
REMARK  Name = 
REMARK  4 active torsions:
REMARK  status: ('A' for Active; 'I' for Inactive)
REMARK    1  A    between atoms: C_1  and  C_2
REMARK    2  A    between atoms: C_2  and  C_3
REMARK    3  A    between atoms: C_3  and  N_4
REMARK    4  A    between atoms: C_8  and  C_10
REMARK                            x       y       z     vdW  Elec       q    Type
REMARK                         _______ _______ _______ _____ _____    ______ ____
ROOT
ATOM      1  N   UNL     1       4.280   3.546  18.454  0.00  0.00    +0.000 NA
ATOM      2  C   UNL     1       3.852   4.278  19.651  0.00  0.00    +0.000 C 
ATOM      3  C   UNL     1       3.107   5.598  19.405  0.00  0.00    +0.000 C 
ATOM      4  N   UNL     1       3.588   6.466  18.314  0.00  0.00    +0.000 N 
ATOM      5  C   UNL     1       2.920   7.709  18.096  0.00  0.00    +0.000 C 
ATOM      6  O   UNL     1       2.997   8.303  17.021  0.00  0.00    +0.000 OA
ATOM      7  C   UNL     1       4.128   5.756  17.121  0.00  0.00    +0.000 C 
ATOM      8  C   UNL     1       5.109   6.525  16.214  0.00  0.00    +0.000 C 
ATOM      9  S   UNL     1       6.742   6.230  16.872  0.00  0.00    +0.000 S 
ATOM     10  O   UNL     1       7.548   5.623  15.832  0.00  0.00    +0.000 OA
ATOM     11  O   UNL     1       7.186   7.391  17.607  0.00  0.00    +0.000 OA
ATOM     12  C   UNL     1       6.280   4.963  18.023  0.00  0.00    +0.000 C 
ATOM     13  C   UNL     1       4.923   4.467  17.502  0.00  0.00    +0.000 C 
ENDROOT
BRANCH   5  14
ATOM     14  C   UNL     1       1.998   8.300  19.135  0.00  0.00    +0.000 A 
ATOM     15  C   UNL     1       1.188   9.376  18.795  0.00  0.00    +0.000 A 
ATOM     16  N   UNL     1       0.253   9.889  19.642  0.00  0.00    +0.000 NA
ATOM     17  C   UNL     1       0.169   9.291  20.853  0.00  0.00    +0.000 A 
ATOM     18  C   UNL     1       0.989   8.236  21.207  0.00  0.00    +0.000 A 
ATOM     19  N   UNL     1       1.921   7.732  20.367  0.00  0.00    +0.000 NA
ENDBRANCH   5  14
BRANCH   1  20
ATOM     20  C   UNL     1       3.172   2.752  17.904  0.00  0.00    +0.000 C 
BRANCH  20  22
ATOM     21  C   UNL     1       0.816   2.386  18.841  0.00  0.00    +0.000 C 
ATOM     22  C   UNL     1       2.295   2.037  18.943  0.00  0.00    +0.000 C 
ENDBRANCH  20  22
ENDBRANCH   1  20
TORSDOF 3
ENDMDL
MODEL 3
REMARK VINA RESULT:      -7.2      3.593      5.484
REMARK  Name = 
REMARK  4 active torsions:
REMARK  status: ('A' for Active; 'I' for Inactive)
REMARK    1  A    between atoms: C_1  and  C_2
REMARK    2  A    between atoms: C_2  and  C_3
REMARK    3  A    between atoms: C_3  and  N_4
REMARK    4  A    between atoms: C_8  and  C_10
REMARK                            x       y       z     vdW  Elec       q    Type
REMARK                         _______ _______ _______ _____ _____    ______ ____
ROOT
ATOM      1  N   UNL     1       6.117   4.155  14.885  0.00  0.00    +0.000 NA
ATOM      2  C   UNL     1       5.621   3.108  15.784  0.00  0.00    +0.000 C 
ATOM      3  C   UNL     1       4.469   3.509  16.717  0.00  0.00    +0.000 C 
ATOM      4  N   UNL     1       4.513   4.850  17.328  0.00  0.00    +0.000 N 
ATOM      5  C   UNL     1       3.461   5.222  18.219  0.00  0.00    +0.000 C 
ATOM      6  O   UNL     1       3.215   6.401  18.472  0.00  0.00    +0.000 OA
ATOM      7  C   UNL     1       5.107   5.921  16.480  0.00  0.00    +0.000 C 
ATOM      8  C   UNL     1       5.675   7.165  17.192  0.00  0.00    +0.000 C 
ATOM      9  S   UNL     1       7.382   6.799  17.564  0.00  0.00    +0.000 S 
ATOM     10  O   UNL     1       8.211   7.803  16.928  0.00  0.00    +0.000 OA
ATOM     11  O   UNL     1       7.513   6.469  18.964  0.00  0.00    +0.000 OA
ATOM     12  C   UNL     1       7.491   5.308  16.610  0.00  0.00    +0.000 C 
ATOM     13  C   UNL     1       6.313   5.411  15.630  0.00  0.00    +0.000 C 
ENDROOT
BRANCH   5  14
ATOM     14  C   UNL     1       2.528   4.191  18.807  0.00  0.00    +0.000 A 
ATOM     15  C   UNL     1       1.425   3.772  18.074  0.00  0.00    +0.000 A 
ATOM     16  N   UNL     1       0.605   2.767  18.490  0.00  0.00    +0.000 NA
ATOM     17  C   UNL     1       0.922   2.206  19.678  0.00  0.00    +0.000 A 
ATOM     18  C   UNL     1       2.003   2.635  20.425  0.00  0.00    +0.000 A 
ATOM     19  N   UNL     1       2.813   3.636  20.014  0.00  0.00    +0.000 NA
ENDBRANCH   5  14
BRANCH   1  20
ATOM     20  C   UNL     1       5.266   4.264  13.691  0.00  0.00    +0.000 C 
BRANCH  20  22
ATOM     21  C   UNL     1       4.559   3.146  11.497  0.00  0.00    +0.000 C 
ATOM     22  C   UNL     1       5.675   3.373  12.508  0.00  0.00    +0.000 C 
ENDBRANCH  20  22
ENDBRANCH   1  20
TORSDOF 3
ENDMDL
MODEL 4
REMARK VINA RESULT:      -7.2      0.584      1.040
REMARK  Name = 
REMARK  4 active torsions:
REMARK  status: ('A' for Active; 'I' for Inactive)
REMARK    1  A    between atoms: C_1  and  C_2
REMARK    2  A    between atoms: C_2  and  C_3
REMARK    3  A    between atoms: C_3  and  N_4
REMARK    4  A    between atoms: C_8  and  C_10
REMARK                            x       y       z     vdW  Elec       q    Type
REMARK                         _______ _______ _______ _____ _____    ______ ____
ROOT
ATOM      1  N   UNL     1       5.632   5.356  17.228  0.00  0.00    +0.000 NA
ATOM      2  C   UNL     1       4.792   6.463  16.760  0.00  0.00    +0.000 C 
ATOM      3  C   UNL     1       3.850   7.082  17.804  0.00  0.00    +0.000 C 
ATOM      4  N   UNL     1       3.171   6.172  18.744  0.00  0.00    +0.000 N 
ATOM      5  C   UNL     1       2.271   6.735  19.699  0.00  0.00    +0.000 C 
ATOM      6  O   UNL     1       1.960   6.133  20.726  0.00  0.00    +0.000 OA
ATOM      7  C   UNL     1       3.958   4.978  19.161  0.00  0.00    +0.000 C 
ATOM      8  C   UNL     1       3.178   3.750  19.673  0.00  0.00    +0.000 C 
ATOM      9  S   UNL     1       2.812   2.751  18.240  0.00  0.00    +0.000 S 
ATOM     10  O   UNL     1       3.388   1.437  18.443  0.00  0.00    +0.000 OA
ATOM     11  O   UNL     1       1.429   2.933  17.864  0.00  0.00    +0.000 OA
ATOM     12  C   UNL     1       3.839   3.635  17.098  0.00  0.00    +0.000 C 
ATOM     13  C   UNL     1       4.823   4.396  17.998  0.00  0.00    +0.000 C 
ENDROOT
BRANCH   5  14
ATOM     14  C   UNL     1       1.743   8.142  19.549  0.00  0.00    +0.000 A 
ATOM     15  C   UNL     1       1.680   8.714  18.284  0.00  0.00    +0.000 A 
ATOM     16  N   UNL     1       1.114   9.932  18.057  0.00  0.00    +0.000 NA
ATOM     17  C   UNL     1       0.624  10.563  19.148  0.00  0.00    +0.000 A 
ATOM     18  C   UNL     1       0.707  10.010  20.412  0.00  0.00    +0.000 A 
ATOM     19  N   UNL     1       1.274   8.805  20.638  0.00  0.00    +0.000 NA
ENDBRANCH   5  14
BRANCH   1  20
ATOM     20  C   UNL     1       6.826   5.863  17.920  0.00  0.00    +0.000 C 
BRANCH  20  22
ATOM     21  C   UNL     1       8.139   8.044  18.208  0.00  0.00    +0.000 C 
ATOM     22  C   UNL     1       7.533   7.043  17.234  0.00  0.00    +0.000 C 
ENDBRANCH  20  22
ENDBRANCH   1  20
TORSDOF 3
ENDMDL
MODEL 5
REMARK VINA RESULT:      -7.2      3.614      5.451
REMARK  Name = 
REMARK  4 active torsions:
REMARK  status: ('A' for Active; 'I' for Inactive)
REMARK    1  A    between atoms: C_1  and  C_2
REMARK    2  A    between atoms: C_2  and  C_3
REMARK    3  A    between atoms: C_3  and  N_4
REMARK    4  A    between atoms: C_8  and  C_10
REMARK                            x       y       z     vdW  Elec       q    Type
REMARK                         _______ _______ _______ _____ _____    ______ ____
ROOT
ATOM      1  N   UNL     1       6.143   4.254  14.816  0.00  0.00    +0.000 NA
ATOM      2  C   UNL     1       5.698   3.160  15.687  0.00  0.00    +0.000 C 
ATOM      3  C   UNL     1       4.530   3.483  16.630  0.00  0.00    +0.000 C 
ATOM      4  N   UNL     1       4.512   4.807  17.278  0.00  0.00    +0.000 N 
ATOM      5  C   UNL     1       3.445   5.105  18.178  0.00  0.00    +0.000 C 
ATOM      6  O   UNL     1       3.146   6.264  18.464  0.00  0.00    +0.000 OA
ATOM      7  C   UNL     1       5.055   5.927  16.460  0.00  0.00    +0.000 C 
ATOM      8  C   UNL     1       5.566   7.176  17.206  0.00  0.00    +0.000 C 
ATOM      9  S   UNL     1       7.289   6.879  17.567  0.00  0.00    +0.000 S 
ATOM     10  O   UNL     1       8.069   7.938  16.959  0.00  0.00    +0.000 OA
ATOM     11  O   UNL     1       7.437   6.517  18.958  0.00  0.00    +0.000 OA
ATOM     12  C   UNL     1       7.465   5.422  16.572  0.00  0.00    +0.000 C 
ATOM     13  C   UNL     1       6.283   5.496  15.595  0.00  0.00    +0.000 C 
ENDROOT
BRANCH   5  14
ATOM     14  C   UNL     1       2.562   4.016  18.739  0.00  0.00    +0.000 A 
ATOM     15  C   UNL     1       2.851   3.478  19.987  0.00  0.00    +0.000 A 
ATOM     16  N   UNL     1       2.039   2.576  20.604  0.00  0.00    +0.000 NA
ATOM     17  C   UNL     1       0.929   2.220  19.917  0.00  0.00    +0.000 A 
ATOM     18  C   UNL     1       0.648   2.733  18.664  0.00  0.00    +0.000 A 
ATOM     19  N   UNL     1       1.459   3.623  18.050  0.00  0.00    +0.000 NA
ENDBRANCH   5  14
BRANCH   1  20
ATOM     20  C   UNL     1       5.286   4.356  13.626  0.00  0.00    +0.000 C 
BRANCH  20  22
ATOM     21  C   UNL     1       4.474   3.221  11.478  0.00  0.00    +0.000 C 
ATOM     22  C   UNL     1       5.585   3.341  12.512  0.00  0.00    +0.000 C 
ENDBRANCH  20  22
ENDBRANCH   1  20
TORSDOF 3
ENDMDL
MODEL 6
REMARK VINA RESULT:      -7.1      2.735      4.199
REMARK  Name = 
REMARK  4 active torsions:
REMARK  status: ('A' for Active; 'I' for Inactive)
REMARK    1  A    between atoms: C_1  and  C_2
REMARK    2  A    between atoms: C_2  and  C_3
REMARK    3  A    between atoms: C_3  and  N_4
REMARK    4  A    between atoms: C_8  and  C_10
REMARK                            x       y       z     vdW  Elec       q    Type
REMARK                         _______ _______ _______ _____ _____    ______ ____
ROOT
ATOM      1  N   UNL     1       4.111   3.501  18.557  0.00  0.00    +0.000 NA
ATOM      2  C   UNL     1       3.641   4.243  19.731  0.00  0.00    +0.000 C 
ATOM      3  C   UNL     1       2.927   5.573  19.447  0.00  0.00    +0.000 C 
ATOM      4  N   UNL     1       3.467   6.430  18.375  0.00  0.00    +0.000 N 
ATOM      5  C   UNL     1       2.827   7.681  18.123  0.00  0.00    +0.000 C 
ATOM      6  O   UNL     1       2.961   8.269  17.050  0.00  0.00    +0.000 OA
ATOM      7  C   UNL     1       4.049   5.707  17.210  0.00  0.00    +0.000 C 
ATOM      8  C   UNL     1       5.080   6.458  16.344  0.00  0.00    +0.000 C 
ATOM      9  S   UNL     1       6.678   6.142  17.075  0.00  0.00    +0.000 S 
ATOM     10  O   UNL     1       7.520   5.520  16.073  0.00  0.00    +0.000 OA
ATOM     11  O   UNL     1       7.106   7.301  17.824  0.00  0.00    +0.000 OA
ATOM     12  C   UNL     1       6.148   4.887  18.209  0.00  0.00    +0.000 C 
ATOM     13  C   UNL     1       4.809   4.408  17.630  0.00  0.00    +0.000 C 
ENDROOT
BRANCH   5  14
ATOM     14  C   UNL     1       1.869   8.289  19.118  0.00  0.00    +0.000 A 
ATOM     15  C   UNL     1       1.852   7.816  20.425  0.00  0.00    +0.000 A 
ATOM     16  N   UNL     1       1.098   8.389  21.403  0.00  0.00    +0.000 NA
ATOM     17  C   UNL     1       0.348   9.447  21.022  0.00  0.00    +0.000 A 
ATOM     18  C   UNL     1       0.342   9.908  19.718  0.00  0.00    +0.000 A 
ATOM     19  N   UNL     1       1.086   9.335  18.746  0.00  0.00    +0.000 NA
ENDBRANCH   5  14
BRANCH   1  20
ATOM     20  C   UNL     1       3.017   2.720  17.961  0.00  0.00    +0.000 C 
BRANCH  20  22
ATOM     21  C   UNL     1       0.635   2.410  18.853  0.00  0.00    +0.000 C 
ATOM     22  C   UNL     1       2.099   2.003  18.962  0.00  0.00    +0.000 C 
ENDBRANCH  20  22
ENDBRANCH   1  20
TORSDOF 3
ENDMDL
MODEL 7
REMARK VINA RESULT:      -6.5      1.056      1.235
REMARK  Name = 
REMARK  4 active torsions:
REMARK  status: ('A' for Active; 'I' for Inactive)
REMARK    1  A    between atoms: C_1  and  C_2
REMARK    2  A    between atoms: C_2  and  C_3
REMARK    3  A    between atoms: C_3  and  N_4
REMARK    4  A    between atoms: C_8  and  C_10
REMARK                            x       y       z     vdW  Elec       q    Type
REMARK                         _______ _______ _______ _____ _____    ______ ____
ROOT
ATOM      1  N   UNL     1       5.159   5.453  17.570  0.00  0.00    +0.000 NA
ATOM      2  C   UNL     1       4.415   6.630  17.111  0.00  0.00    +0.000 C 
ATOM      3  C   UNL     1       3.497   7.293  18.148  0.00  0.00    +0.000 C 
ATOM      4  N   UNL     1       2.730   6.416  19.051  0.00  0.00    +0.000 N 
ATOM      5  C   UNL     1       1.852   7.023  20.000  0.00  0.00    +0.000 C 
ATOM      6  O   UNL     1       1.473   6.422  21.005  0.00  0.00    +0.000 OA
ATOM      7  C   UNL     1       3.416   5.157  19.455  0.00  0.00    +0.000 C 
ATOM      8  C   UNL     1       2.536   3.980  19.920  0.00  0.00    +0.000 C 
ATOM      9  S   UNL     1       2.130   3.043  18.455  0.00  0.00    +0.000 S 
ATOM     10  O   UNL     1       2.602   1.686  18.638  0.00  0.00    +0.000 OA
ATOM     11  O   UNL     1       0.774   3.337  18.053  0.00  0.00    +0.000 OA
ATOM     12  C   UNL     1       3.247   3.874  17.358  0.00  0.00    +0.000 C 
ATOM     13  C   UNL     1       4.263   4.539  18.298  0.00  0.00    +0.000 C 
ENDROOT
BRANCH   5  14
ATOM     14  C   UNL     1       1.435   8.468  19.872  0.00  0.00    +0.000 A 
ATOM     15  C   UNL     1       1.154   9.200  21.019  0.00  0.00    +0.000 A 
ATOM     16  N   UNL     1       0.881  10.534  20.991  0.00  0.00    +0.000 NA
ATOM     17  C   UNL     1       0.886  11.107  19.766  0.00  0.00    +0.000 A 
ATOM     18  C   UNL     1       1.140  10.379  18.618  0.00  0.00    +0.000 A 
ATOM     19  N   UNL     1       1.405   9.054  18.647  0.00  0.00    +0.000 NA
ENDBRANCH   5  14
BRANCH   1  20
ATOM     20  C   UNL     1       6.371   5.853  18.300  0.00  0.00    +0.000 C 
BRANCH  20  22
ATOM     21  C   UNL     1       7.583   4.398  16.574  0.00  0.00    +0.000 C 
ATOM     22  C   UNL     1       7.645   5.074  17.937  0.00  0.00    +0.000 C 
ENDBRANCH  20  22
ENDBRANCH   1  20
TORSDOF 3
ENDMDL
MODEL 8
REMARK VINA RESULT:      -6.4      2.977      6.880
REMARK  Name = 
REMARK  4 active torsions:
REMARK  status: ('A' for Active; 'I' for Inactive)
REMARK    1  A    between atoms: C_1  and  C_2
REMARK    2  A    between atoms: C_2  and  C_3
REMARK    3  A    between atoms: C_3  and  N_4
REMARK    4  A    between atoms: C_8  and  C_10
REMARK                            x       y       z     vdW  Elec       q    Type
REMARK                         _______ _______ _______ _____ _____    ______ ____
ROOT
ATOM      1  N   UNL     1       0.427  10.356  18.625  0.00  0.00    +0.000 NA
ATOM      2  C   UNL     1       1.733   9.921  18.120  0.00  0.00    +0.000 C 
ATOM      3  C   UNL     1       2.094   8.448  18.366  0.00  0.00    +0.000 C 
ATOM      4  N   UNL     1       1.729   7.857  19.666  0.00  0.00    +0.000 N 
ATOM      5  C   UNL     1       2.086   6.498  19.915  0.00  0.00    +0.000 C 
ATOM      6  O   UNL     1       1.519   5.829  20.779  0.00  0.00    +0.000 OA
ATOM      7  C   UNL     1       0.456   8.355  20.261  0.00  0.00    +0.000 C 
ATOM      8  C   UNL     1       0.279   8.220  21.786  0.00  0.00    +0.000 C 
ATOM      9  S   UNL     1       0.955   9.708  22.506  0.00  0.00    +0.000 S 
ATOM     10  O   UNL     1      -0.090  10.357  23.273  0.00  0.00    +0.000 OA
ATOM     11  O   UNL     1       2.256   9.426  23.067  0.00  0.00    +0.000 OA
ATOM     12  C   UNL     1       1.164  10.601  20.989  0.00  0.00    +0.000 C 
ATOM     13  C   UNL     1       0.232   9.879  20.004  0.00  0.00    +0.000 C 
ENDROOT
BRANCH   5  14
ATOM     14  C   UNL     1       3.101   5.782  19.058  0.00  0.00    +0.000 A 
ATOM     15  C   UNL     1       4.440   5.796  19.430  0.00  0.00    +0.000 A 
ATOM     16  N   UNL     1       5.393   5.081  18.770  0.00  0.00    +0.000 NA
ATOM     17  C   UNL     1       4.958   4.360  17.712  0.00  0.00    +0.000 A 
ATOM     18  C   UNL     1       3.632   4.362  17.321  0.00  0.00    +0.000 A 
ATOM     19  N   UNL     1       2.688   5.076  17.972  0.00  0.00    +0.000 NA
ENDBRANCH   5  14
BRANCH   1  20
ATOM     20  C   UNL     1      -0.643   9.996  17.683  0.00  0.00    +0.000 C 
BRANCH  20  22
ATOM     21  C   UNL     1      -3.156   9.804  17.219  0.00  0.00    +0.000 C 
ATOM     22  C   UNL     1      -2.069  10.325  18.151  0.00  0.00    +0.000 C 
ENDBRANCH  20  22
ENDBRANCH   1  20
TORSDOF 3
ENDMDL
MODEL 9
REMARK VINA RESULT:      -6.4      1.194      1.624
REMARK  Name = 
REMARK  4 active torsions:
REMARK  status: ('A' for Active; 'I' for Inactive)
REMARK    1  A    between atoms: C_1  and  C_2
REMARK    2  A    between atoms: C_2  and  C_3
REMARK    3  A    between atoms: C_3  and  N_4
REMARK    4  A    between atoms: C_8  and  C_10
REMARK                            x       y       z     vdW  Elec       q    Type
REMARK                         _______ _______ _______ _____ _____    ______ ____
ROOT
ATOM      1  N   UNL     1       5.114   5.363  17.603  0.00  0.00    +0.000 NA
ATOM      2  C   UNL     1       4.405   6.560  17.138  0.00  0.00    +0.000 C 
ATOM      3  C   UNL     1       3.511   7.258  18.174  0.00  0.00    +0.000 C 
ATOM      4  N   UNL     1       2.720   6.411  19.085  0.00  0.00    +0.000 N 
ATOM      5  C   UNL     1       1.865   7.051  20.032  0.00  0.00    +0.000 C 
ATOM      6  O   UNL     1       1.471   6.469  21.042  0.00  0.00    +0.000 OA
ATOM      7  C   UNL     1       3.369   5.134  19.496  0.00  0.00    +0.000 C 
ATOM      8  C   UNL     1       2.454   3.988  19.971  0.00  0.00    +0.000 C 
ATOM      9  S   UNL     1       2.014   3.055  18.514  0.00  0.00    +0.000 S 
ATOM     10  O   UNL     1       2.445   1.684  18.705  0.00  0.00    +0.000 OA
ATOM     11  O   UNL     1       0.666   3.387  18.114  0.00  0.00    +0.000 OA
ATOM     12  C   UNL     1       3.153   3.843  17.407  0.00  0.00    +0.000 C 
ATOM     13  C   UNL     1       4.192   4.482  18.340  0.00  0.00    +0.000 C 
ENDROOT
BRANCH   5  14
ATOM     14  C   UNL     1       1.492   8.507  19.896  0.00  0.00    +0.000 A 
ATOM     15  C   UNL     1       1.383   9.068  18.629  0.00  0.00    +0.000 A 
ATOM     16  N   UNL     1       0.943  10.340  18.424  0.00  0.00    +0.000 NA
ATOM     17  C   UNL     1       0.628  11.038  19.539  0.00  0.00    +0.000 A 
ATOM     18  C   UNL     1       0.758  10.495  20.804  0.00  0.00    +0.000 A 
ATOM     19  N   UNL     1       1.200   9.234  21.006  0.00  0.00    +0.000 NA
ENDBRANCH   5  14
BRANCH   1  20
ATOM     20  C   UNL     1       6.340   5.730  18.327  0.00  0.00    +0.000 C 
BRANCH  20  22
ATOM     21  C   UNL     1       7.508   4.453  16.438  0.00  0.00    +0.000 C 
ATOM     22  C   UNL     1       7.624   5.044  17.837  0.00  0.00    +0.000 C 
ENDBRANCH  20  22
ENDBRANCH   1  20
TORSDOF 3
ENDMDL
