MODEL 1
REMARK VINA RESULT:      -7.5      0.000      0.000
REMARK  Name = 
REMARK  5 active torsions:
REMARK  status: ('A' for Active; 'I' for Inactive)
REMARK    1  A    between atoms: C_4  and  C_5
REMARK    2  A    between atoms: C_5  and  C_6
REMARK    3  A    between atoms: C_6  and  C_7
REMARK    4  A    between atoms: C_7  and  N_8
REMARK    5  A    between atoms: C_9  and  C_11
REMARK                            x       y       z     vdW  Elec       q    Type
REMARK                         _______ _______ _______ _____ _____    ______ ____
ROOT
ATOM      1  N   UNL     1       5.389   5.604  17.653  0.00  0.00    +0.000 N 
ATOM      2  C   UNL     1       5.151   4.756  16.590  0.00  0.00    +0.000 C 
ATOM      3  O   UNL     1       4.215   3.963  16.560  0.00  0.00    +0.000 OA
ATOM      4  H   UNL     1       6.170   6.246  17.533  0.00  0.00    +0.000 HD
ENDROOT
BRANCH   2   5
ATOM      5  C   UNL     1       6.123   4.893  15.493  0.00  0.00    +0.000 A 
ATOM      6  N   UNL     1       7.261   5.630  15.606  0.00  0.00    +0.000 NA
ATOM      7  N   UNL     1       7.875   5.507  14.401  0.00  0.00    +0.000 N 
ATOM      8  C   UNL     1       7.167   4.733  13.556  0.00  0.00    +0.000 A 
ATOM      9  C   UNL     1       6.051   4.321  14.213  0.00  0.00    +0.000 A 
ATOM     10  C   UNL     1       5.196   3.468  13.380  0.00  0.00    +0.000 C 
ATOM     11  C   UNL     1       5.986   3.421  12.019  0.00  0.00    +0.000 C 
ATOM     12  C   UNL     1       7.303   4.265  12.174  0.00  0.00    +0.000 C 
ATOM     13  H   UNL     1       8.760   5.983  14.251  0.00  0.00    +0.000 HD
ENDBRANCH   2   5
BRANCH   1  14
ATOM     14  C   UNL     1       4.555   5.647  18.831  0.00  0.00    +0.000 C 
BRANCH  14  15
ATOM     15  C   UNL     1       3.317   6.516  18.626  0.00  0.00    +0.000 C 
BRANCH  15  16
ATOM     16  C   UNL     1       2.335   6.360  19.790  0.00  0.00    +0.000 C 
BRANCH  16  20
ATOM     17  N   UNL     1       0.847   1.935  18.674  0.00  0.00    +0.000 N 
ATOM     18  C   UNL     1       1.296   2.919  19.461  0.00  0.00    +0.000 A 
ATOM     19  N   UNL     1       1.516   4.139  19.036  0.00  0.00    +0.000 NA
ATOM     20  C   UNL     1       2.005   4.928  20.067  0.00  0.00    +0.000 A 
ATOM     21  C   UNL     1       2.130   4.277  21.279  0.00  0.00    +0.000 A 
ATOM     22  S   UNL     1       1.630   2.648  21.123  0.00  0.00    +0.000 S 
ATOM     23  H   UNL     1       0.548   2.156  17.734  0.00  0.00    +0.000 HD
ATOM     24  H   UNL     1       0.569   1.041  19.055  0.00  0.00    +0.000 HD
ENDBRANCH  16  20
ENDBRANCH  15  16
ENDBRANCH  14  15
ENDBRANCH   1  14
TORSDOF 5
ENDMDL
MODEL 2
REMARK VINA RESULT:      -7.4      2.711      6.918
REMARK  Name = 
REMARK  5 active torsions:
REMARK  status: ('A' for Active; 'I' for Inactive)
REMARK    1  A    between atoms: C_4  and  C_5
REMARK    2  A    between atoms: C_5  and  C_6
REMARK    3  A    between atoms: C_6  and  C_7
REMARK    4  A    between atoms: C_7  and  N_8
REMARK    5  A    between atoms: C_9  and  C_11
REMARK                            x       y       z     vdW  Elec       q    Type
REMARK                         _______ _______ _______ _____ _____    ______ ____
ROOT
ATOM      1  N   UNL     1       4.646   6.213  18.033  0.00  0.00    +0.000 N 
ATOM      2  C   UNL     1       3.392   6.743  18.265  0.00  0.00    +0.000 C 
ATOM      3  O   UNL     1       3.028   7.828  17.823  0.00  0.00    +0.000 OA
ATOM      4  H   UNL     1       4.805   5.284  18.417  0.00  0.00    +0.000 HD
ENDROOT
BRANCH   2   5
ATOM      5  C   UNL     1       2.530   5.884  19.093  0.00  0.00    +0.000 A 
ATOM      6  N   UNL     1       2.018   6.287  20.288  0.00  0.00    +0.000 NA
ATOM      7  N   UNL     1       1.291   5.227  20.729  0.00  0.00    +0.000 N 
ATOM      8  C   UNL     1       1.336   4.196  19.864  0.00  0.00    +0.000 A 
ATOM      9  C   UNL     1       2.108   4.574  18.812  0.00  0.00    +0.000 A 
ATOM     10  C   UNL     1       2.231   3.517  17.801  0.00  0.00    +0.000 C 
ATOM     11  C   UNL     1       1.383   2.348  18.428  0.00  0.00    +0.000 C 
ATOM     12  C   UNL     1       0.788   2.838  19.798  0.00  0.00    +0.000 C 
ATOM     13  H   UNL     1       0.810   5.301  21.620  0.00  0.00    +0.000 HD
ENDBRANCH   2   5
BRANCH   1  14
ATOM     14  C   UNL     1       5.650   6.881  17.239  0.00  0.00    +0.000 C 
BRANCH  14  15
ATOM     15  C   UNL     1       7.061   6.417  17.590  0.00  0.00    +0.000 C 
BRANCH  15  16
ATOM     16  C   UNL     1       7.263   4.944  17.225  0.00  0.00    +0.000 C 
BRANCH  16  20
ATOM     17  N   UNL     1       7.916   5.536  12.507  0.00  0.00    +0.000 N 
ATOM     18  C   UNL     1       7.375   5.025  13.619  0.00  0.00    +0.000 A 
ATOM     19  N   UNL     1       7.717   5.401  14.827  0.00  0.00    +0.000 NA
ATOM     20  C   UNL     1       7.011   4.677  15.776  0.00  0.00    +0.000 A 
ATOM     21  C   UNL     1       6.118   3.762  15.253  0.00  0.00    +0.000 A 
ATOM     22  S   UNL     1       6.168   3.807  13.543  0.00  0.00    +0.000 S 
ATOM     23  H   UNL     1       8.535   6.331  12.583  0.00  0.00    +0.000 HD
ATOM     24  H   UNL     1       7.546   5.317  11.592  0.00  0.00    +0.000 HD
ENDBRANCH  16  20
ENDBRANCH  15  16
ENDBRANCH  14  15
ENDBRANCH   1  14
TORSDOF 5
ENDMDL
MODEL 3
REMARK VINA RESULT:      -7.3      1.171      1.374
REMARK  Name = 
REMARK  5 active torsions:
REMARK  status: ('A' for Active; 'I' for Inactive)
REMARK    1  A    between atoms: C_4  and  C_5
REMARK    2  A    between atoms: C_5  and  C_6
REMARK    3  A    between atoms: C_6  and  C_7
REMARK    4  A    between atoms: C_7  and  N_8
REMARK    5  A    between atoms: C_9  and  C_11
REMARK                            x       y       z     vdW  Elec       q    Type
REMARK                         _______ _______ _______ _____ _____    ______ ____
ROOT
ATOM      1  N   UNL     1       5.936   5.155  17.789  0.00  0.00    +0.000 N 
ATOM      2  C   UNL     1       5.683   4.328  16.713  0.00  0.00    +0.000 C 
ATOM      3  O   UNL     1       4.875   3.406  16.749  0.00  0.00    +0.000 OA
ATOM      4  H   UNL     1       6.594   5.911  17.614  0.00  0.00    +0.000 HD
ENDROOT
BRANCH   2   5
ATOM      5  C   UNL     1       6.472   4.657  15.515  0.00  0.00    +0.000 A 
ATOM      6  N   UNL     1       7.539   5.503  15.545  0.00  0.00    +0.000 NA
ATOM      7  N   UNL     1       7.985   5.544  14.262  0.00  0.00    +0.000 N 
ATOM      8  C   UNL     1       7.243   4.767  13.450  0.00  0.00    +0.000 A 
ATOM      9  C   UNL     1       6.276   4.186  14.207  0.00  0.00    +0.000 A 
ATOM     10  C   UNL     1       5.398   3.313  13.418  0.00  0.00    +0.000 C 
ATOM     11  C   UNL     1       5.989   3.462  11.966  0.00  0.00    +0.000 C 
ATOM     12  C   UNL     1       7.226   4.429  12.024  0.00  0.00    +0.000 C 
ATOM     13  H   UNL     1       8.789   6.124  14.043  0.00  0.00    +0.000 HD
ENDBRANCH   2   5
BRANCH   1  14
ATOM     14  C   UNL     1       5.267   5.021  19.062  0.00  0.00    +0.000 C 
BRANCH  14  15
ATOM     15  C   UNL     1       4.204   6.096  19.267  0.00  0.00    +0.000 C 
BRANCH  15  16
ATOM     16  C   UNL     1       2.990   5.850  18.369  0.00  0.00    +0.000 C 
BRANCH  16  20
ATOM     17  N   UNL     1       0.999   2.801  21.496  0.00  0.00    +0.000 N 
ATOM     18  C   UNL     1       1.340   3.283  20.296  0.00  0.00    +0.000 A 
ATOM     19  N   UNL     1       2.049   4.372  20.129  0.00  0.00    +0.000 NA
ATOM     20  C   UNL     1       2.216   4.638  18.778  0.00  0.00    +0.000 A 
ATOM     21  C   UNL     1       1.630   3.714  17.935  0.00  0.00    +0.000 A 
ATOM     22  S   UNL     1       0.854   2.494  18.850  0.00  0.00    +0.000 S 
ATOM     23  H   UNL     1       1.399   3.220  22.324  0.00  0.00    +0.000 HD
ATOM     24  H   UNL     1       0.560   1.896  21.596  0.00  0.00    +0.000 HD
ENDBRANCH  16  20
ENDBRANCH  15  16
ENDBRANCH  14  15
ENDBRANCH   1  14
TORSDOF 5
ENDMDL
MODEL 4
REMARK VINA RESULT:      -7.3      2.635      6.752
REMARK  Name = 
REMARK  5 active torsions:
REMARK  status: ('A' for Active; 'I' for Inactive)
REMARK    1  A    between atoms: C_4  and  C_5
REMARK    2  A    between atoms: C_5  and  C_6
REMARK    3  A    between atoms: C_6  and  C_7
REMARK    4  A    between atoms: C_7  and  N_8
REMARK    5  A    between atoms: C_9  and  C_11
REMARK                            x       y       z     vdW  Elec       q    Type
REMARK                         _______ _______ _______ _____ _____    ______ ____
ROOT
ATOM      1  N   UNL     1       4.093   4.399  16.650  0.00  0.00    +0.000 N 
ATOM      2  C   UNL     1       3.861   5.491  17.460  0.00  0.00    +0.000 C 
ATOM      3  O   UNL     1       4.175   6.637  17.151  0.00  0.00    +0.000 OA
ATOM      4  H   UNL     1       3.741   3.511  17.002  0.00  0.00    +0.000 HD
ENDROOT
BRANCH   2   5
ATOM      5  C   UNL     1       3.198   5.156  18.731  0.00  0.00    +0.000 A 
ATOM      6  N   UNL     1       3.458   5.817  19.893  0.00  0.00    +0.000 NA
ATOM      7  N   UNL     1       2.661   5.219  20.817  0.00  0.00    +0.000 N 
ATOM      8  C   UNL     1       1.930   4.224  20.278  0.00  0.00    +0.000 A 
ATOM      9  C   UNL     1       2.240   4.156  18.957  0.00  0.00    +0.000 A 
ATOM     10  C   UNL     1       1.499   3.095  18.264  0.00  0.00    +0.000 C 
ATOM     11  C   UNL     1       0.643   2.465  19.426  0.00  0.00    +0.000 C 
ATOM     12  C   UNL     1       0.944   3.249  20.754  0.00  0.00    +0.000 C 
ATOM     13  H   UNL     1       2.688   5.553  21.775  0.00  0.00    +0.000 HD
ENDBRANCH   2   5
BRANCH   1  14
ATOM     14  C   UNL     1       4.721   4.497  15.353  0.00  0.00    +0.000 C 
BRANCH  14  15
ATOM     15  C   UNL     1       6.005   3.675  15.274  0.00  0.00    +0.000 C 
BRANCH  15  16
ATOM     16  C   UNL     1       7.238   4.582  15.235  0.00  0.00    +0.000 C 
BRANCH  16  20
ATOM     17  N   UNL     1       7.812   8.518  17.922  0.00  0.00    +0.000 N 
ATOM     18  C   UNL     1       7.697   7.209  17.666  0.00  0.00    +0.000 A 
ATOM     19  N   UNL     1       7.551   6.720  16.459  0.00  0.00    +0.000 NA
ATOM     20  C   UNL     1       7.428   5.339  16.510  0.00  0.00    +0.000 A 
ATOM     21  C   UNL     1       7.503   4.802  17.780  0.00  0.00    +0.000 A 
ATOM     22  S   UNL     1       7.728   6.049  18.931  0.00  0.00    +0.000 S 
ATOM     23  H   UNL     1       7.910   9.162  17.149  0.00  0.00    +0.000 HD
ATOM     24  H   UNL     1       8.048   8.855  18.845  0.00  0.00    +0.000 HD
ENDBRANCH  16  20
ENDBRANCH  15  16
ENDBRANCH  14  15
ENDBRANCH   1  14
TORSDOF 5
ENDMDL
MODEL 5
REMARK VINA RESULT:      -7.2      6.100      8.553
REMARK  Name = 
REMARK  5 active torsions:
REMARK  status: ('A' for Active; 'I' for Inactive)
REMARK    1  A    between atoms: C_4  and  C_5
REMARK    2  A    between atoms: C_5  and  C_6
REMARK    3  A    between atoms: C_6  and  C_7
REMARK    4  A    between atoms: C_7  and  N_8
REMARK    5  A    between atoms: C_9  and  C_11
REMARK                            x       y       z     vdW  Elec       q    Type
REMARK                         _______ _______ _______ _____ _____    ______ ____
ROOT
ATOM      1  N   UNL     1       7.489   7.622  17.968  0.00  0.00    +0.000 N 
ATOM      2  C   UNL     1       7.150   6.506  17.230  0.00  0.00    +0.000 C 
ATOM      3  O   UNL     1       7.553   6.308  16.088  0.00  0.00    +0.000 OA
ATOM      4  H   UNL     1       7.126   7.643  18.919  0.00  0.00    +0.000 HD
ENDROOT
BRANCH   2   5
ATOM      5  C   UNL     1       6.261   5.573  17.940  0.00  0.00    +0.000 A 
ATOM      6  N   UNL     1       6.717   4.451  18.562  0.00  0.00    +0.000 NA
ATOM      7  N   UNL     1       5.607   3.870  19.087  0.00  0.00    +0.000 N 
ATOM      8  C   UNL     1       4.495   4.580  18.815  0.00  0.00    +0.000 A 
ATOM      9  C   UNL     1       4.869   5.668  18.092  0.00  0.00    +0.000 A 
ATOM     10  C   UNL     1       3.728   6.518  17.733  0.00  0.00    +0.000 C 
ATOM     11  C   UNL     1       2.513   5.739  18.363  0.00  0.00    +0.000 C 
ATOM     12  C   UNL     1       3.060   4.457  19.089  0.00  0.00    +0.000 C 
ATOM     13  H   UNL     1       5.707   3.002  19.605  0.00  0.00    +0.000 HD
ENDBRANCH   2   5
BRANCH   1  14
ATOM     14  C   UNL     1       8.359   8.663  17.472  0.00  0.00    +0.000 C 
BRANCH  14  15
ATOM     15  C   UNL     1       8.185   9.970  18.241  0.00  0.00    +0.000 C 
BRANCH  15  16
ATOM     16  C   UNL     1       9.311  10.164  19.260  0.00  0.00    +0.000 C 
BRANCH  16  20
ATOM     17  N   UNL     1      10.862  13.814  16.556  0.00  0.00    +0.000 N 
ATOM     18  C   UNL     1      10.885  12.932  17.562  0.00  0.00    +0.000 A 
ATOM     19  N   UNL     1       9.971  12.009  17.734  0.00  0.00    +0.000 NA
ATOM     20  C   UNL     1      10.243  11.267  18.874  0.00  0.00    +0.000 A 
ATOM     21  C   UNL     1      11.391  11.644  19.544  0.00  0.00    +0.000 A 
ATOM     22  S   UNL     1      12.139  12.952  18.734  0.00  0.00    +0.000 S 
ATOM     23  H   UNL     1      10.179  13.700  15.820  0.00  0.00    +0.000 HD
ATOM     24  H   UNL     1      11.642  14.432  16.379  0.00  0.00    +0.000 HD
ENDBRANCH  16  20
ENDBRANCH  15  16
ENDBRANCH  14  15
ENDBRANCH   1  14
TORSDOF 5
ENDMDL
MODEL 6
REMARK VINA RESULT:      -7.1      2.536      6.866
REMARK  Name = 
REMARK  5 active torsions:
REMARK  status: ('A' for Active; 'I' for Inactive)
REMARK    1  A    between atoms: C_4  and  C_5
REMARK    2  A    between atoms: C_5  and  C_6
REMARK    3  A    between atoms: C_6  and  C_7
REMARK    4  A    between atoms: C_7  and  N_8
REMARK    5  A    between atoms: C_9  and  C_11
REMARK                            x       y       z     vdW  Elec       q    Type
REMARK                         _______ _______ _______ _____ _____    ______ ____
ROOT
ATOM      1  N   UNL     1       5.520   5.109  19.059  0.00  0.00    +0.000 N 
ATOM      2  C   UNL     1       4.350   5.500  18.440  0.00  0.00    +0.000 C 
ATOM      3  O   UNL     1       4.183   6.617  17.960  0.00  0.00    +0.000 OA
ATOM      4  H   UNL     1       5.547   4.142  19.373  0.00  0.00    +0.000 HD
ENDROOT
BRANCH   2   5
ATOM      5  C   UNL     1       3.319   4.451  18.407  0.00  0.00    +0.000 A 
ATOM      6  N   UNL     1       2.968   3.799  17.265  0.00  0.00    +0.000 NA
ATOM      7  N   UNL     1       2.001   2.925  17.647  0.00  0.00    +0.000 N 
ATOM      8  C   UNL     1       1.741   3.012  18.966  0.00  0.00    +0.000 A 
ATOM      9  C   UNL     1       2.559   3.966  19.483  0.00  0.00    +0.000 A 
ATOM     10  C   UNL     1       2.358   4.151  20.926  0.00  0.00    +0.000 C 
ATOM     11  C   UNL     1       1.211   3.119  21.243  0.00  0.00    +0.000 C 
ATOM     12  C   UNL     1       0.831   2.367  19.916  0.00  0.00    +0.000 C 
ATOM     13  H   UNL     1       1.582   2.321  16.946  0.00  0.00    +0.000 HD
ENDBRANCH   2   5
BRANCH   1  14
ATOM     14  C   UNL     1       6.669   5.976  19.195  0.00  0.00    +0.000 C 
BRANCH  14  15
ATOM     15  C   UNL     1       7.585   5.907  17.977  0.00  0.00    +0.000 C 
BRANCH  15  16
ATOM     16  C   UNL     1       7.622   4.492  17.393  0.00  0.00    +0.000 C 
BRANCH  16  20
ATOM     17  N   UNL     1       7.750   5.614  12.728  0.00  0.00    +0.000 N 
ATOM     18  C   UNL     1       7.289   5.031  13.840  0.00  0.00    +0.000 A 
ATOM     19  N   UNL     1       7.829   5.202  15.022  0.00  0.00    +0.000 NA
ATOM     20  C   UNL     1       7.155   4.450  15.974  0.00  0.00    +0.000 A 
ATOM     21  C   UNL     1       6.086   3.726  15.482  0.00  0.00    +0.000 A 
ATOM     22  S   UNL     1       5.926   3.988  13.799  0.00  0.00    +0.000 S 
ATOM     23  H   UNL     1       8.477   6.312  12.805  0.00  0.00    +0.000 HD
ATOM     24  H   UNL     1       7.241   5.563  11.856  0.00  0.00    +0.000 HD
ENDBRANCH  16  20
ENDBRANCH  15  16
ENDBRANCH  14  15
ENDBRANCH   1  14
TORSDOF 5
ENDMDL
MODEL 7
REMARK VINA RESULT:      -7.1      1.652      1.784
REMARK  Name = 
REMARK  5 active torsions:
REMARK  status: ('A' for Active; 'I' for Inactive)
REMARK    1  A    between atoms: C_4  and  C_5
REMARK    2  A    between atoms: C_5  and  C_6
REMARK    3  A    between atoms: C_6  and  C_7
REMARK    4  A    between atoms: C_7  and  N_8
REMARK    5  A    between atoms: C_9  and  C_11
REMARK                            x       y       z     vdW  Elec       q    Type
REMARK                         _______ _______ _______ _____ _____    ______ ____
ROOT
ATOM      1  N   UNL     1       5.422   6.162  16.904  0.00  0.00    +0.000 N 
ATOM      2  C   UNL     1       5.719   4.913  16.398  0.00  0.00    +0.000 C 
ATOM      3  O   UNL     1       5.364   3.868  16.935  0.00  0.00    +0.000 OA
ATOM      4  H   UNL     1       5.734   6.948  16.337  0.00  0.00    +0.000 HD
ENDROOT
BRANCH   2   5
ATOM      5  C   UNL     1       6.500   4.948  15.150  0.00  0.00    +0.000 A 
ATOM      6  N   UNL     1       7.651   5.664  15.023  0.00  0.00    +0.000 NA
ATOM      7  N   UNL     1       8.057   5.442  13.745  0.00  0.00    +0.000 N 
ATOM      8  C   UNL     1       7.210   4.628  13.086  0.00  0.00    +0.000 A 
ATOM      9  C   UNL     1       6.212   4.292  13.943  0.00  0.00    +0.000 A 
ATOM     10  C   UNL     1       5.220   3.403  13.325  0.00  0.00    +0.000 C 
ATOM     11  C   UNL     1       5.776   3.243  11.860  0.00  0.00    +0.000 C 
ATOM     12  C   UNL     1       7.112   4.062  11.737  0.00  0.00    +0.000 C 
ATOM     13  H   UNL     1       8.911   5.884  13.420  0.00  0.00    +0.000 HD
ENDBRANCH   2   5
BRANCH   1  14
ATOM     14  C   UNL     1       4.657   6.363  18.112  0.00  0.00    +0.000 C 
BRANCH  14  15
ATOM     15  C   UNL     1       3.155   6.387  17.842  0.00  0.00    +0.000 C 
BRANCH  15  16
ATOM     16  C   UNL     1       2.391   5.603  18.912  0.00  0.00    +0.000 C 
BRANCH  16  20
ATOM     17  N   UNL     1       5.003   1.837  20.341  0.00  0.00    +0.000 N 
ATOM     18  C   UNL     1       4.050   2.486  19.661  0.00  0.00    +0.000 A 
ATOM     19  N   UNL     1       3.860   3.781  19.743  0.00  0.00    +0.000 NA
ATOM     20  C   UNL     1       2.786   4.161  18.952  0.00  0.00    +0.000 A 
ATOM     21  C   UNL     1       2.186   3.126  18.262  0.00  0.00    +0.000 A 
ATOM     22  S   UNL     1       2.978   1.651  18.613  0.00  0.00    +0.000 S 
ATOM     23  H   UNL     1       5.689   2.371  20.855  0.00  0.00    +0.000 HD
ATOM     24  H   UNL     1       5.205   0.863  20.164  0.00  0.00    +0.000 HD
ENDBRANCH  16  20
ENDBRANCH  15  16
ENDBRANCH  14  15
ENDBRANCH   1  14
TORSDOF 5
ENDMDL
MODEL 8
REMARK VINA RESULT:      -7.0      3.088      6.862
REMARK  Name = 
REMARK  5 active torsions:
REMARK  status: ('A' for Active; 'I' for Inactive)
REMARK    1  A    between atoms: C_4  and  C_5
REMARK    2  A    between atoms: C_5  and  C_6
REMARK    3  A    between atoms: C_6  and  C_7
REMARK    4  A    between atoms: C_7  and  N_8
REMARK    5  A    between atoms: C_9  and  C_11
REMARK                            x       y       z     vdW  Elec       q    Type
REMARK                         _______ _______ _______ _____ _____    ______ ____
ROOT
ATOM      1  N   UNL     1       3.886   4.487  17.749  0.00  0.00    +0.000 N 
ATOM      2  C   UNL     1       2.538   4.669  17.982  0.00  0.00    +0.000 C 
ATOM      3  O   UNL     1       1.663   4.035  17.402  0.00  0.00    +0.000 OA
ATOM      4  H   UNL     1       4.509   5.043  18.331  0.00  0.00    +0.000 HD
ENDROOT
BRANCH   2   5
ATOM      5  C   UNL     1       2.246   5.696  18.996  0.00  0.00    +0.000 A 
ATOM      6  N   UNL     1       2.108   5.405  20.319  0.00  0.00    +0.000 NA
ATOM      7  N   UNL     1       1.847   6.600  20.911  0.00  0.00    +0.000 N 
ATOM      8  C   UNL     1       1.816   7.605  20.015  0.00  0.00    +0.000 A 
ATOM      9  C   UNL     1       2.067   7.073  18.791  0.00  0.00    +0.000 A 
ATOM     10  C   UNL     1       2.054   8.085  17.728  0.00  0.00    +0.000 C 
ATOM     11  C   UNL     1       1.718   9.404  18.521  0.00  0.00    +0.000 C 
ATOM     12  C   UNL     1       1.578   9.051  20.046  0.00  0.00    +0.000 C 
ATOM     13  H   UNL     1       1.704   6.627  21.916  0.00  0.00    +0.000 HD
ENDBRANCH   2   5
BRANCH   1  14
ATOM     14  C   UNL     1       4.400   3.524  16.803  0.00  0.00    +0.000 C 
BRANCH  14  15
ATOM     15  C   UNL     1       5.182   4.191  15.674  0.00  0.00    +0.000 C 
BRANCH  15  16
ATOM     16  C   UNL     1       6.690   4.099  15.920  0.00  0.00    +0.000 C 
BRANCH  16  20
ATOM     17  N   UNL     1       8.417   5.369  20.215  0.00  0.00    +0.000 N 
ATOM     18  C   UNL     1       7.947   5.551  18.975  0.00  0.00    +0.000 A 
ATOM     19  N   UNL     1       7.565   4.569  18.196  0.00  0.00    +0.000 NA
ATOM     20  C   UNL     1       7.156   5.061  16.965  0.00  0.00    +0.000 A 
ATOM     21  C   UNL     1       7.223   6.435  16.845  0.00  0.00    +0.000 A 
ATOM     22  S   UNL     1       7.813   7.123  18.296  0.00  0.00    +0.000 S 
ATOM     23  H   UNL     1       8.372   4.447  20.626  0.00  0.00    +0.000 HD
ATOM     24  H   UNL     1       8.586   6.150  20.834  0.00  0.00    +0.000 HD
ENDBRANCH  16  20
ENDBRANCH  15  16
ENDBRANCH  14  15
ENDBRANCH   1  14
TORSDOF 5
ENDMDL
MODEL 9
REMARK VINA RESULT:      -7.0      3.204      6.667
REMARK  Name = 
REMARK  5 active torsions:
REMARK  status: ('A' for Active; 'I' for Inactive)
REMARK    1  A    between atoms: C_4  and  C_5
REMARK    2  A    between atoms: C_5  and  C_6
REMARK    3  A    between atoms: C_6  and  C_7
REMARK    4  A    between atoms: C_7  and  N_8
REMARK    5  A    between atoms: C_9  and  C_11
REMARK                            x       y       z     vdW  Elec       q    Type
REMARK                         _______ _______ _______ _____ _____    ______ ____
ROOT
ATOM      1  N   UNL     1       5.183   3.494  16.702  0.00  0.00    +0.000 N 
ATOM      2  C   UNL     1       3.914   3.348  17.225  0.00  0.00    +0.000 C 
ATOM      3  O   UNL     1       2.892   3.484  16.559  0.00  0.00    +0.000 OA
ATOM      4  H   UNL     1       5.946   3.309  17.350  0.00  0.00    +0.000 HD
ENDROOT
BRANCH   2   5
ATOM      5  C   UNL     1       3.898   3.011  18.658  0.00  0.00    +0.000 A 
ATOM      6  N   UNL     1       5.009   2.601  19.330  0.00  0.00    +0.000 NA
ATOM      7  N   UNL     1       4.586   2.392  20.604  0.00  0.00    +0.000 N 
ATOM      8  C   UNL     1       3.272   2.651  20.743  0.00  0.00    +0.000 A 
ATOM      9  C   UNL     1       2.801   3.049  19.532  0.00  0.00    +0.000 A 
ATOM     10  C   UNL     1       1.366   3.356  19.564  0.00  0.00    +0.000 C 
ATOM     11  C   UNL     1       0.988   3.054  21.063  0.00  0.00    +0.000 C 
ATOM     12  C   UNL     1       2.285   2.598  21.825  0.00  0.00    +0.000 C 
ATOM     13  H   UNL     1       5.258   2.075  21.296  0.00  0.00    +0.000 HD
ENDBRANCH   2   5
BRANCH   1  14
ATOM     14  C   UNL     1       5.434   3.814  15.316  0.00  0.00    +0.000 C 
BRANCH  14  15
ATOM     15  C   UNL     1       6.163   5.145  15.158  0.00  0.00    +0.000 C 
BRANCH  15  16
ATOM     16  C   UNL     1       5.620   6.190  16.136  0.00  0.00    +0.000 C 
BRANCH  16  20
ATOM     17  N   UNL     1       8.254   5.436  20.078  0.00  0.00    +0.000 N 
ATOM     18  C   UNL     1       7.782   6.114  19.025  0.00  0.00    +0.000 A 
ATOM     19  N   UNL     1       6.884   5.634  18.201  0.00  0.00    +0.000 NA
ATOM     20  C   UNL     1       6.614   6.549  17.194  0.00  0.00    +0.000 A 
ATOM     21  C   UNL     1       7.318   7.734  17.292  0.00  0.00    +0.000 A 
ATOM     22  S   UNL     1       8.338   7.698  18.665  0.00  0.00    +0.000 S 
ATOM     23  H   UNL     1       7.822   4.558  20.329  0.00  0.00    +0.000 HD
ATOM     24  H   UNL     1       8.852   5.877  20.764  0.00  0.00    +0.000 HD
ENDBRANCH  16  20
ENDBRANCH  15  16
ENDBRANCH  14  15
ENDBRANCH   1  14
TORSDOF 5
ENDMDL
