MODEL 1
REMARK VINA RESULT:      -7.8      0.000      0.000
REMARK  Name = 
REMARK  11 active torsions:
REMARK  status: ('A' for Active; 'I' for Inactive)
REMARK    1  A    between atoms: C_1  and  C_2
REMARK    2  A    between atoms: C_2  and  N_3
REMARK    3  A    between atoms: C_7  and  C_8
REMARK    4  A    between atoms: C_7  and  C_9
REMARK    5  A    between atoms: C_12  and  C_13
REMARK    6  A    between atoms: C_14  and  C_15
REMARK    7  A    between atoms: C_17  and  C_18
REMARK    8  A    between atoms: C_19  and  C_20
REMARK    9  A    between atoms: C_20  and  O_22
REMARK   10  A    between atoms: C_25  and  O_26
REMARK   11  A    between atoms: O_26  and  C_27
REMARK                            x       y       z     vdW  Elec       q    Type
REMARK                         _______ _______ _______ _____ _____    ______ ____
ROOT
ATOM      1  C   UNL     1       5.297   4.497  15.493  0.00  0.00    +0.000 A 
ATOM      2  C   UNL     1       4.736   4.283  14.217  0.00  0.00    +0.000 A 
ATOM      3  C   UNL     1       5.500   4.025  13.073  0.00  0.00    +0.000 A 
ATOM      4  C   UNL     1       6.871   4.214  13.148  0.00  0.00    +0.000 A 
ATOM      5  C   UNL     1       7.447   4.659  14.341  0.00  0.00    +0.000 A 
ATOM      6  C   UNL     1       6.680   4.814  15.510  0.00  0.00    +0.000 A 
ENDROOT
BRANCH   1  18
ATOM      7  N   UNL     1       2.469   6.294  19.244  0.00  0.00    +0.000 N 
ATOM      8  C   UNL     1       1.688   6.159  20.389  0.00  0.00    +0.000 C 
ATOM      9  O   UNL     1       1.001   7.066  20.859  0.00  0.00    +0.000 OA
ATOM     10  C   UNL     1       1.915   4.904  21.181  0.00  0.00    +0.000 C 
ATOM     11  C   UNL     1       2.024   3.631  20.349  0.00  0.00    +0.000 C 
ATOM     12  C   UNL     1       2.685   2.576  21.274  0.00  0.00    +0.000 C 
ATOM     13  C   UNL     1       0.623   3.129  19.953  0.00  0.00    +0.000 C 
ATOM     14  C   UNL     1       2.843   3.882  19.090  0.00  0.00    +0.000 A 
ATOM     15  C   UNL     1       3.438   2.806  18.422  0.00  0.00    +0.000 A 
ATOM     16  C   UNL     1       4.271   2.969  17.298  0.00  0.00    +0.000 A 
ATOM     17  C   UNL     1       4.969   1.705  16.847  0.00  0.00    +0.000 C 
ATOM     18  C   UNL     1       4.429   4.254  16.707  0.00  0.00    +0.000 A 
ATOM     19  C   UNL     1       3.768   5.316  17.365  0.00  0.00    +0.000 A 
ATOM     20  C   UNL     1       3.033   5.167  18.570  0.00  0.00    +0.000 A 
BRANCH   7  22
ATOM     21  C   UNL     1       2.115   8.330  17.922  0.00  0.00    +0.000 C 
ATOM     22  C   UNL     1       2.976   7.644  18.985  0.00  0.00    +0.000 C 
ENDBRANCH   7  22
ENDBRANCH   1  18
BRANCH   3  23
ATOM     23  C   UNL     1       4.817   3.324  11.971  0.00  0.00    +0.000 C 
ATOM     24  C   UNL     1       5.132   2.243  11.251  0.00  0.00    +0.000 C 
BRANCH  24  25
ATOM     25  C   UNL     1       6.387   1.474  11.292  0.00  0.00    +0.000 C 
ATOM     26  O   UNL     1       7.500   1.927  11.076  0.00  0.00    +0.000 OA
BRANCH  25  27
ATOM     27  O   UNL     1       6.167   0.183  11.593  0.00  0.00    +0.000 OA
ATOM     28  H   UNL     1       6.440  -0.101  12.485  0.00  0.00    +0.000 HD
ENDBRANCH  25  27
ENDBRANCH  24  25
ENDBRANCH   3  23
BRANCH   6  29
ATOM     29  O   UNL     1       7.238   5.226  16.692  0.00  0.00    +0.000 OA
BRANCH  29  30
ATOM     30  C   UNL     1       6.981   6.557  17.128  0.00  0.00    +0.000 C 
ATOM     31  F   UNL     1       6.058   7.195  16.376  0.00  0.00    +0.000 F 
ATOM     32  F   UNL     1       6.513   6.511  18.396  0.00  0.00    +0.000 F 
ATOM     33  F   UNL     1       8.127   7.272  17.128  0.00  0.00    +0.000 F 
ENDBRANCH  29  30
ENDBRANCH   6  29
TORSDOF 7
ENDMDL
MODEL 2
REMARK VINA RESULT:      -7.8      3.925      6.025
REMARK  Name = 
REMARK  11 active torsions:
REMARK  status: ('A' for Active; 'I' for Inactive)
REMARK    1  A    between atoms: C_1  and  C_2
REMARK    2  A    between atoms: C_2  and  N_3
REMARK    3  A    between atoms: C_7  and  C_8
REMARK    4  A    between atoms: C_7  and  C_9
REMARK    5  A    between atoms: C_12  and  C_13
REMARK    6  A    between atoms: C_14  and  C_15
REMARK    7  A    between atoms: C_17  and  C_18
REMARK    8  A    between atoms: C_19  and  C_20
REMARK    9  A    between atoms: C_20  and  O_22
REMARK   10  A    between atoms: C_25  and  O_26
REMARK   11  A    between atoms: O_26  and  C_27
REMARK                            x       y       z     vdW  Elec       q    Type
REMARK                         _______ _______ _______ _____ _____    ______ ____
ROOT
ATOM      1  C   UNL     1       3.103   5.421  18.366  0.00  0.00    +0.000 A 
ATOM      2  C   UNL     1       4.464   5.649  18.080  0.00  0.00    +0.000 A 
ATOM      3  C   UNL     1       5.127   5.079  16.987  0.00  0.00    +0.000 A 
ATOM      4  C   UNL     1       4.484   4.069  16.289  0.00  0.00    +0.000 A 
ATOM      5  C   UNL     1       3.214   3.645  16.691  0.00  0.00    +0.000 A 
ATOM      6  C   UNL     1       2.519   4.298  17.725  0.00  0.00    +0.000 A 
ENDROOT
BRANCH   1  18
ATOM      7  N   UNL     1       1.234  10.056  18.941  0.00  0.00    +0.000 N 
ATOM      8  C   UNL     1       0.598  11.060  19.667  0.00  0.00    +0.000 C 
ATOM      9  O   UNL     1       0.186  12.108  19.168  0.00  0.00    +0.000 OA
ATOM     10  C   UNL     1       0.655  10.914  21.160  0.00  0.00    +0.000 C 
ATOM     11  C   UNL     1       0.383   9.506  21.677  0.00  0.00    +0.000 C 
ATOM     12  C   UNL     1       0.920   9.479  23.132  0.00  0.00    +0.000 C 
ATOM     13  C   UNL     1      -1.132   9.232  21.707  0.00  0.00    +0.000 C 
ATOM     14  C   UNL     1       1.065   8.469  20.795  0.00  0.00    +0.000 A 
ATOM     15  C   UNL     1       1.326   7.190  21.300  0.00  0.00    +0.000 A 
ATOM     16  C   UNL     1       2.020   6.207  20.570  0.00  0.00    +0.000 A 
ATOM     17  C   UNL     1       2.370   4.968  21.365  0.00  0.00    +0.000 C 
ATOM     18  C   UNL     1       2.369   6.439  19.210  0.00  0.00    +0.000 A 
ATOM     19  C   UNL     1       2.039   7.717  18.704  0.00  0.00    +0.000 A 
ATOM     20  C   UNL     1       1.453   8.750  19.481  0.00  0.00    +0.000 A 
BRANCH   7  22
ATOM     21  C   UNL     1       2.649  11.851  18.051  0.00  0.00    +0.000 C 
ATOM     22  C   UNL     1       1.977  10.507  17.762  0.00  0.00    +0.000 C 
ENDBRANCH   7  22
ENDBRANCH   1  18
BRANCH   3  23
ATOM     23  C   UNL     1       6.334   5.778  16.513  0.00  0.00    +0.000 C 
ATOM     24  C   UNL     1       7.491   6.095  17.104  0.00  0.00    +0.000 C 
BRANCH  24  25
ATOM     25  C   UNL     1       7.849   5.917  18.521  0.00  0.00    +0.000 C 
ATOM     26  O   UNL     1       7.708   4.888  19.161  0.00  0.00    +0.000 OA
BRANCH  25  27
ATOM     27  O   UNL     1       8.354   7.045  19.048  0.00  0.00    +0.000 OA
ATOM     28  H   UNL     1       9.305   7.026  19.268  0.00  0.00    +0.000 HD
ENDBRANCH  25  27
ENDBRANCH  24  25
ENDBRANCH   3  23
BRANCH   6  29
ATOM     29  O   UNL     1       1.264   3.907  18.112  0.00  0.00    +0.000 OA
BRANCH  29  30
ATOM     30  C   UNL     1       1.147   2.774  18.967  0.00  0.00    +0.000 C 
ATOM     31  F   UNL     1       2.336   2.329  19.427  0.00  0.00    +0.000 F 
ATOM     32  F   UNL     1       0.399   3.121  20.039  0.00  0.00    +0.000 F 
ATOM     33  F   UNL     1       0.515   1.771  18.320  0.00  0.00    +0.000 F 
ENDBRANCH  29  30
ENDBRANCH   6  29
TORSDOF 7
ENDMDL
MODEL 3
REMARK VINA RESULT:      -7.7      4.443      9.150
REMARK  Name = 
REMARK  11 active torsions:
REMARK  status: ('A' for Active; 'I' for Inactive)
REMARK    1  A    between atoms: C_1  and  C_2
REMARK    2  A    between atoms: C_2  and  N_3
REMARK    3  A    between atoms: C_7  and  C_8
REMARK    4  A    between atoms: C_7  and  C_9
REMARK    5  A    between atoms: C_12  and  C_13
REMARK    6  A    between atoms: C_14  and  C_15
REMARK    7  A    between atoms: C_17  and  C_18
REMARK    8  A    between atoms: C_19  and  C_20
REMARK    9  A    between atoms: C_20  and  O_22
REMARK   10  A    between atoms: C_25  and  O_26
REMARK   11  A    between atoms: O_26  and  C_27
REMARK                            x       y       z     vdW  Elec       q    Type
REMARK                         _______ _______ _______ _____ _____    ______ ____
ROOT
ATOM      1  C   UNL     1       0.114   9.543  18.710  0.00  0.00    +0.000 A 
ATOM      2  C   UNL     1      -0.947   9.652  17.787  0.00  0.00    +0.000 A 
ATOM      3  C   UNL     1      -1.909  10.666  17.836  0.00  0.00    +0.000 A 
ATOM      4  C   UNL     1      -1.959  11.463  18.968  0.00  0.00    +0.000 A 
ATOM      5  C   UNL     1      -1.069  11.232  20.021  0.00  0.00    +0.000 A 
ATOM      6  C   UNL     1      -0.042  10.278  19.914  0.00  0.00    +0.000 A 
ENDROOT
BRANCH   1  18
ATOM      7  N   UNL     1       2.644   5.203  18.442  0.00  0.00    +0.000 N 
ATOM      8  C   UNL     1       3.756   4.429  18.124  0.00  0.00    +0.000 C 
ATOM      9  O   UNL     1       3.754   3.198  18.118  0.00  0.00    +0.000 OA
ATOM     10  C   UNL     1       5.055   5.175  18.024  0.00  0.00    +0.000 C 
ATOM     11  C   UNL     1       4.980   6.496  17.265  0.00  0.00    +0.000 C 
ATOM     12  C   UNL     1       6.257   7.284  17.659  0.00  0.00    +0.000 C 
ATOM     13  C   UNL     1       5.007   6.242  15.747  0.00  0.00    +0.000 C 
ATOM     14  C   UNL     1       3.707   7.250  17.628  0.00  0.00    +0.000 A 
ATOM     15  C   UNL     1       3.633   8.631  17.414  0.00  0.00    +0.000 A 
ATOM     16  C   UNL     1       2.520   9.405  17.795  0.00  0.00    +0.000 A 
ATOM     17  C   UNL     1       2.720  10.899  17.658  0.00  0.00    +0.000 C 
ATOM     18  C   UNL     1       1.348   8.773  18.296  0.00  0.00    +0.000 A 
ATOM     19  C   UNL     1       1.426   7.369  18.444  0.00  0.00    +0.000 A 
ATOM     20  C   UNL     1       2.593   6.608  18.179  0.00  0.00    +0.000 A 
BRANCH   7  22
ATOM     21  C   UNL     1       2.183   4.775  20.813  0.00  0.00    +0.000 C 
ATOM     22  C   UNL     1       1.696   4.588  19.374  0.00  0.00    +0.000 C 
ENDBRANCH   7  22
ENDBRANCH   1  18
BRANCH   3  23
ATOM     23  C   UNL     1      -2.609  10.970  16.575  0.00  0.00    +0.000 C 
ATOM     24  C   UNL     1      -3.854  11.371  16.303  0.00  0.00    +0.000 C 
BRANCH  24  25
ATOM     25  C   UNL     1      -4.974  11.519  17.247  0.00  0.00    +0.000 C 
ATOM     26  O   UNL     1      -5.364  10.658  18.020  0.00  0.00    +0.000 OA
BRANCH  25  27
ATOM     27  O   UNL     1      -5.539  12.735  17.159  0.00  0.00    +0.000 OA
ATOM     28  H   UNL     1      -5.089  13.375  16.576  0.00  0.00    +0.000 HD
ENDBRANCH  25  27
ENDBRANCH  24  25
ENDBRANCH   3  23
BRANCH   6  29
ATOM     29  O   UNL     1       0.852  10.059  20.929  0.00  0.00    +0.000 OA
BRANCH  29  30
ATOM     30  C   UNL     1       0.591   8.994  21.836  0.00  0.00    +0.000 C 
ATOM     31  F   UNL     1       0.646   9.372  23.132  0.00  0.00    +0.000 F 
ATOM     32  F   UNL     1      -0.656   8.526  21.602  0.00  0.00    +0.000 F 
ATOM     33  F   UNL     1       1.465   7.985  21.628  0.00  0.00    +0.000 F 
ENDBRANCH  29  30
ENDBRANCH   6  29
TORSDOF 7
ENDMDL
MODEL 4
REMARK VINA RESULT:      -7.5      4.515      9.224
REMARK  Name = 
REMARK  11 active torsions:
REMARK  status: ('A' for Active; 'I' for Inactive)
REMARK    1  A    between atoms: C_1  and  C_2
REMARK    2  A    between atoms: C_2  and  N_3
REMARK    3  A    between atoms: C_7  and  C_8
REMARK    4  A    between atoms: C_7  and  C_9
REMARK    5  A    between atoms: C_12  and  C_13
REMARK    6  A    between atoms: C_14  and  C_15
REMARK    7  A    between atoms: C_17  and  C_18
REMARK    8  A    between atoms: C_19  and  C_20
REMARK    9  A    between atoms: C_20  and  O_22
REMARK   10  A    between atoms: C_25  and  O_26
REMARK   11  A    between atoms: O_26  and  C_27
REMARK                            x       y       z     vdW  Elec       q    Type
REMARK                         _______ _______ _______ _____ _____    ______ ____
ROOT
ATOM      1  C   UNL     1       0.176   9.634  19.119  0.00  0.00    +0.000 A 
ATOM      2  C   UNL     1      -0.899   9.738  18.212  0.00  0.00    +0.000 A 
ATOM      3  C   UNL     1      -1.818  10.794  18.224  0.00  0.00    +0.000 A 
ATOM      4  C   UNL     1      -1.811  11.651  19.313  0.00  0.00    +0.000 A 
ATOM      5  C   UNL     1      -0.909  11.440  20.359  0.00  0.00    +0.000 A 
ATOM      6  C   UNL     1       0.077  10.439  20.284  0.00  0.00    +0.000 A 
ENDROOT
BRANCH   1  18
ATOM      7  N   UNL     1       2.825   5.379  19.545  0.00  0.00    +0.000 N 
ATOM      8  C   UNL     1       3.911   4.556  19.262  0.00  0.00    +0.000 C 
ATOM      9  O   UNL     1       3.961   3.362  19.559  0.00  0.00    +0.000 OA
ATOM     10  C   UNL     1       5.148   5.261  18.784  0.00  0.00    +0.000 C 
ATOM     11  C   UNL     1       4.905   6.349  17.744  0.00  0.00    +0.000 C 
ATOM     12  C   UNL     1       6.190   7.217  17.732  0.00  0.00    +0.000 C 
ATOM     13  C   UNL     1       4.721   5.724  16.349  0.00  0.00    +0.000 C 
ATOM     14  C   UNL     1       3.668   7.163  18.100  0.00  0.00    +0.000 A 
ATOM     15  C   UNL     1       3.504   8.447  17.566  0.00  0.00    +0.000 A 
ATOM     16  C   UNL     1       2.426   9.285  17.910  0.00  0.00    +0.000 A 
ATOM     17  C   UNL     1       2.539  10.698  17.380  0.00  0.00    +0.000 C 
ATOM     18  C   UNL     1       1.368   8.792  18.724  0.00  0.00    +0.000 A 
ATOM     19  C   UNL     1       1.528   7.470  19.200  0.00  0.00    +0.000 A 
ATOM     20  C   UNL     1       2.675   6.673  18.955  0.00  0.00    +0.000 A 
BRANCH   7  22
ATOM     21  C   UNL     1       0.914   4.064  20.343  0.00  0.00    +0.000 C 
ATOM     22  C   UNL     1       2.051   5.012  20.734  0.00  0.00    +0.000 C 
ENDBRANCH   7  22
ENDBRANCH   1  18
BRANCH   3  23
ATOM     23  C   UNL     1      -2.531  11.058  16.962  0.00  0.00    +0.000 C 
ATOM     24  C   UNL     1      -3.792  11.408  16.690  0.00  0.00    +0.000 C 
BRANCH  24  25
ATOM     25  C   UNL     1      -4.914  11.521  17.636  0.00  0.00    +0.000 C 
ATOM     26  O   UNL     1      -5.375  10.604  18.297  0.00  0.00    +0.000 OA
BRANCH  25  27
ATOM     27  O   UNL     1      -5.395  12.775  17.687  0.00  0.00    +0.000 OA
ATOM     28  H   UNL     1      -5.309  13.231  18.544  0.00  0.00    +0.000 HD
ENDBRANCH  25  27
ENDBRANCH  24  25
ENDBRANCH   3  23
BRANCH   6  29
ATOM     29  O   UNL     1       0.982  10.237  21.292  0.00  0.00    +0.000 OA
BRANCH  29  30
ATOM     30  C   UNL     1       0.614   9.377  22.365  0.00  0.00    +0.000 C 
ATOM     31  F   UNL     1      -0.176   8.351  21.977  0.00  0.00    +0.000 F 
ATOM     32  F   UNL     1       1.739   8.846  22.895  0.00  0.00    +0.000 F 
ATOM     33  F   UNL     1      -0.014  10.083  23.330  0.00  0.00    +0.000 F 
ENDBRANCH  29  30
ENDBRANCH   6  29
TORSDOF 7
ENDMDL
MODEL 5
REMARK VINA RESULT:      -7.5      8.727     11.714
REMARK  Name = 
REMARK  11 active torsions:
REMARK  status: ('A' for Active; 'I' for Inactive)
REMARK    1  A    between atoms: C_1  and  C_2
REMARK    2  A    between atoms: C_2  and  N_3
REMARK    3  A    between atoms: C_7  and  C_8
REMARK    4  A    between atoms: C_7  and  C_9
REMARK    5  A    between atoms: C_12  and  C_13
REMARK    6  A    between atoms: C_14  and  C_15
REMARK    7  A    between atoms: C_17  and  C_18
REMARK    8  A    between atoms: C_19  and  C_20
REMARK    9  A    between atoms: C_20  and  O_22
REMARK   10  A    between atoms: C_25  and  O_26
REMARK   11  A    between atoms: O_26  and  C_27
REMARK                            x       y       z     vdW  Elec       q    Type
REMARK                         _______ _______ _______ _____ _____    ______ ____
ROOT
ATOM      1  C   UNL     1      -1.016  11.747  18.986  0.00  0.00    +0.000 A 
ATOM      2  C   UNL     1      -0.531  10.444  19.219  0.00  0.00    +0.000 A 
ATOM      3  C   UNL     1       0.821  10.151  19.425  0.00  0.00    +0.000 A 
ATOM      4  C   UNL     1       1.751  11.144  19.162  0.00  0.00    +0.000 A 
ATOM      5  C   UNL     1       1.323  12.391  18.696  0.00  0.00    +0.000 A 
ATOM      6  C   UNL     1      -0.045  12.703  18.594  0.00  0.00    +0.000 A 
ENDROOT
BRANCH   1  18
ATOM      7  N   UNL     1      -4.538  13.561  22.087  0.00  0.00    +0.000 N 
ATOM      8  C   UNL     1      -5.854  13.828  22.454  0.00  0.00    +0.000 C 
ATOM      9  O   UNL     1      -6.166  14.565  23.390  0.00  0.00    +0.000 OA
ATOM     10  C   UNL     1      -6.895  12.968  21.800  0.00  0.00    +0.000 C 
ATOM     11  C   UNL     1      -6.700  12.752  20.303  0.00  0.00    +0.000 C 
ATOM     12  C   UNL     1      -7.573  11.523  19.936  0.00  0.00    +0.000 C 
ATOM     13  C   UNL     1      -7.212  13.972  19.516  0.00  0.00    +0.000 C 
ATOM     14  C   UNL     1      -5.229  12.525  19.981  0.00  0.00    +0.000 A 
ATOM     15  C   UNL     1      -4.869  11.885  18.790  0.00  0.00    +0.000 A 
ATOM     16  C   UNL     1      -3.535  11.574  18.463  0.00  0.00    +0.000 A 
ATOM     17  C   UNL     1      -3.379  10.709  17.231  0.00  0.00    +0.000 C 
ATOM     18  C   UNL     1      -2.470  12.034  19.287  0.00  0.00    +0.000 A 
ATOM     19  C   UNL     1      -2.859  12.733  20.453  0.00  0.00    +0.000 A 
ATOM     20  C   UNL     1      -4.207  12.934  20.845  0.00  0.00    +0.000 A 
BRANCH   7  22
ATOM     21  C   UNL     1      -3.634  12.345  24.015  0.00  0.00    +0.000 C 
ATOM     22  C   UNL     1      -3.557  13.621  23.173  0.00  0.00    +0.000 C 
ENDBRANCH   7  22
ENDBRANCH   1  18
BRANCH   3  23
ATOM     23  C   UNL     1       1.121   8.905  20.152  0.00  0.00    +0.000 C 
ATOM     24  C   UNL     1       0.824   8.480  21.384  0.00  0.00    +0.000 C 
BRANCH  24  25
ATOM     25  C   UNL     1       0.169   9.242  22.460  0.00  0.00    +0.000 C 
ATOM     26  O   UNL     1       0.563  10.305  22.914  0.00  0.00    +0.000 OA
BRANCH  25  27
ATOM     27  O   UNL     1      -0.935   8.620  22.906  0.00  0.00    +0.000 OA
ATOM     28  H   UNL     1      -0.869   7.652  23.008  0.00  0.00    +0.000 HD
ENDBRANCH  25  27
ENDBRANCH  24  25
ENDBRANCH   3  23
BRANCH   6  29
ATOM     29  O   UNL     1      -0.476  13.930  18.162  0.00  0.00    +0.000 OA
BRANCH  29  30
ATOM     30  C   UNL     1      -0.138  15.073  18.940  0.00  0.00    +0.000 C 
ATOM     31  F   UNL     1      -1.000  16.101  18.779  0.00  0.00    +0.000 F 
ATOM     32  F   UNL     1      -0.158  14.725  20.247  0.00  0.00    +0.000 F 
ATOM     33  F   UNL     1       1.111  15.487  18.634  0.00  0.00    +0.000 F 
ENDBRANCH  29  30
ENDBRANCH   6  29
TORSDOF 7
ENDMDL
MODEL 6
REMARK VINA RESULT:      -7.2      3.964      5.832
REMARK  Name = 
REMARK  11 active torsions:
REMARK  status: ('A' for Active; 'I' for Inactive)
REMARK    1  A    between atoms: C_1  and  C_2
REMARK    2  A    between atoms: C_2  and  N_3
REMARK    3  A    between atoms: C_7  and  C_8
REMARK    4  A    between atoms: C_7  and  C_9
REMARK    5  A    between atoms: C_12  and  C_13
REMARK    6  A    between atoms: C_14  and  C_15
REMARK    7  A    between atoms: C_17  and  C_18
REMARK    8  A    between atoms: C_19  and  C_20
REMARK    9  A    between atoms: C_20  and  O_22
REMARK   10  A    between atoms: C_25  and  O_26
REMARK   11  A    between atoms: O_26  and  C_27
REMARK                            x       y       z     vdW  Elec       q    Type
REMARK                         _______ _______ _______ _____ _____    ______ ____
ROOT
ATOM      1  C   UNL     1       3.361   4.846  18.632  0.00  0.00    +0.000 A 
ATOM      2  C   UNL     1       4.769   4.869  18.701  0.00  0.00    +0.000 A 
ATOM      3  C   UNL     1       5.596   4.275  17.741  0.00  0.00    +0.000 A 
ATOM      4  C   UNL     1       5.012   3.434  16.807  0.00  0.00    +0.000 A 
ATOM      5  C   UNL     1       3.636   3.195  16.852  0.00  0.00    +0.000 A 
ATOM      6  C   UNL     1       2.804   3.879  17.756  0.00  0.00    +0.000 A 
ENDROOT
BRANCH   1  18
ATOM      7  N   UNL     1       1.434   9.488  18.840  0.00  0.00    +0.000 N 
ATOM      8  C   UNL     1       0.766  10.531  19.476  0.00  0.00    +0.000 C 
ATOM      9  O   UNL     1       0.361  11.539  18.896  0.00  0.00    +0.000 OA
ATOM     10  C   UNL     1       0.773  10.484  20.976  0.00  0.00    +0.000 C 
ATOM     11  C   UNL     1       0.496   9.109  21.576  0.00  0.00    +0.000 C 
ATOM     12  C   UNL     1       0.984   9.183  23.047  0.00  0.00    +0.000 C 
ATOM     13  C   UNL     1      -1.016   8.821  21.574  0.00  0.00    +0.000 C 
ATOM     14  C   UNL     1       1.217   8.025  20.787  0.00  0.00    +0.000 A 
ATOM     15  C   UNL     1       1.471   6.784  21.383  0.00  0.00    +0.000 A 
ATOM     16  C   UNL     1       2.198   5.763  20.743  0.00  0.00    +0.000 A 
ATOM     17  C   UNL     1       2.531   4.582  21.629  0.00  0.00    +0.000 C 
ATOM     18  C   UNL     1       2.590   5.909  19.383  0.00  0.00    +0.000 A 
ATOM     19  C   UNL     1       2.267   7.148  18.783  0.00  0.00    +0.000 A 
ATOM     20  C   UNL     1       1.646   8.223  19.470  0.00  0.00    +0.000 A 
BRANCH   7  22
ATOM     21  C   UNL     1       2.695  11.315  17.795  0.00  0.00    +0.000 C 
ATOM     22  C   UNL     1       2.213   9.869  17.659  0.00  0.00    +0.000 C 
ENDBRANCH   7  22
ENDBRANCH   1  18
BRANCH   3  23
ATOM     23  C   UNL     1       6.969   4.801  17.641  0.00  0.00    +0.000 C 
ATOM     24  C   UNL     1       7.459   6.008  17.342  0.00  0.00    +0.000 C 
BRANCH  24  25
ATOM     25  C   UNL     1       6.709   7.191  16.889  0.00  0.00    +0.000 C 
ATOM     26  O   UNL     1       5.681   7.166  16.231  0.00  0.00    +0.000 OA
BRANCH  25  27
ATOM     27  O   UNL     1       7.299   8.332  17.281  0.00  0.00    +0.000 OA
ATOM     28  H   UNL     1       6.944   9.153  16.893  0.00  0.00    +0.000 HD
ENDBRANCH  25  27
ENDBRANCH  24  25
ENDBRANCH   3  23
BRANCH   6  29
ATOM     29  O   UNL     1       1.450   3.671  17.793  0.00  0.00    +0.000 OA
BRANCH  29  30
ATOM     30  C   UNL     1       0.928   2.817  18.806  0.00  0.00    +0.000 C 
ATOM     31  F   UNL     1       0.225   3.479  19.750  0.00  0.00    +0.000 F 
ATOM     32  F   UNL     1       0.093   1.925  18.227  0.00  0.00    +0.000 F 
ATOM     33  F   UNL     1       1.932   2.133  19.395  0.00  0.00    +0.000 F 
ENDBRANCH  29  30
ENDBRANCH   6  29
TORSDOF 7
ENDMDL
MODEL 7
REMARK VINA RESULT:      -7.2      9.175     12.422
REMARK  Name = 
REMARK  11 active torsions:
REMARK  status: ('A' for Active; 'I' for Inactive)
REMARK    1  A    between atoms: C_1  and  C_2
REMARK    2  A    between atoms: C_2  and  N_3
REMARK    3  A    between atoms: C_7  and  C_8
REMARK    4  A    between atoms: C_7  and  C_9
REMARK    5  A    between atoms: C_12  and  C_13
REMARK    6  A    between atoms: C_14  and  C_15
REMARK    7  A    between atoms: C_17  and  C_18
REMARK    8  A    between atoms: C_19  and  C_20
REMARK    9  A    between atoms: C_20  and  O_22
REMARK   10  A    between atoms: C_25  and  O_26
REMARK   11  A    between atoms: O_26  and  C_27
REMARK                            x       y       z     vdW  Elec       q    Type
REMARK                         _______ _______ _______ _____ _____    ______ ____
ROOT
ATOM      1  C   UNL     1      -1.222  11.910  20.162  0.00  0.00    +0.000 A 
ATOM      2  C   UNL     1      -1.627  12.032  18.817  0.00  0.00    +0.000 A 
ATOM      3  C   UNL     1      -1.546  10.986  17.891  0.00  0.00    +0.000 A 
ATOM      4  C   UNL     1      -0.826   9.856  18.245  0.00  0.00    +0.000 A 
ATOM      5  C   UNL     1      -0.201   9.792  19.494  0.00  0.00    +0.000 A 
ATOM      6  C   UNL     1      -0.379  10.806  20.452  0.00  0.00    +0.000 A 
ENDROOT
BRANCH   1  18
ATOM      7  N   UNL     1      -5.173  13.598  22.778  0.00  0.00    +0.000 N 
ATOM      8  C   UNL     1      -5.794  14.465  23.673  0.00  0.00    +0.000 C 
ATOM      9  O   UNL     1      -6.915  14.271  24.146  0.00  0.00    +0.000 OA
ATOM     10  C   UNL     1      -5.126  15.797  23.852  0.00  0.00    +0.000 C 
ATOM     11  C   UNL     1      -3.609  15.739  23.995  0.00  0.00    +0.000 C 
ATOM     12  C   UNL     1      -3.102  17.179  23.718  0.00  0.00    +0.000 C 
ATOM     13  C   UNL     1      -3.222  15.350  25.433  0.00  0.00    +0.000 C 
ATOM     14  C   UNL     1      -3.017  14.727  23.022  0.00  0.00    +0.000 A 
ATOM     15  C   UNL     1      -1.667  14.816  22.663  0.00  0.00    +0.000 A 
ATOM     16  C   UNL     1      -1.072  13.964  21.713  0.00  0.00    +0.000 A 
ATOM     17  C   UNL     1       0.339  14.351  21.324  0.00  0.00    +0.000 C 
ATOM     18  C   UNL     1      -1.805  12.870  21.175  0.00  0.00    +0.000 A 
ATOM     19  C   UNL     1      -3.149  12.766  21.601  0.00  0.00    +0.000 A 
ATOM     20  C   UNL     1      -3.782  13.700  22.460  0.00  0.00    +0.000 A 
BRANCH   7  22
ATOM     21  C   UNL     1      -6.656  13.732  20.829  0.00  0.00    +0.000 C 
ATOM     22  C   UNL     1      -6.076  12.828  21.919  0.00  0.00    +0.000 C 
ENDBRANCH   7  22
ENDBRANCH   1  18
BRANCH   3  23
ATOM     23  C   UNL     1      -2.449  11.065  16.728  0.00  0.00    +0.000 C 
ATOM     24  C   UNL     1      -3.763  11.280  16.614  0.00  0.00    +0.000 C 
BRANCH  24  25
ATOM     25  C   UNL     1      -4.750  11.391  17.701  0.00  0.00    +0.000 C 
ATOM     26  O   UNL     1      -5.234  10.452  18.313  0.00  0.00    +0.000 OA
BRANCH  25  27
ATOM     27  O   UNL     1      -5.074  12.671  17.947  0.00  0.00    +0.000 OA
ATOM     28  H   UNL     1      -5.787  12.814  18.597  0.00  0.00    +0.000 HD
ENDBRANCH  25  27
ENDBRANCH  24  25
ENDBRANCH   3  23
BRANCH   6  29
ATOM     29  O   UNL     1       0.208  10.744  21.688  0.00  0.00    +0.000 OA
BRANCH  29  30
ATOM     30  C   UNL     1      -0.362   9.875  22.660  0.00  0.00    +0.000 C 
ATOM     31  F   UNL     1      -0.851   8.732  22.131  0.00  0.00    +0.000 F 
ATOM     32  F   UNL     1       0.599   9.533  23.549  0.00  0.00    +0.000 F 
ATOM     33  F   UNL     1      -1.346  10.513  23.330  0.00  0.00    +0.000 F 
ENDBRANCH  29  30
ENDBRANCH   6  29
TORSDOF 7
ENDMDL
MODEL 8
REMARK VINA RESULT:      -7.1      1.308      1.524
REMARK  Name = 
REMARK  11 active torsions:
REMARK  status: ('A' for Active; 'I' for Inactive)
REMARK    1  A    between atoms: C_1  and  C_2
REMARK    2  A    between atoms: C_2  and  N_3
REMARK    3  A    between atoms: C_7  and  C_8
REMARK    4  A    between atoms: C_7  and  C_9
REMARK    5  A    between atoms: C_12  and  C_13
REMARK    6  A    between atoms: C_14  and  C_15
REMARK    7  A    between atoms: C_17  and  C_18
REMARK    8  A    between atoms: C_19  and  C_20
REMARK    9  A    between atoms: C_20  and  O_22
REMARK   10  A    between atoms: C_25  and  O_26
REMARK   11  A    between atoms: O_26  and  C_27
REMARK                            x       y       z     vdW  Elec       q    Type
REMARK                         _______ _______ _______ _____ _____    ______ ____
ROOT
ATOM      1  C   UNL     1       5.325   4.751  15.453  0.00  0.00    +0.000 A 
ATOM      2  C   UNL     1       5.098   4.029  14.263  0.00  0.00    +0.000 A 
ATOM      3  C   UNL     1       6.069   3.859  13.269  0.00  0.00    +0.000 A 
ATOM      4  C   UNL     1       7.224   4.620  13.349  0.00  0.00    +0.000 A 
ATOM      5  C   UNL     1       7.385   5.532  14.396  0.00  0.00    +0.000 A 
ATOM      6  C   UNL     1       6.449   5.617  15.442  0.00  0.00    +0.000 A 
ENDROOT
BRANCH   1  18
ATOM      7  N   UNL     1       2.400   6.378  19.208  0.00  0.00    +0.000 N 
ATOM      8  C   UNL     1       1.607   6.193  20.338  0.00  0.00    +0.000 C 
ATOM      9  O   UNL     1       0.889   7.070  20.820  0.00  0.00    +0.000 OA
ATOM     10  C   UNL     1       1.856   4.925  21.102  0.00  0.00    +0.000 C 
ATOM     11  C   UNL     1       2.011   3.677  20.240  0.00  0.00    +0.000 C 
ATOM     12  C   UNL     1       2.687   2.617  21.148  0.00  0.00    +0.000 C 
ATOM     13  C   UNL     1       0.630   3.149  19.813  0.00  0.00    +0.000 C 
ATOM     14  C   UNL     1       2.840   3.981  19.000  0.00  0.00    +0.000 A 
ATOM     15  C   UNL     1       3.472   2.938  18.313  0.00  0.00    +0.000 A 
ATOM     16  C   UNL     1       4.315   3.152  17.206  0.00  0.00    +0.000 A 
ATOM     17  C   UNL     1       5.053   1.918  16.734  0.00  0.00    +0.000 C 
ATOM     18  C   UNL     1       4.447   4.455  16.648  0.00  0.00    +0.000 A 
ATOM     19  C   UNL     1       3.749   5.482  17.324  0.00  0.00    +0.000 A 
ATOM     20  C   UNL     1       3.003   5.283  18.514  0.00  0.00    +0.000 A 
BRANCH   7  22
ATOM     21  C   UNL     1       2.016   8.432  17.924  0.00  0.00    +0.000 C 
ATOM     22  C   UNL     1       2.874   7.747  18.990  0.00  0.00    +0.000 C 
ENDBRANCH   7  22
ENDBRANCH   1  18
BRANCH   3  23
ATOM     23  C   UNL     1       5.898   2.700  12.376  0.00  0.00    +0.000 C 
ATOM     24  C   UNL     1       5.031   2.431  11.394  0.00  0.00    +0.000 C 
BRANCH  24  25
ATOM     25  C   UNL     1       3.862   3.229  10.989  0.00  0.00    +0.000 C 
ATOM     26  O   UNL     1       3.892   4.400  10.644  0.00  0.00    +0.000 OA
BRANCH  25  27
ATOM     27  O   UNL     1       2.728   2.512  11.052  0.00  0.00    +0.000 OA
ATOM     28  H   UNL     1       2.602   1.981  11.860  0.00  0.00    +0.000 HD
ENDBRANCH  25  27
ENDBRANCH  24  25
ENDBRANCH   3  23
BRANCH   6  29
ATOM     29  O   UNL     1       6.608   6.489  16.487  0.00  0.00    +0.000 OA
BRANCH  29  30
ATOM     30  C   UNL     1       7.318   6.039  17.636  0.00  0.00    +0.000 C 
ATOM     31  F   UNL     1       7.951   4.861  17.443  0.00  0.00    +0.000 F 
ATOM     32  F   UNL     1       8.257   6.960  17.949  0.00  0.00    +0.000 F 
ATOM     33  F   UNL     1       6.475   5.926  18.685  0.00  0.00    +0.000 F 
ENDBRANCH  29  30
ENDBRANCH   6  29
TORSDOF 7
ENDMDL
MODEL 9
REMARK VINA RESULT:      -7.0      8.728     13.026
REMARK  Name = 
REMARK  11 active torsions:
REMARK  status: ('A' for Active; 'I' for Inactive)
REMARK    1  A    between atoms: C_1  and  C_2
REMARK    2  A    between atoms: C_2  and  N_3
REMARK    3  A    between atoms: C_7  and  C_8
REMARK    4  A    between atoms: C_7  and  C_9
REMARK    5  A    between atoms: C_12  and  C_13
REMARK    6  A    between atoms: C_14  and  C_15
REMARK    7  A    between atoms: C_17  and  C_18
REMARK    8  A    between atoms: C_19  and  C_20
REMARK    9  A    between atoms: C_20  and  O_22
REMARK   10  A    between atoms: C_25  and  O_26
REMARK   11  A    between atoms: O_26  and  C_27
REMARK                            x       y       z     vdW  Elec       q    Type
REMARK                         _______ _______ _______ _____ _____    ______ ____
ROOT
ATOM      1  C   UNL     1      -0.155  12.620  21.374  0.00  0.00    +0.000 A 
ATOM      2  C   UNL     1      -1.330  13.288  21.773  0.00  0.00    +0.000 A 
ATOM      3  C   UNL     1      -2.134  12.863  22.837  0.00  0.00    +0.000 A 
ATOM      4  C   UNL     1      -1.895  11.608  23.373  0.00  0.00    +0.000 A 
ATOM      5  C   UNL     1      -0.880  10.806  22.842  0.00  0.00    +0.000 A 
ATOM      6  C   UNL     1      -0.015  11.289  21.844  0.00  0.00    +0.000 A 
ENDROOT
BRANCH   1  18
ATOM      7  N   UNL     1       3.933  15.551  21.331  0.00  0.00    +0.000 N 
ATOM      8  C   UNL     1       4.907  16.320  20.699  0.00  0.00    +0.000 C 
ATOM      9  O   UNL     1       5.924  16.731  21.258  0.00  0.00    +0.000 OA
ATOM     10  C   UNL     1       4.536  16.843  19.341  0.00  0.00    +0.000 C 
ATOM     11  C   UNL     1       3.853  15.831  18.428  0.00  0.00    +0.000 C 
ATOM     12  C   UNL     1       3.174  16.662  17.308  0.00  0.00    +0.000 C 
ATOM     13  C   UNL     1       4.898  14.902  17.785  0.00  0.00    +0.000 C 
ATOM     14  C   UNL     1       2.849  14.995  19.210  0.00  0.00    +0.000 A 
ATOM     15  C   UNL     1       1.817  14.334  18.533  0.00  0.00    +0.000 A 
ATOM     16  C   UNL     1       0.810  13.608  19.196  0.00  0.00    +0.000 A 
ATOM     17  C   UNL     1      -0.316  13.139  18.300  0.00  0.00    +0.000 C 
ATOM     18  C   UNL     1       0.886  13.401  20.602  0.00  0.00    +0.000 A 
ATOM     19  C   UNL     1       1.972  14.028  21.255  0.00  0.00    +0.000 A 
ATOM     20  C   UNL     1       2.913  14.864  20.601  0.00  0.00    +0.000 A 
BRANCH   7  22
ATOM     21  C   UNL     1       2.954  17.034  23.022  0.00  0.00    +0.000 C 
ATOM     22  C   UNL     1       3.791  15.778  22.771  0.00  0.00    +0.000 C 
ENDBRANCH   7  22
ENDBRANCH   1  18
BRANCH   3  23
ATOM     23  C   UNL     1      -2.988  13.886  23.466  0.00  0.00    +0.000 C 
ATOM     24  C   UNL     1      -4.203  13.838  24.021  0.00  0.00    +0.000 C 
BRANCH  24  25
ATOM     25  C   UNL     1      -5.127  12.692  24.052  0.00  0.00    +0.000 C 
ATOM     26  O   UNL     1      -5.944  12.420  23.187  0.00  0.00    +0.000 OA
BRANCH  25  27
ATOM     27  O   UNL     1      -4.975  11.965  25.171  0.00  0.00    +0.000 OA
ATOM     28  H   UNL     1      -4.162  11.429  25.226  0.00  0.00    +0.000 HD
ENDBRANCH  25  27
ENDBRANCH  24  25
ENDBRANCH   3  23
BRANCH   6  29
ATOM     29  O   UNL     1       0.999  10.522  21.332  0.00  0.00    +0.000 OA
BRANCH  29  30
ATOM     30  C   UNL     1       0.757   9.805  20.126  0.00  0.00    +0.000 C 
ATOM     31  F   UNL     1       1.452  10.286  19.073  0.00  0.00    +0.000 F 
ATOM     32  F   UNL     1       1.132   8.519  20.309  0.00  0.00    +0.000 F 
ATOM     33  F   UNL     1      -0.562   9.822  19.836  0.00  0.00    +0.000 F 
ENDBRANCH  29  30
ENDBRANCH   6  29
TORSDOF 7
ENDMDL
