MODEL 1
REMARK VINA RESULT:      -8.7      0.000      0.000
REMARK  Name = 
REMARK  6 active torsions:
REMARK  status: ('A' for Active; 'I' for Inactive)
REMARK    1  A    between atoms: C_2  and  C_3
REMARK    2  A    between atoms: C_7  and  C_8
REMARK    3  A    between atoms: N_10  and  C_11
REMARK    4  A    between atoms: C_15  and  C_16
REMARK    5  A    between atoms: C_19  and  C_20
REMARK    6  A    between atoms: N_22  and  C_23
REMARK                            x       y       z     vdW  Elec       q    Type
REMARK                         _______ _______ _______ _____ _____    ______ ____
ROOT
ATOM      1  C   UNL     1       4.287   4.602  17.611  0.00  0.00    +0.000 A 
ATOM      2  C   UNL     1       4.371   3.612  18.589  0.00  0.00    +0.000 A 
ATOM      3  C   UNL     1       3.796   3.794  19.841  0.00  0.00    +0.000 A 
ATOM      4  C   UNL     1       3.126   4.977  20.130  0.00  0.00    +0.000 A 
ATOM      5  C   UNL     1       2.999   6.000  19.175  0.00  0.00    +0.000 A 
ATOM      6  C   UNL     1       3.622   5.799  17.919  0.00  0.00    +0.000 A 
ENDROOT
BRANCH   5   7
ATOM      7  C   UNL     1       2.205   7.215  19.485  0.00  0.00    +0.000 A 
ATOM      8  C   UNL     1       1.590   7.392  20.733  0.00  0.00    +0.000 A 
ATOM      9  C   UNL     1       0.876   8.557  21.023  0.00  0.00    +0.000 A 
ATOM     10  C   UNL     1       0.739   9.571  20.069  0.00  0.00    +0.000 A 
ATOM     11  C   UNL     1       1.326   9.419  18.815  0.00  0.00    +0.000 A 
ATOM     12  C   UNL     1       2.056   8.254  18.537  0.00  0.00    +0.000 A 
BRANCH  10  13
ATOM     13  C   UNL     1       0.048  10.811  20.486  0.00  0.00    +0.000 C 
ATOM     14  O   UNL     1      -0.085  11.684  19.629  0.00  0.00    +0.000 OA
ATOM     15  N   UNL     1      -0.330  10.908  21.815  0.00  0.00    +0.000 N 
ATOM     16  H   UNL     1       0.017  10.206  22.456  0.00  0.00    +0.000 HD
BRANCH  15  17
ATOM     17  C   UNL     1      -0.965  12.039  22.382  0.00  0.00    +0.000 A 
ATOM     18  C   UNL     1      -2.206  11.987  23.015  0.00  0.00    +0.000 A 
ATOM     19  C   UNL     1      -2.801  13.153  23.492  0.00  0.00    +0.000 A 
ATOM     20  C   UNL     1      -2.122  14.347  23.337  0.00  0.00    +0.000 A 
ATOM     21  N   UNL     1      -0.901  14.443  22.769  0.00  0.00    +0.000 NA
ATOM     22  C   UNL     1      -0.352  13.289  22.310  0.00  0.00    +0.000 A 
ENDBRANCH  15  17
ENDBRANCH  10  13
ENDBRANCH   5   7
BRANCH   1  25
ATOM     23  C   UNL     1       6.108   4.853  15.948  0.00  0.00    +0.000 C 
ATOM     24  O   UNL     1       6.935   5.382  16.684  0.00  0.00    +0.000 OA
ATOM     25  N   UNL     1       4.839   4.431  16.314  0.00  0.00    +0.000 N 
ATOM     26  H   UNL     1       4.337   3.819  15.683  0.00  0.00    +0.000 HD
BRANCH  23  31
ATOM     27  C   UNL     1       6.439   3.394  12.453  0.00  0.00    +0.000 A 
ATOM     28  C   UNL     1       7.356   4.296  11.896  0.00  0.00    +0.000 A 
ATOM     29  C   UNL     1       7.868   5.339  12.665  0.00  0.00    +0.000 A 
ATOM     30  C   UNL     1       7.462   5.478  13.989  0.00  0.00    +0.000 A 
ATOM     31  C   UNL     1       6.548   4.577  14.559  0.00  0.00    +0.000 A 
ATOM     32  C   UNL     1       6.029   3.532  13.788  0.00  0.00    +0.000 A 
BRANCH  27  34
ATOM     33  N   UNL     1       5.487   1.479  10.984  0.00  0.00    +0.000 NA
ATOM     34  C   UNL     1       5.910   2.336  11.644  0.00  0.00    +0.000 C 
ENDBRANCH  27  34
ENDBRANCH  23  31
ENDBRANCH   1  25
TORSDOF 6
ENDMDL
MODEL 2
REMARK VINA RESULT:      -8.5      0.657      1.253
REMARK  Name = 
REMARK  6 active torsions:
REMARK  status: ('A' for Active; 'I' for Inactive)
REMARK    1  A    between atoms: C_2  and  C_3
REMARK    2  A    between atoms: C_7  and  C_8
REMARK    3  A    between atoms: N_10  and  C_11
REMARK    4  A    between atoms: C_15  and  C_16
REMARK    5  A    between atoms: C_19  and  C_20
REMARK    6  A    between atoms: N_22  and  C_23
REMARK                            x       y       z     vdW  Elec       q    Type
REMARK                         _______ _______ _______ _____ _____    ______ ____
ROOT
ATOM      1  C   UNL     1       4.150   4.455  17.555  0.00  0.00    +0.000 A 
ATOM      2  C   UNL     1       4.076   3.442  18.510  0.00  0.00    +0.000 A 
ATOM      3  C   UNL     1       3.454   3.657  19.733  0.00  0.00    +0.000 A 
ATOM      4  C   UNL     1       2.895   4.898  20.017  0.00  0.00    +0.000 A 
ATOM      5  C   UNL     1       2.928   5.948  19.084  0.00  0.00    +0.000 A 
ATOM      6  C   UNL     1       3.597   5.709  17.858  0.00  0.00    +0.000 A 
ENDROOT
BRANCH   5   7
ATOM      7  C   UNL     1       2.248   7.233  19.383  0.00  0.00    +0.000 A 
ATOM      8  C   UNL     1       2.102   8.230  18.409  0.00  0.00    +0.000 A 
ATOM      9  C   UNL     1       1.427   9.419  18.694  0.00  0.00    +0.000 A 
ATOM     10  C   UNL     1       0.895   9.655  19.966  0.00  0.00    +0.000 A 
ATOM     11  C   UNL     1       1.035   8.689  20.960  0.00  0.00    +0.000 A 
ATOM     12  C   UNL     1       1.699   7.490  20.661  0.00  0.00    +0.000 A 
BRANCH  10  13
ATOM     13  C   UNL     1       0.114  10.897  20.160  0.00  0.00    +0.000 C 
ATOM     14  O   UNL     1      -0.112  11.570  19.155  0.00  0.00    +0.000 OA
ATOM     15  N   UNL     1      -0.238  11.227  21.458  0.00  0.00    +0.000 N 
ATOM     16  H   UNL     1       0.181  10.695  22.210  0.00  0.00    +0.000 HD
BRANCH  15  17
ATOM     17  C   UNL     1      -0.950  12.396  21.818  0.00  0.00    +0.000 A 
ATOM     18  C   UNL     1      -0.331  13.591  22.184  0.00  0.00    +0.000 A 
ATOM     19  C   UNL     1      -1.095  14.683  22.591  0.00  0.00    +0.000 A 
ATOM     20  C   UNL     1      -2.471  14.552  22.601  0.00  0.00    +0.000 A 
ATOM     21  N   UNL     1      -3.118  13.431  22.217  0.00  0.00    +0.000 NA
ATOM     22  C   UNL     1      -2.343  12.385  21.831  0.00  0.00    +0.000 A 
ENDBRANCH  15  17
ENDBRANCH  10  13
ENDBRANCH   5   7
BRANCH   1  25
ATOM     23  C   UNL     1       5.856   4.959  15.828  0.00  0.00    +0.000 C 
ATOM     24  O   UNL     1       6.483   5.808  16.455  0.00  0.00    +0.000 OA
ATOM     25  N   UNL     1       4.753   4.254  16.284  0.00  0.00    +0.000 N 
ATOM     26  H   UNL     1       4.458   3.436  15.766  0.00  0.00    +0.000 HD
BRANCH  23  31
ATOM     27  C   UNL     1       6.388   3.343  12.429  0.00  0.00    +0.000 A 
ATOM     28  C   UNL     1       7.366   4.198  11.901  0.00  0.00    +0.000 A 
ATOM     29  C   UNL     1       7.851   5.261  12.659  0.00  0.00    +0.000 A 
ATOM     30  C   UNL     1       7.358   5.467  13.945  0.00  0.00    +0.000 A 
ATOM     31  C   UNL     1       6.383   4.613  14.486  0.00  0.00    +0.000 A 
ATOM     32  C   UNL     1       5.891   3.548  13.725  0.00  0.00    +0.000 A 
BRANCH  27  34
ATOM     33  N   UNL     1       5.486   1.393  10.975  0.00  0.00    +0.000 NA
ATOM     34  C   UNL     1       5.889   2.264  11.629  0.00  0.00    +0.000 C 
ENDBRANCH  27  34
ENDBRANCH  23  31
ENDBRANCH   1  25
TORSDOF 6
ENDMDL
MODEL 3
REMARK VINA RESULT:      -8.4      1.098      1.549
REMARK  Name = 
REMARK  6 active torsions:
REMARK  status: ('A' for Active; 'I' for Inactive)
REMARK    1  A    between atoms: C_2  and  C_3
REMARK    2  A    between atoms: C_7  and  C_8
REMARK    3  A    between atoms: N_10  and  C_11
REMARK    4  A    between atoms: C_15  and  C_16
REMARK    5  A    between atoms: C_19  and  C_20
REMARK    6  A    between atoms: N_22  and  C_23
REMARK                            x       y       z     vdW  Elec       q    Type
REMARK                         _______ _______ _______ _____ _____    ______ ____
ROOT
ATOM      1  C   UNL     1       3.530   4.927  18.072  0.00  0.00    +0.000 A 
ATOM      2  C   UNL     1       3.412   3.864  18.965  0.00  0.00    +0.000 A 
ATOM      3  C   UNL     1       2.784   4.028  20.194  0.00  0.00    +0.000 A 
ATOM      4  C   UNL     1       2.264   5.269  20.545  0.00  0.00    +0.000 A 
ATOM      5  C   UNL     1       2.343   6.370  19.675  0.00  0.00    +0.000 A 
ATOM      6  C   UNL     1       3.016   6.180  18.443  0.00  0.00    +0.000 A 
ENDROOT
BRANCH   5   7
ATOM      7  C   UNL     1       1.704   7.658  20.042  0.00  0.00    +0.000 A 
ATOM      8  C   UNL     1       1.588   8.709  19.123  0.00  0.00    +0.000 A 
ATOM      9  C   UNL     1       0.951   9.902  19.471  0.00  0.00    +0.000 A 
ATOM     10  C   UNL     1       0.428  10.087  20.755  0.00  0.00    +0.000 A 
ATOM     11  C   UNL     1       0.539   9.067  21.697  0.00  0.00    +0.000 A 
ATOM     12  C   UNL     1       1.164   7.865  21.334  0.00  0.00    +0.000 A 
BRANCH  10  13
ATOM     13  C   UNL     1      -0.313  11.341  21.016  0.00  0.00    +0.000 C 
ATOM     14  O   UNL     1      -0.183  12.242  20.188  0.00  0.00    +0.000 OA
ATOM     15  N   UNL     1      -1.036  11.415  22.195  0.00  0.00    +0.000 N 
ATOM     16  H   UNL     1      -0.898  10.683  22.879  0.00  0.00    +0.000 HD
BRANCH  15  17
ATOM     17  C   UNL     1      -1.767  12.554  22.611  0.00  0.00    +0.000 A 
ATOM     18  C   UNL     1      -1.179  13.675  23.193  0.00  0.00    +0.000 A 
ATOM     19  C   UNL     1      -1.969  14.733  23.640  0.00  0.00    +0.000 A 
ATOM     20  C   UNL     1      -3.338  14.645  23.471  0.00  0.00    +0.000 A 
ATOM     21  N   UNL     1      -3.952  13.599  22.876  0.00  0.00    +0.000 NA
ATOM     22  C   UNL     1      -3.152  12.584  22.458  0.00  0.00    +0.000 A 
ENDBRANCH  15  17
ENDBRANCH  10  13
ENDBRANCH   5   7
BRANCH   1  25
ATOM     23  C   UNL     1       5.507   4.669  16.599  0.00  0.00    +0.000 C 
ATOM     24  O   UNL     1       6.366   4.640  17.475  0.00  0.00    +0.000 OA
ATOM     25  N   UNL     1       4.139   4.780  16.798  0.00  0.00    +0.000 N 
ATOM     26  H   UNL     1       3.524   4.575  16.020  0.00  0.00    +0.000 HD
BRANCH  23  31
ATOM     27  C   UNL     1       5.724   3.809  12.902  0.00  0.00    +0.000 A 
ATOM     28  C   UNL     1       6.955   4.400  12.585  0.00  0.00    +0.000 A 
ATOM     29  C   UNL     1       7.701   5.040  13.572  0.00  0.00    +0.000 A 
ATOM     30  C   UNL     1       7.215   5.088  14.875  0.00  0.00    +0.000 A 
ATOM     31  C   UNL     1       5.985   4.494  15.206  0.00  0.00    +0.000 A 
ATOM     32  C   UNL     1       5.233   3.855  14.216  0.00  0.00    +0.000 A 
BRANCH  27  34
ATOM     33  N   UNL     1       4.341   2.655  11.035  0.00  0.00    +0.000 NA
ATOM     34  C   UNL     1       4.962   3.168  11.872  0.00  0.00    +0.000 C 
ENDBRANCH  27  34
ENDBRANCH  23  31
ENDBRANCH   1  25
TORSDOF 6
ENDMDL
MODEL 4
REMARK VINA RESULT:      -8.3      1.006      1.006
REMARK  Name = 
REMARK  6 active torsions:
REMARK  status: ('A' for Active; 'I' for Inactive)
REMARK    1  A    between atoms: C_2  and  C_3
REMARK    2  A    between atoms: C_7  and  C_8
REMARK    3  A    between atoms: N_10  and  C_11
REMARK    4  A    between atoms: C_15  and  C_16
REMARK    5  A    between atoms: C_19  and  C_20
REMARK    6  A    between atoms: N_22  and  C_23
REMARK                            x       y       z     vdW  Elec       q    Type
REMARK                         _______ _______ _______ _____ _____    ______ ____
ROOT
ATOM      1  C   UNL     1       3.762   4.718  17.912  0.00  0.00    +0.000 A 
ATOM      2  C   UNL     1       3.637   3.650  18.799  0.00  0.00    +0.000 A 
ATOM      3  C   UNL     1       3.005   3.809  20.026  0.00  0.00    +0.000 A 
ATOM      4  C   UNL     1       2.486   5.049  20.381  0.00  0.00    +0.000 A 
ATOM      5  C   UNL     1       2.571   6.154  19.518  0.00  0.00    +0.000 A 
ATOM      6  C   UNL     1       3.249   5.970  18.288  0.00  0.00    +0.000 A 
ENDROOT
BRANCH   5   7
ATOM      7  C   UNL     1       1.932   7.441  19.890  0.00  0.00    +0.000 A 
ATOM      8  C   UNL     1       1.431   7.667  21.180  0.00  0.00    +0.000 A 
ATOM      9  C   UNL     1       0.866   8.896  21.526  0.00  0.00    +0.000 A 
ATOM     10  C   UNL     1       0.767   9.930  20.589  0.00  0.00    +0.000 A 
ATOM     11  C   UNL     1       1.243   9.733  19.295  0.00  0.00    +0.000 A 
ATOM     12  C   UNL     1       1.825   8.501  18.960  0.00  0.00    +0.000 A 
BRANCH  10  13
ATOM     13  C   UNL     1       0.242  11.230  21.060  0.00  0.00    +0.000 C 
ATOM     14  O   UNL     1       1.072  12.103  21.314  0.00  0.00    +0.000 OA
ATOM     15  N   UNL     1      -1.128  11.332  21.236  0.00  0.00    +0.000 N 
ATOM     16  H   UNL     1      -1.675  10.483  21.184  0.00  0.00    +0.000 HD
BRANCH  15  17
ATOM     17  C   UNL     1      -1.786  12.491  21.715  0.00  0.00    +0.000 A 
ATOM     18  C   UNL     1      -2.057  12.720  23.064  0.00  0.00    +0.000 A 
ATOM     19  C   UNL     1      -2.767  13.852  23.456  0.00  0.00    +0.000 A 
ATOM     20  C   UNL     1      -3.174  14.742  22.480  0.00  0.00    +0.000 A 
ATOM     21  N   UNL     1      -2.901  14.586  21.167  0.00  0.00    +0.000 NA
ATOM     22  C   UNL     1      -2.211  13.470  20.818  0.00  0.00    +0.000 A 
ENDBRANCH  15  17
ENDBRANCH  10  13
ENDBRANCH   5   7
BRANCH   1  25
ATOM     23  C   UNL     1       5.735   4.726  16.412  0.00  0.00    +0.000 C 
ATOM     24  O   UNL     1       6.591   4.954  17.263  0.00  0.00    +0.000 OA
ATOM     25  N   UNL     1       4.376   4.577  16.639  0.00  0.00    +0.000 N 
ATOM     26  H   UNL     1       3.807   4.180  15.901  0.00  0.00    +0.000 HD
BRANCH  23  31
ATOM     27  C   UNL     1       6.056   3.633  12.785  0.00  0.00    +0.000 A 
ATOM     28  C   UNL     1       7.182   4.375  12.404  0.00  0.00    +0.000 A 
ATOM     29  C   UNL     1       7.830   5.192  13.328  0.00  0.00    +0.000 A 
ATOM     30  C   UNL     1       7.350   5.265  14.633  0.00  0.00    +0.000 A 
ATOM     31  C   UNL     1       6.225   4.521  15.028  0.00  0.00    +0.000 A 
ATOM     32  C   UNL     1       5.571   3.704  14.100  0.00  0.00    +0.000 A 
BRANCH  27  34
ATOM     33  N   UNL     1       4.853   2.139  11.039  0.00  0.00    +0.000 NA
ATOM     34  C   UNL     1       5.392   2.811  11.818  0.00  0.00    +0.000 C 
ENDBRANCH  27  34
ENDBRANCH  23  31
ENDBRANCH   1  25
TORSDOF 6
ENDMDL
MODEL 5
REMARK VINA RESULT:      -8.3      1.554      1.928
REMARK  Name = 
REMARK  6 active torsions:
REMARK  status: ('A' for Active; 'I' for Inactive)
REMARK    1  A    between atoms: C_2  and  C_3
REMARK    2  A    between atoms: C_7  and  C_8
REMARK    3  A    between atoms: N_10  and  C_11
REMARK    4  A    between atoms: C_15  and  C_16
REMARK    5  A    between atoms: C_19  and  C_20
REMARK    6  A    between atoms: N_22  and  C_23
REMARK                            x       y       z     vdW  Elec       q    Type
REMARK                         _______ _______ _______ _____ _____    ______ ____
ROOT
ATOM      1  C   UNL     1       4.149   5.098  17.452  0.00  0.00    +0.000 A 
ATOM      2  C   UNL     1       4.156   4.146  18.470  0.00  0.00    +0.000 A 
ATOM      3  C   UNL     1       3.557   4.406  19.697  0.00  0.00    +0.000 A 
ATOM      4  C   UNL     1       2.938   5.631  19.919  0.00  0.00    +0.000 A 
ATOM      5  C   UNL     1       2.889   6.619  18.921  0.00  0.00    +0.000 A 
ATOM      6  C   UNL     1       3.536   6.337  17.693  0.00  0.00    +0.000 A 
ENDROOT
BRANCH   5   7
ATOM      7  C   UNL     1       2.148   7.883  19.159  0.00  0.00    +0.000 A 
ATOM      8  C   UNL     1       1.965   8.830  18.142  0.00  0.00    +0.000 A 
ATOM      9  C   UNL     1       1.234   9.998  18.370  0.00  0.00    +0.000 A 
ATOM     10  C   UNL     1       0.680  10.263  19.628  0.00  0.00    +0.000 A 
ATOM     11  C   UNL     1       0.856   9.348  20.663  0.00  0.00    +0.000 A 
ATOM     12  C   UNL     1       1.576   8.169  20.421  0.00  0.00    +0.000 A 
BRANCH  10  13
ATOM     13  C   UNL     1      -0.158  11.475  19.762  0.00  0.00    +0.000 C 
ATOM     14  O   UNL     1      -1.374  11.319  19.662  0.00  0.00    +0.000 OA
ATOM     15  N   UNL     1       0.499  12.683  19.924  0.00  0.00    +0.000 N 
ATOM     16  H   UNL     1       1.502  12.696  19.789  0.00  0.00    +0.000 HD
BRANCH  15  17
ATOM     17  C   UNL     1      -0.152  13.936  20.030  0.00  0.00    +0.000 A 
ATOM     18  C   UNL     1      -0.909  14.318  21.136  0.00  0.00    +0.000 A 
ATOM     19  C   UNL     1      -1.577  15.541  21.143  0.00  0.00    +0.000 A 
ATOM     20  C   UNL     1      -1.450  16.363  20.040  0.00  0.00    +0.000 A 
ATOM     21  N   UNL     1      -0.696  16.057  18.962  0.00  0.00    +0.000 NA
ATOM     22  C   UNL     1      -0.063  14.855  18.986  0.00  0.00    +0.000 A 
ENDBRANCH  15  17
ENDBRANCH  10  13
ENDBRANCH   5   7
BRANCH   1  25
ATOM     23  C   UNL     1       6.084   4.938  15.912  0.00  0.00    +0.000 C 
ATOM     24  O   UNL     1       6.967   5.199  16.724  0.00  0.00    +0.000 OA
ATOM     25  N   UNL     1       4.727   4.847  16.179  0.00  0.00    +0.000 N 
ATOM     26  H   UNL     1       4.129   4.417  15.485  0.00  0.00    +0.000 HD
BRANCH  23  31
ATOM     27  C   UNL     1       6.425   3.389  12.457  0.00  0.00    +0.000 A 
ATOM     28  C   UNL     1       7.366   4.259  11.889  0.00  0.00    +0.000 A 
ATOM     29  C   UNL     1       7.890   5.310  12.638  0.00  0.00    +0.000 A 
ATOM     30  C   UNL     1       7.472   5.489  13.954  0.00  0.00    +0.000 A 
ATOM     31  C   UNL     1       6.534   4.620  14.535  0.00  0.00    +0.000 A 
ATOM     32  C   UNL     1       6.003   3.567  13.783  0.00  0.00    +0.000 A 
BRANCH  27  34
ATOM     33  N   UNL     1       5.445   1.454  11.033  0.00  0.00    +0.000 NA
ATOM     34  C   UNL     1       5.884   2.322  11.667  0.00  0.00    +0.000 C 
ENDBRANCH  27  34
ENDBRANCH  23  31
ENDBRANCH   1  25
TORSDOF 6
ENDMDL
MODEL 6
REMARK VINA RESULT:      -8.1      2.947     11.528
REMARK  Name = 
REMARK  6 active torsions:
REMARK  status: ('A' for Active; 'I' for Inactive)
REMARK    1  A    between atoms: C_2  and  C_3
REMARK    2  A    between atoms: C_7  and  C_8
REMARK    3  A    between atoms: N_10  and  C_11
REMARK    4  A    between atoms: C_15  and  C_16
REMARK    5  A    between atoms: C_19  and  C_20
REMARK    6  A    between atoms: N_22  and  C_23
REMARK                            x       y       z     vdW  Elec       q    Type
REMARK                         _______ _______ _______ _____ _____    ______ ____
ROOT
ATOM      1  C   UNL     1      -0.211  11.876  21.700  0.00  0.00    +0.000 A 
ATOM      2  C   UNL     1      -0.887  11.393  22.819  0.00  0.00    +0.000 A 
ATOM      3  C   UNL     1      -0.913  10.034  23.108  0.00  0.00    +0.000 A 
ATOM      4  C   UNL     1      -0.256   9.137  22.273  0.00  0.00    +0.000 A 
ATOM      5  C   UNL     1       0.453   9.573  21.141  0.00  0.00    +0.000 A 
ATOM      6  C   UNL     1       0.434  10.960  20.855  0.00  0.00    +0.000 A 
ENDROOT
BRANCH   5   7
ATOM      7  C   UNL     1       1.214   8.600  20.318  0.00  0.00    +0.000 A 
ATOM      8  C   UNL     1       1.611   8.899  19.008  0.00  0.00    +0.000 A 
ATOM      9  C   UNL     1       2.359   7.989  18.258  0.00  0.00    +0.000 A 
ATOM     10  C   UNL     1       2.715   6.743  18.788  0.00  0.00    +0.000 A 
ATOM     11  C   UNL     1       2.323   6.411  20.083  0.00  0.00    +0.000 A 
ATOM     12  C   UNL     1       1.588   7.338  20.836  0.00  0.00    +0.000 A 
BRANCH  10  13
ATOM     13  C   UNL     1       3.586   5.875  17.966  0.00  0.00    +0.000 C 
ATOM     14  O   UNL     1       3.609   4.680  18.258  0.00  0.00    +0.000 OA
ATOM     15  N   UNL     1       4.344   6.489  16.983  0.00  0.00    +0.000 N 
ATOM     16  H   UNL     1       4.382   7.500  16.980  0.00  0.00    +0.000 HD
BRANCH  15  17
ATOM     17  C   UNL     1       5.253   5.809  16.137  0.00  0.00    +0.000 A 
ATOM     18  C   UNL     1       4.857   4.902  15.154  0.00  0.00    +0.000 A 
ATOM     19  C   UNL     1       5.811   4.220  14.402  0.00  0.00    +0.000 A 
ATOM     20  C   UNL     1       7.146   4.481  14.644  0.00  0.00    +0.000 A 
ATOM     21  N   UNL     1       7.579   5.379  15.556  0.00  0.00    +0.000 NA
ATOM     22  C   UNL     1       6.623   6.022  16.274  0.00  0.00    +0.000 A 
ENDBRANCH  15  17
ENDBRANCH  10  13
ENDBRANCH   5   7
BRANCH   1  25
ATOM     23  C   UNL     1      -0.213  13.781  20.114  0.00  0.00    +0.000 C 
ATOM     24  O   UNL     1      -0.383  13.139  19.081  0.00  0.00    +0.000 OA
ATOM     25  N   UNL     1      -0.143  13.262  21.398  0.00  0.00    +0.000 N 
ATOM     26  H   UNL     1      -0.219  13.902  22.178  0.00  0.00    +0.000 HD
BRANCH  23  31
ATOM     27  C   UNL     1      -0.142  17.299  18.675  0.00  0.00    +0.000 A 
ATOM     28  C   UNL     1      -0.218  18.050  19.857  0.00  0.00    +0.000 A 
ATOM     29  C   UNL     1      -0.264  17.408  21.092  0.00  0.00    +0.000 A 
ATOM     30  C   UNL     1      -0.235  16.017  21.144  0.00  0.00    +0.000 A 
ATOM     31  C   UNL     1      -0.153  15.256  19.967  0.00  0.00    +0.000 A 
ATOM     32  C   UNL     1      -0.111  15.898  18.725  0.00  0.00    +0.000 A 
BRANCH  27  34
ATOM     33  N   UNL     1      -0.078  18.522  16.387  0.00  0.00    +0.000 NA
ATOM     34  C   UNL     1      -0.111  17.975  17.411  0.00  0.00    +0.000 C 
ENDBRANCH  27  34
ENDBRANCH  23  31
ENDBRANCH   1  25
TORSDOF 6
ENDMDL
MODEL 7
REMARK VINA RESULT:      -8.0      1.545      2.015
REMARK  Name = 
REMARK  6 active torsions:
REMARK  status: ('A' for Active; 'I' for Inactive)
REMARK    1  A    between atoms: C_2  and  C_3
REMARK    2  A    between atoms: C_7  and  C_8
REMARK    3  A    between atoms: N_10  and  C_11
REMARK    4  A    between atoms: C_15  and  C_16
REMARK    5  A    between atoms: C_19  and  C_20
REMARK    6  A    between atoms: N_22  and  C_23
REMARK                            x       y       z     vdW  Elec       q    Type
REMARK                         _______ _______ _______ _____ _____    ______ ____
ROOT
ATOM      1  C   UNL     1       3.513   4.776  17.969  0.00  0.00    +0.000 A 
ATOM      2  C   UNL     1       3.353   3.750  18.899  0.00  0.00    +0.000 A 
ATOM      3  C   UNL     1       2.747   3.986  20.127  0.00  0.00    +0.000 A 
ATOM      4  C   UNL     1       2.291   5.261  20.439  0.00  0.00    +0.000 A 
ATOM      5  C   UNL     1       2.413   6.327  19.532  0.00  0.00    +0.000 A 
ATOM      6  C   UNL     1       3.063   6.063  18.301  0.00  0.00    +0.000 A 
ENDROOT
BRANCH   5   7
ATOM      7  C   UNL     1       1.840   7.656  19.861  0.00  0.00    +0.000 A 
ATOM      8  C   UNL     1       1.788   8.688  18.914  0.00  0.00    +0.000 A 
ATOM      9  C   UNL     1       1.212   9.921  19.227  0.00  0.00    +0.000 A 
ATOM     10  C   UNL     1       0.688  10.166  20.501  0.00  0.00    +0.000 A 
ATOM     11  C   UNL     1       0.736   9.165  21.468  0.00  0.00    +0.000 A 
ATOM     12  C   UNL     1       1.300   7.923  21.141  0.00  0.00    +0.000 A 
BRANCH  10  13
ATOM     13  C   UNL     1       0.012  11.464  20.722  0.00  0.00    +0.000 C 
ATOM     14  O   UNL     1      -1.154  11.420  21.112  0.00  0.00    +0.000 OA
ATOM     15  N   UNL     1       0.726  12.609  20.413  0.00  0.00    +0.000 N 
ATOM     16  H   UNL     1       1.599  12.500  19.913  0.00  0.00    +0.000 HD
BRANCH  15  17
ATOM     17  C   UNL     1       0.214  13.924  20.531  0.00  0.00    +0.000 A 
ATOM     18  C   UNL     1      -0.393  14.610  19.481  0.00  0.00    +0.000 A 
ATOM     19  C   UNL     1      -0.815  15.928  19.651  0.00  0.00    +0.000 A 
ATOM     20  C   UNL     1      -0.632  16.519  20.887  0.00  0.00    +0.000 A 
ATOM     21  N   UNL     1      -0.088  15.883  21.947  0.00  0.00    +0.000 NA
ATOM     22  C   UNL     1       0.317  14.603  21.744  0.00  0.00    +0.000 A 
ENDBRANCH  15  17
ENDBRANCH  10  13
ENDBRANCH   5   7
BRANCH   1  25
ATOM     23  C   UNL     1       5.408   4.891  16.375  0.00  0.00    +0.000 C 
ATOM     24  O   UNL     1       6.240   5.372  17.138  0.00  0.00    +0.000 OA
ATOM     25  N   UNL     1       4.101   4.556  16.695  0.00  0.00    +0.000 N 
ATOM     26  H   UNL     1       3.584   3.972  16.050  0.00  0.00    +0.000 HD
BRANCH  23  31
ATOM     27  C   UNL     1       5.571   3.783  12.742  0.00  0.00    +0.000 A 
ATOM     28  C   UNL     1       6.870   4.198  12.417  0.00  0.00    +0.000 A 
ATOM     29  C   UNL     1       7.675   4.802  13.380  0.00  0.00    +0.000 A 
ATOM     30  C   UNL     1       7.179   4.990  14.667  0.00  0.00    +0.000 A 
ATOM     31  C   UNL     1       5.881   4.573  15.006  0.00  0.00    +0.000 A 
ATOM     32  C   UNL     1       5.070   3.970  14.039  0.00  0.00    +0.000 A 
BRANCH  27  34
ATOM     33  N   UNL     1       4.082   2.684  10.924  0.00  0.00    +0.000 NA
ATOM     34  C   UNL     1       4.751   3.177  11.735  0.00  0.00    +0.000 C 
ENDBRANCH  27  34
ENDBRANCH  23  31
ENDBRANCH   1  25
TORSDOF 6
ENDMDL
MODEL 8
REMARK VINA RESULT:      -7.9      2.714     11.723
REMARK  Name = 
REMARK  6 active torsions:
REMARK  status: ('A' for Active; 'I' for Inactive)
REMARK    1  A    between atoms: C_2  and  C_3
REMARK    2  A    between atoms: C_7  and  C_8
REMARK    3  A    between atoms: N_10  and  C_11
REMARK    4  A    between atoms: C_15  and  C_16
REMARK    5  A    between atoms: C_19  and  C_20
REMARK    6  A    between atoms: N_22  and  C_23
REMARK                            x       y       z     vdW  Elec       q    Type
REMARK                         _______ _______ _______ _____ _____    ______ ____
ROOT
ATOM      1  C   UNL     1      -0.708  11.741  21.502  0.00  0.00    +0.000 A 
ATOM      2  C   UNL     1      -1.060  11.352  22.793  0.00  0.00    +0.000 A 
ATOM      3  C   UNL     1      -0.748  10.084  23.268  0.00  0.00    +0.000 A 
ATOM      4  C   UNL     1      -0.076   9.184  22.448  0.00  0.00    +0.000 A 
ATOM      5  C   UNL     1       0.315   9.531  21.144  0.00  0.00    +0.000 A 
ATOM      6  C   UNL     1      -0.044  10.819  20.677  0.00  0.00    +0.000 A 
ENDROOT
BRANCH   5   7
ATOM      7  C   UNL     1       1.107   8.580  20.325  0.00  0.00    +0.000 A 
ATOM      8  C   UNL     1       1.564   8.917  19.044  0.00  0.00    +0.000 A 
ATOM      9  C   UNL     1       2.339   8.026  18.300  0.00  0.00    +0.000 A 
ATOM     10  C   UNL     1       2.664   6.762  18.805  0.00  0.00    +0.000 A 
ATOM     11  C   UNL     1       2.212   6.390  20.070  0.00  0.00    +0.000 A 
ATOM     12  C   UNL     1       1.449   7.299  20.818  0.00  0.00    +0.000 A 
BRANCH  10  13
ATOM     13  C   UNL     1       3.565   5.913  17.995  0.00  0.00    +0.000 C 
ATOM     14  O   UNL     1       3.627   4.723  18.301  0.00  0.00    +0.000 OA
ATOM     15  N   UNL     1       4.305   6.541  17.007  0.00  0.00    +0.000 N 
ATOM     16  H   UNL     1       4.310   7.553  16.992  0.00  0.00    +0.000 HD
BRANCH  15  17
ATOM     17  C   UNL     1       5.239   5.882  16.171  0.00  0.00    +0.000 A 
ATOM     18  C   UNL     1       4.874   4.971  15.180  0.00  0.00    +0.000 A 
ATOM     19  C   UNL     1       5.852   4.310  14.439  0.00  0.00    +0.000 A 
ATOM     20  C   UNL     1       7.178   4.597  14.700  0.00  0.00    +0.000 A 
ATOM     21  N   UNL     1       7.581   5.500  15.619  0.00  0.00    +0.000 NA
ATOM     22  C   UNL     1       6.603   6.122  16.327  0.00  0.00    +0.000 A 
ENDBRANCH  15  17
ENDBRANCH  10  13
ENDBRANCH   5   7
BRANCH   1  25
ATOM     23  C   UNL     1      -0.193  13.704  20.078  0.00  0.00    +0.000 C 
ATOM     24  O   UNL     1       0.816  13.260  19.540  0.00  0.00    +0.000 OA
ATOM     25  N   UNL     1      -0.987  13.041  21.002  0.00  0.00    +0.000 N 
ATOM     26  H   UNL     1      -1.902  13.421  21.208  0.00  0.00    +0.000 HD
BRANCH  23  31
ATOM     27  C   UNL     1      -1.988  17.045  19.812  0.00  0.00    +0.000 A 
ATOM     28  C   UNL     1      -1.233  17.649  18.796  0.00  0.00    +0.000 A 
ATOM     29  C   UNL     1      -0.179  16.958  18.202  0.00  0.00    +0.000 A 
ATOM     30  C   UNL     1       0.118  15.665  18.623  0.00  0.00    +0.000 A 
ATOM     31  C   UNL     1      -0.635  15.049  19.636  0.00  0.00    +0.000 A 
ATOM     32  C   UNL     1      -1.691  15.741  20.237  0.00  0.00    +0.000 A 
BRANCH  27  34
ATOM     33  N   UNL     1      -3.930  18.362  20.918  0.00  0.00    +0.000 NA
ATOM     34  C   UNL     1      -3.058  17.775  20.424  0.00  0.00    +0.000 C 
ENDBRANCH  27  34
ENDBRANCH  23  31
ENDBRANCH   1  25
TORSDOF 6
ENDMDL
MODEL 9
REMARK VINA RESULT:      -7.9      6.916     11.904
REMARK  Name = 
REMARK  6 active torsions:
REMARK  status: ('A' for Active; 'I' for Inactive)
REMARK    1  A    between atoms: C_2  and  C_3
REMARK    2  A    between atoms: C_7  and  C_8
REMARK    3  A    between atoms: N_10  and  C_11
REMARK    4  A    between atoms: C_15  and  C_16
REMARK    5  A    between atoms: C_19  and  C_20
REMARK    6  A    between atoms: N_22  and  C_23
REMARK                            x       y       z     vdW  Elec       q    Type
REMARK                         _______ _______ _______ _____ _____    ______ ____
ROOT
ATOM      1  C   UNL     1       9.824  12.003  20.370  0.00  0.00    +0.000 A 
ATOM      2  C   UNL     1      10.544  12.626  19.352  0.00  0.00    +0.000 A 
ATOM      3  C   UNL     1      10.648  12.048  18.093  0.00  0.00    +0.000 A 
ATOM      4  C   UNL     1      10.026  10.830  17.837  0.00  0.00    +0.000 A 
ATOM      5  C   UNL     1       9.276  10.169  18.824  0.00  0.00    +0.000 A 
ATOM      6  C   UNL     1       9.215  10.766  20.106  0.00  0.00    +0.000 A 
ENDROOT
BRANCH   5   7
ATOM      7  C   UNL     1       8.555   8.914  18.495  0.00  0.00    +0.000 A 
ATOM      8  C   UNL     1       8.754   7.738  19.231  0.00  0.00    +0.000 A 
ATOM      9  C   UNL     1       8.041   6.574  18.934  0.00  0.00    +0.000 A 
ATOM     10  C   UNL     1       7.122   6.545  17.879  0.00  0.00    +0.000 A 
ATOM     11  C   UNL     1       6.912   7.694  17.119  0.00  0.00    +0.000 A 
ATOM     12  C   UNL     1       7.619   8.863  17.436  0.00  0.00    +0.000 A 
BRANCH  10  13
ATOM     13  C   UNL     1       6.341   5.304  17.688  0.00  0.00    +0.000 C 
ATOM     14  O   UNL     1       6.750   4.519  16.834  0.00  0.00    +0.000 OA
ATOM     15  N   UNL     1       5.186   5.162  18.439  0.00  0.00    +0.000 N 
ATOM     16  H   UNL     1       4.858   5.967  18.956  0.00  0.00    +0.000 HD
BRANCH  15  17
ATOM     17  C   UNL     1       4.308   4.055  18.350  0.00  0.00    +0.000 A 
ATOM     18  C   UNL     1       3.318   3.935  17.375  0.00  0.00    +0.000 A 
ATOM     19  C   UNL     1       2.446   2.848  17.388  0.00  0.00    +0.000 A 
ATOM     20  C   UNL     1       2.604   1.893  18.374  0.00  0.00    +0.000 A 
ATOM     21  N   UNL     1       3.572   1.943  19.315  0.00  0.00    +0.000 NA
ATOM     22  C   UNL     1       4.401   3.017  19.276  0.00  0.00    +0.000 A 
ENDBRANCH  15  17
ENDBRANCH  10  13
ENDBRANCH   5   7
BRANCH   1  25
ATOM     23  C   UNL     1       8.720  13.540  21.972  0.00  0.00    +0.000 C 
ATOM     24  O   UNL     1       7.857  13.977  21.217  0.00  0.00    +0.000 OA
ATOM     25  N   UNL     1       9.676  12.586  21.657  0.00  0.00    +0.000 N 
ATOM     26  H   UNL     1      10.188  12.152  22.415  0.00  0.00    +0.000 HD
BRANCH  23  31
ATOM     27  C   UNL     1       8.218  13.795  25.732  0.00  0.00    +0.000 A 
ATOM     28  C   UNL     1       8.834  15.030  25.978  0.00  0.00    +0.000 A 
ATOM     29  C   UNL     1       9.375  15.766  24.926  0.00  0.00    +0.000 A 
ATOM     30  C   UNL     1       9.299  15.266  23.630  0.00  0.00    +0.000 A 
ATOM     31  C   UNL     1       8.679  14.032  23.370  0.00  0.00    +0.000 A 
ATOM     32  C   UNL     1       8.140  13.290  24.425  0.00  0.00    +0.000 A 
BRANCH  27  34
ATOM     33  N   UNL     1       7.239  12.436  27.713  0.00  0.00    +0.000 NA
ATOM     34  C   UNL     1       7.681  13.043  26.827  0.00  0.00    +0.000 C 
ENDBRANCH  27  34
ENDBRANCH  23  31
ENDBRANCH   1  25
TORSDOF 6
ENDMDL
