MODEL 1
REMARK VINA RESULT:      -7.9      0.000      0.000
REMARK  Name = 
REMARK  1 active torsions:
REMARK  status: ('A' for Active; 'I' for Inactive)
REMARK    1  A    between atoms: C_6  and  C_7
REMARK                            x       y       z     vdW  Elec       q    Type
REMARK                         _______ _______ _______ _____ _____    ______ ____
ROOT
ATOM      1  C   UNL     1       1.888   2.533  21.629  0.00  0.00    +0.000 A 
ATOM      2  C   UNL     1       0.838   3.086  20.890  0.00  0.00    +0.000 A 
ATOM      3  C   UNL     1       1.056   3.658  19.634  0.00  0.00    +0.000 A 
ATOM      4  C   UNL     1       2.369   3.644  19.163  0.00  0.00    +0.000 A 
ATOM      5  N   UNL     1       2.935   4.103  18.008  0.00  0.00    +0.000 N 
ATOM      6  C   UNL     1       4.289   3.853  18.041  0.00  0.00    +0.000 A 
ATOM      7  N   UNL     1       4.608   3.240  19.166  0.00  0.00    +0.000 NA
ATOM      8  C   UNL     1       3.434   3.107  19.871  0.00  0.00    +0.000 A 
ATOM      9  C   UNL     1       3.198   2.536  21.129  0.00  0.00    +0.000 A 
ATOM     10  H   UNL     1       2.452   4.559  17.243  0.00  0.00    +0.000 HD
ENDROOT
BRANCH   6  11
ATOM     11  C   UNL     1       5.204   4.229  16.977  0.00  0.00    +0.000 A 
ATOM     12  C   UNL     1       5.270   3.557  15.736  0.00  0.00    +0.000 A 
ATOM     13  C   UNL     1       6.165   3.929  14.699  0.00  0.00    +0.000 A 
ATOM     14  C   UNL     1       7.070   5.001  14.812  0.00  0.00    +0.000 A 
ATOM     15  C   UNL     1       7.024   5.683  16.043  0.00  0.00    +0.000 A 
ATOM     16  N   UNL     1       7.747   6.730  16.454  0.00  0.00    +0.000 NA
ATOM     17  O   UNL     1       7.314   7.011  17.736  0.00  0.00    +0.000 OA
ATOM     18  N   UNL     1       6.313   6.148  18.142  0.00  0.00    +0.000 NA
ATOM     19  C   UNL     1       6.107   5.308  17.113  0.00  0.00    +0.000 A 
ENDBRANCH   6  11
TORSDOF 1
ENDMDL
MODEL 2
REMARK VINA RESULT:      -7.8      0.230      1.370
REMARK  Name = 
REMARK  1 active torsions:
REMARK  status: ('A' for Active; 'I' for Inactive)
REMARK    1  A    between atoms: C_6  and  C_7
REMARK                            x       y       z     vdW  Elec       q    Type
REMARK                         _______ _______ _______ _____ _____    ______ ____
ROOT
ATOM      1  C   UNL     1       1.061   3.239  21.180  0.00  0.00    +0.000 A 
ATOM      2  C   UNL     1       2.051   2.432  21.745  0.00  0.00    +0.000 A 
ATOM      3  C   UNL     1       3.312   2.306  21.155  0.00  0.00    +0.000 A 
ATOM      4  C   UNL     1       3.523   3.028  19.980  0.00  0.00    +0.000 A 
ATOM      5  N   UNL     1       4.605   3.141  19.154  0.00  0.00    +0.000 N 
ATOM      6  C   UNL     1       4.286   3.979  18.108  0.00  0.00    +0.000 A 
ATOM      7  N   UNL     1       3.047   4.417  18.242  0.00  0.00    +0.000 NA
ATOM      8  C   UNL     1       2.562   3.837  19.391  0.00  0.00    +0.000 A 
ATOM      9  C   UNL     1       1.303   3.951  19.996  0.00  0.00    +0.000 A 
ATOM     10  H   UNL     1       5.501   2.686  19.275  0.00  0.00    +0.000 HD
ENDROOT
BRANCH   6  11
ATOM     11  C   UNL     1       5.203   4.306  17.030  0.00  0.00    +0.000 A 
ATOM     12  C   UNL     1       5.236   3.612  15.801  0.00  0.00    +0.000 A 
ATOM     13  C   UNL     1       6.133   3.936  14.750  0.00  0.00    +0.000 A 
ATOM     14  C   UNL     1       7.073   4.981  14.836  0.00  0.00    +0.000 A 
ATOM     15  C   UNL     1       7.059   5.686  16.055  0.00  0.00    +0.000 A 
ATOM     16  N   UNL     1       7.818   6.717  16.441  0.00  0.00    +0.000 NA
ATOM     17  O   UNL     1       7.406   7.034  17.722  0.00  0.00    +0.000 OA
ATOM     18  N   UNL     1       6.382   6.210  18.152  0.00  0.00    +0.000 NA
ATOM     19  C   UNL     1       6.141   5.359  17.140  0.00  0.00    +0.000 A 
ENDBRANCH   6  11
TORSDOF 1
ENDMDL
MODEL 3
REMARK VINA RESULT:      -7.8      2.131      6.268
REMARK  Name = 
REMARK  1 active torsions:
REMARK  status: ('A' for Active; 'I' for Inactive)
REMARK    1  A    between atoms: C_6  and  C_7
REMARK                            x       y       z     vdW  Elec       q    Type
REMARK                         _______ _______ _______ _____ _____    ______ ____
ROOT
ATOM      1  C   UNL     1       6.521   4.568  14.034  0.00  0.00    +0.000 A 
ATOM      2  C   UNL     1       7.543   4.796  14.959  0.00  0.00    +0.000 A 
ATOM      3  C   UNL     1       7.311   4.710  16.335  0.00  0.00    +0.000 A 
ATOM      4  C   UNL     1       6.012   4.385  16.727  0.00  0.00    +0.000 A 
ATOM      5  N   UNL     1       5.438   4.219  17.955  0.00  0.00    +0.000 N 
ATOM      6  C   UNL     1       4.106   3.913  17.791  0.00  0.00    +0.000 A 
ATOM      7  N   UNL     1       3.809   3.863  16.505  0.00  0.00    +0.000 NA
ATOM      8  C   UNL     1       4.974   4.155  15.836  0.00  0.00    +0.000 A 
ATOM      9  C   UNL     1       5.225   4.245  14.460  0.00  0.00    +0.000 A 
ATOM     10  H   UNL     1       5.903   4.307  18.851  0.00  0.00    +0.000 HD
ENDROOT
BRANCH   6  11
ATOM     11  C   UNL     1       3.188   3.690  18.895  0.00  0.00    +0.000 A 
ATOM     12  C   UNL     1       1.880   4.220  18.938  0.00  0.00    +0.000 A 
ATOM     13  C   UNL     1       0.987   3.997  20.018  0.00  0.00    +0.000 A 
ATOM     14  C   UNL     1       1.324   3.228  21.148  0.00  0.00    +0.000 A 
ATOM     15  C   UNL     1       2.626   2.692  21.128  0.00  0.00    +0.000 A 
ATOM     16  N   UNL     1       3.237   1.928  22.041  0.00  0.00    +0.000 NA
ATOM     17  O   UNL     1       4.501   1.677  21.541  0.00  0.00    +0.000 OA
ATOM     18  N   UNL     1       4.695   2.275  20.309  0.00  0.00    +0.000 NA
ATOM     19  C   UNL     1       3.549   2.915  20.022  0.00  0.00    +0.000 A 
ENDBRANCH   6  11
TORSDOF 1
ENDMDL
MODEL 4
REMARK VINA RESULT:      -7.7      0.815      1.305
REMARK  Name = 
REMARK  1 active torsions:
REMARK  status: ('A' for Active; 'I' for Inactive)
REMARK    1  A    between atoms: C_6  and  C_7
REMARK                            x       y       z     vdW  Elec       q    Type
REMARK                         _______ _______ _______ _____ _____    ______ ____
ROOT
ATOM      1  C   UNL     1       0.539   2.665  20.135  0.00  0.00    +0.000 A 
ATOM      2  C   UNL     1       1.219   3.399  21.110  0.00  0.00    +0.000 A 
ATOM      3  C   UNL     1       2.413   4.064  20.819  0.00  0.00    +0.000 A 
ATOM      4  C   UNL     1       2.882   3.955  19.509  0.00  0.00    +0.000 A 
ATOM      5  N   UNL     1       3.987   4.460  18.884  0.00  0.00    +0.000 N 
ATOM      6  C   UNL     1       3.993   4.039  17.573  0.00  0.00    +0.000 A 
ATOM      7  N   UNL     1       2.928   3.297  17.332  0.00  0.00    +0.000 NA
ATOM      8  C   UNL     1       2.234   3.233  18.518  0.00  0.00    +0.000 A 
ATOM      9  C   UNL     1       1.037   2.573  18.827  0.00  0.00    +0.000 A 
ATOM     10  H   UNL     1       4.697   5.046  19.305  0.00  0.00    +0.000 HD
ENDROOT
BRANCH   6  11
ATOM     11  C   UNL     1       5.038   4.378  16.624  0.00  0.00    +0.000 A 
ATOM     12  C   UNL     1       5.197   3.730  15.379  0.00  0.00    +0.000 A 
ATOM     13  C   UNL     1       6.220   4.066  14.454  0.00  0.00    +0.000 A 
ATOM     14  C   UNL     1       7.171   5.076  14.692  0.00  0.00    +0.000 A 
ATOM     15  C   UNL     1       7.033   5.734  15.929  0.00  0.00    +0.000 A 
ATOM     16  N   UNL     1       7.770   6.725  16.443  0.00  0.00    +0.000 NA
ATOM     17  O   UNL     1       7.218   7.006  17.679  0.00  0.00    +0.000 OA
ATOM     18  N   UNL     1       6.129   6.200  17.952  0.00  0.00    +0.000 NA
ATOM     19  C   UNL     1       5.985   5.396  16.885  0.00  0.00    +0.000 A 
ENDBRANCH   6  11
TORSDOF 1
ENDMDL
MODEL 5
REMARK VINA RESULT:      -7.5      2.765      6.123
REMARK  Name = 
REMARK  1 active torsions:
REMARK  status: ('A' for Active; 'I' for Inactive)
REMARK    1  A    between atoms: C_6  and  C_7
REMARK                            x       y       z     vdW  Elec       q    Type
REMARK                         _______ _______ _______ _____ _____    ______ ____
ROOT
ATOM      1  C   UNL     1       7.551   7.628  17.458  0.00  0.00    +0.000 A 
ATOM      2  C   UNL     1       8.208   7.007  18.524  0.00  0.00    +0.000 A 
ATOM      3  C   UNL     1       7.610   5.967  19.240  0.00  0.00    +0.000 A 
ATOM      4  C   UNL     1       6.332   5.586  18.832  0.00  0.00    +0.000 A 
ATOM      5  N   UNL     1       5.468   4.631  19.290  0.00  0.00    +0.000 N 
ATOM      6  C   UNL     1       4.314   4.672  18.541  0.00  0.00    +0.000 A 
ATOM      7  N   UNL     1       4.412   5.606  17.612  0.00  0.00    +0.000 NA
ATOM      8  C   UNL     1       5.650   6.181  17.782  0.00  0.00    +0.000 A 
ATOM      9  C   UNL     1       6.264   7.223  17.074  0.00  0.00    +0.000 A 
ATOM     10  H   UNL     1       5.635   3.992  20.059  0.00  0.00    +0.000 HD
ENDROOT
BRANCH   6  11
ATOM     11  C   UNL     1       3.173   3.803  18.770  0.00  0.00    +0.000 A 
ATOM     12  C   UNL     1       2.473   3.151  17.731  0.00  0.00    +0.000 A 
ATOM     13  C   UNL     1       1.359   2.301  17.960  0.00  0.00    +0.000 A 
ATOM     14  C   UNL     1       0.849   2.031  19.245  0.00  0.00    +0.000 A 
ATOM     15  C   UNL     1       1.532   2.673  20.295  0.00  0.00    +0.000 A 
ATOM     16  N   UNL     1       1.295   2.620  21.611  0.00  0.00    +0.000 NA
ATOM     17  O   UNL     1       2.247   3.430  22.201  0.00  0.00    +0.000 OA
ATOM     18  N   UNL     1       3.093   3.996  21.265  0.00  0.00    +0.000 NA
ATOM     19  C   UNL     1       2.677   3.547  20.069  0.00  0.00    +0.000 A 
ENDBRANCH   6  11
TORSDOF 1
ENDMDL
MODEL 6
REMARK VINA RESULT:      -7.5      3.501      3.947
REMARK  Name = 
REMARK  1 active torsions:
REMARK  status: ('A' for Active; 'I' for Inactive)
REMARK    1  A    between atoms: C_6  and  C_7
REMARK                            x       y       z     vdW  Elec       q    Type
REMARK                         _______ _______ _______ _____ _____    ______ ____
ROOT
ATOM      1  C   UNL     1       0.585   9.241  20.825  0.00  0.00    +0.000 A 
ATOM      2  C   UNL     1       0.573  10.070  19.701  0.00  0.00    +0.000 A 
ATOM      3  C   UNL     1       1.293   9.743  18.548  0.00  0.00    +0.000 A 
ATOM      4  C   UNL     1       2.016   8.550  18.584  0.00  0.00    +0.000 A 
ATOM      5  N   UNL     1       2.813   7.931  17.663  0.00  0.00    +0.000 N 
ATOM      6  C   UNL     1       3.308   6.767  18.208  0.00  0.00    +0.000 A 
ATOM      7  N   UNL     1       2.848   6.611  19.436  0.00  0.00    +0.000 NA
ATOM      8  C   UNL     1       2.051   7.705  19.684  0.00  0.00    +0.000 A 
ATOM      9  C   UNL     1       1.323   8.048  20.831  0.00  0.00    +0.000 A 
ATOM     10  H   UNL     1       3.019   8.264  16.729  0.00  0.00    +0.000 HD
ENDROOT
BRANCH   6  11
ATOM     11  C   UNL     1       4.208   5.869  17.506  0.00  0.00    +0.000 A 
ATOM     12  C   UNL     1       3.879   4.534  17.185  0.00  0.00    +0.000 A 
ATOM     13  C   UNL     1       4.762   3.660  16.498  0.00  0.00    +0.000 A 
ATOM     14  C   UNL     1       6.048   4.044  16.074  0.00  0.00    +0.000 A 
ATOM     15  C   UNL     1       6.399   5.372  16.387  0.00  0.00    +0.000 A 
ATOM     16  N   UNL     1       7.535   6.027  16.124  0.00  0.00    +0.000 NA
ATOM     17  O   UNL     1       7.368   7.298  16.643  0.00  0.00    +0.000 OA
ATOM     18  N   UNL     1       6.127   7.454  17.233  0.00  0.00    +0.000 NA
ATOM     19  C   UNL     1       5.498   6.276  17.092  0.00  0.00    +0.000 A 
ENDBRANCH   6  11
TORSDOF 1
ENDMDL
MODEL 7
REMARK VINA RESULT:      -7.5      4.324      5.441
REMARK  Name = 
REMARK  1 active torsions:
REMARK  status: ('A' for Active; 'I' for Inactive)
REMARK    1  A    between atoms: C_6  and  C_7
REMARK                            x       y       z     vdW  Elec       q    Type
REMARK                         _______ _______ _______ _____ _____    ______ ____
ROOT
ATOM      1  C   UNL     1       0.286  10.675  20.581  0.00  0.00    +0.000 A 
ATOM      2  C   UNL     1       0.426   9.921  21.749  0.00  0.00    +0.000 A 
ATOM      3  C   UNL     1       1.065   8.678  21.739  0.00  0.00    +0.000 A 
ATOM      4  C   UNL     1       1.552   8.238  20.507  0.00  0.00    +0.000 A 
ATOM      5  N   UNL     1       2.213   7.103  20.133  0.00  0.00    +0.000 N 
ATOM      6  C   UNL     1       2.459   7.151  18.779  0.00  0.00    +0.000 A 
ATOM      7  N   UNL     1       1.993   8.280  18.276  0.00  0.00    +0.000 NA
ATOM      8  C   UNL     1       1.428   8.960  19.329  0.00  0.00    +0.000 A 
ATOM      9  C   UNL     1       0.784  10.205  19.357  0.00  0.00    +0.000 A 
ATOM     10  H   UNL     1       2.482   6.339  20.741  0.00  0.00    +0.000 HD
ENDROOT
BRANCH   6  11
ATOM     11  C   UNL     1       3.130   6.094  18.044  0.00  0.00    +0.000 A 
ATOM     12  C   UNL     1       4.372   6.268  17.393  0.00  0.00    +0.000 A 
ATOM     13  C   UNL     1       5.025   5.232  16.676  0.00  0.00    +0.000 A 
ATOM     14  C   UNL     1       4.494   3.934  16.548  0.00  0.00    +0.000 A 
ATOM     15  C   UNL     1       3.255   3.738  17.188  0.00  0.00    +0.000 A 
ATOM     16  N   UNL     1       2.504   2.634  17.250  0.00  0.00    +0.000 NA
ATOM     17  O   UNL     1       1.389   2.974  17.993  0.00  0.00    +0.000 OA
ATOM     18  N   UNL     1       1.431   4.292  18.410  0.00  0.00    +0.000 NA
ATOM     19  C   UNL     1       2.578   4.798  17.926  0.00  0.00    +0.000 A 
ENDBRANCH   6  11
TORSDOF 1
ENDMDL
MODEL 8
REMARK VINA RESULT:      -7.5      2.200      6.232
REMARK  Name = 
REMARK  1 active torsions:
REMARK  status: ('A' for Active; 'I' for Inactive)
REMARK    1  A    between atoms: C_6  and  C_7
REMARK                            x       y       z     vdW  Elec       q    Type
REMARK                         _______ _______ _______ _____ _____    ______ ____
ROOT
ATOM      1  C   UNL     1       6.281   5.949  14.528  0.00  0.00    +0.000 A 
ATOM      2  C   UNL     1       6.680   4.616  14.396  0.00  0.00    +0.000 A 
ATOM      3  C   UNL     1       6.182   3.621  15.241  0.00  0.00    +0.000 A 
ATOM      4  C   UNL     1       5.269   4.030  16.214  0.00  0.00    +0.000 A 
ATOM      5  N   UNL     1       4.595   3.347  17.186  0.00  0.00    +0.000 N 
ATOM      6  C   UNL     1       3.818   4.231  17.900  0.00  0.00    +0.000 A 
ATOM      7  N   UNL     1       3.959   5.451  17.413  0.00  0.00    +0.000 NA
ATOM      8  C   UNL     1       4.853   5.343  16.374  0.00  0.00    +0.000 A 
ATOM      9  C   UNL     1       5.363   6.329  15.518  0.00  0.00    +0.000 A 
ATOM     10  H   UNL     1       4.650   2.352  17.367  0.00  0.00    +0.000 HD
ENDROOT
BRANCH   6  11
ATOM     11  C   UNL     1       2.982   3.845  19.023  0.00  0.00    +0.000 A 
ATOM     12  C   UNL     1       1.641   4.261  19.173  0.00  0.00    +0.000 A 
ATOM     13  C   UNL     1       0.828   3.880  20.272  0.00  0.00    +0.000 A 
ATOM     14  C   UNL     1       1.284   3.051  21.315  0.00  0.00    +0.000 A 
ATOM     15  C   UNL     1       2.620   2.626  21.187  0.00  0.00    +0.000 A 
ATOM     16  N   UNL     1       3.337   1.842  22.000  0.00  0.00    +0.000 NA
ATOM     17  O   UNL     1       4.587   1.736  21.421  0.00  0.00    +0.000 OA
ATOM     18  N   UNL     1       4.668   2.447  20.237  0.00  0.00    +0.000 NA
ATOM     19  C   UNL     1       3.462   3.013  20.061  0.00  0.00    +0.000 A 
ENDBRANCH   6  11
TORSDOF 1
ENDMDL
MODEL 9
REMARK VINA RESULT:      -7.4      3.019      3.535
REMARK  Name = 
REMARK  1 active torsions:
REMARK  status: ('A' for Active; 'I' for Inactive)
REMARK    1  A    between atoms: C_6  and  C_7
REMARK                            x       y       z     vdW  Elec       q    Type
REMARK                         _______ _______ _______ _____ _____    ______ ____
ROOT
ATOM      1  C   UNL     1       0.855   8.926  20.052  0.00  0.00    +0.000 A 
ATOM      2  C   UNL     1       0.948   7.892  20.987  0.00  0.00    +0.000 A 
ATOM      3  C   UNL     1       1.824   6.819  20.799  0.00  0.00    +0.000 A 
ATOM      4  C   UNL     1       2.594   6.841  19.636  0.00  0.00    +0.000 A 
ATOM      5  N   UNL     1       3.531   5.980  19.138  0.00  0.00    +0.000 N 
ATOM      6  C   UNL     1       3.988   6.461  17.932  0.00  0.00    +0.000 A 
ATOM      7  N   UNL     1       3.390   7.604  17.646  0.00  0.00    +0.000 NA
ATOM      8  C   UNL     1       2.525   7.850  18.687  0.00  0.00    +0.000 A 
ATOM      9  C   UNL     1       1.641   8.918  18.890  0.00  0.00    +0.000 A 
ATOM     10  H   UNL     1       3.846   5.121  19.573  0.00  0.00    +0.000 HD
ENDROOT
BRANCH   6  11
ATOM     11  C   UNL     1       4.980   5.782  17.117  0.00  0.00    +0.000 A 
ATOM     12  C   UNL     1       4.831   5.567  15.729  0.00  0.00    +0.000 A 
ATOM     13  C   UNL     1       5.804   4.904  14.937  0.00  0.00    +0.000 A 
ATOM     14  C   UNL     1       7.009   4.399  15.463  0.00  0.00    +0.000 A 
ATOM     15  C   UNL     1       7.177   4.600  16.847  0.00  0.00    +0.000 A 
ATOM     16  N   UNL     1       8.199   4.242  17.632  0.00  0.00    +0.000 NA
ATOM     17  O   UNL     1       7.870   4.672  18.904  0.00  0.00    +0.000 OA
ATOM     18  N   UNL     1       6.642   5.307  18.930  0.00  0.00    +0.000 NA
ATOM     19  C   UNL     1       6.183   5.280  17.667  0.00  0.00    +0.000 A 
ENDBRANCH   6  11
TORSDOF 1
ENDMDL
