MODEL 1
REMARK VINA RESULT:      -8.4      0.000      0.000
REMARK  Name = 
REMARK  9 active torsions:
REMARK  status: ('A' for Active; 'I' for Inactive)
REMARK    1  A    between atoms: C_1  and  C_2
REMARK    2  A    between atoms: C_3  and  C_4
REMARK    3  A    between atoms: N_11  and  C_12
REMARK    4  A    between atoms: C_12  and  C_13
REMARK    5  A    between atoms: C_16  and  O_17
REMARK    6  A    between atoms: O_17  and  C_18
REMARK    7  A    between atoms: C_18  and  C_19
REMARK    8  A    between atoms: C_19  and  N_20
REMARK    9  A    between atoms: C_31  and  O_32
REMARK                            x       y       z     vdW  Elec       q    Type
REMARK                         _______ _______ _______ _____ _____    ______ ____
ROOT
ATOM      1  C   UNL     1      -6.657  11.348  19.515  0.00  0.00    +0.000 C 
ATOM      2  C   UNL     1      -5.363  11.912  20.005  0.00  0.00    +0.000 A 
ATOM      3  C   UNL     1      -4.092  11.873  19.420  0.00  0.00    +0.000 A 
ATOM      4  N   UNL     1      -3.229  12.544  20.323  0.00  0.00    +0.000 N 
ATOM      5  C   UNL     1      -3.943  12.979  21.438  0.00  0.00    +0.000 A 
ATOM      6  C   UNL     1      -3.585  13.658  22.623  0.00  0.00    +0.000 A 
ATOM      7  C   UNL     1      -4.552  14.022  23.565  0.00  0.00    +0.000 A 
ATOM      8  C   UNL     1      -5.864  13.654  23.374  0.00  0.00    +0.000 A 
ATOM      9  C   UNL     1      -6.238  12.943  22.238  0.00  0.00    +0.000 A 
ATOM     10  C   UNL     1      -5.276  12.609  21.248  0.00  0.00    +0.000 A 
ENDROOT
BRANCH   3  11
ATOM     11  C   UNL     1      -3.700  11.296  18.098  0.00  0.00    +0.000 A 
ATOM     12  C   UNL     1      -4.324  11.744  16.920  0.00  0.00    +0.000 A 
ATOM     13  C   UNL     1      -4.006  11.205  15.666  0.00  0.00    +0.000 A 
ATOM     14  C   UNL     1      -3.003  10.252  15.563  0.00  0.00    +0.000 A 
ATOM     15  F   UNL     1      -2.671   9.760  14.365  0.00  0.00    +0.000 F 
ATOM     16  C   UNL     1      -2.355   9.796  16.698  0.00  0.00    +0.000 A 
ATOM     17  C   UNL     1      -2.740  10.279  17.954  0.00  0.00    +0.000 A 
ENDBRANCH   3  11
BRANCH   8  18
ATOM     18  O   UNL     1      -6.821  13.959  24.298  0.00  0.00    +0.000 OA
ATOM     19  H   UNL     1      -7.509  13.282  24.257  0.00  0.00    +0.000 HD
ENDBRANCH   8  18
BRANCH   4  20
ATOM     20  C   UNL     1      -1.783  12.705  20.034  0.00  0.00    +0.000 C 
BRANCH  20  21
ATOM     21  C   UNL     1      -0.792  11.705  20.562  0.00  0.00    +0.000 A 
ATOM     22  C   UNL     1       0.183  11.223  19.678  0.00  0.00    +0.000 A 
ATOM     23  C   UNL     1       0.967  10.140  20.020  0.00  0.00    +0.000 A 
ATOM     24  C   UNL     1       0.792   9.491  21.245  0.00  0.00    +0.000 A 
ATOM     25  C   UNL     1      -0.067  10.061  22.192  0.00  0.00    +0.000 A 
ATOM     26  C   UNL     1      -0.828  11.197  21.868  0.00  0.00    +0.000 A 
BRANCH  24  27
ATOM     27  O   UNL     1       1.364   8.275  21.570  0.00  0.00    +0.000 OA
BRANCH  27  28
ATOM     28  C   UNL     1       1.137   7.284  20.561  0.00  0.00    +0.000 C 
BRANCH  28  29
ATOM     29  C   UNL     1       2.411   6.737  19.913  0.00  0.00    +0.000 C 
BRANCH  29  30
ATOM     30  N   UNL     1       2.311   5.272  19.688  0.00  0.00    +0.000 NA
ATOM     31  C   UNL     1       1.316   4.640  20.576  0.00  0.00    +0.000 C 
ATOM     32  C   UNL     1       1.216   3.131  20.360  0.00  0.00    +0.000 C 
ATOM     33  C   UNL     1       0.914   2.806  18.908  0.00  0.00    +0.000 C 
ATOM     34  C   UNL     1       1.933   3.486  18.002  0.00  0.00    +0.000 C 
ATOM     35  C   UNL     1       2.010   4.991  18.277  0.00  0.00    +0.000 C 
ENDBRANCH  29  30
ENDBRANCH  28  29
ENDBRANCH  27  28
ENDBRANCH  24  27
ENDBRANCH  20  21
ENDBRANCH   4  20
TORSDOF 8
ENDMDL
MODEL 2
REMARK VINA RESULT:      -8.0      2.904      9.507
REMARK  Name = 
REMARK  9 active torsions:
REMARK  status: ('A' for Active; 'I' for Inactive)
REMARK    1  A    between atoms: C_1  and  C_2
REMARK    2  A    between atoms: C_3  and  C_4
REMARK    3  A    between atoms: N_11  and  C_12
REMARK    4  A    between atoms: C_12  and  C_13
REMARK    5  A    between atoms: C_16  and  O_17
REMARK    6  A    between atoms: O_17  and  C_18
REMARK    7  A    between atoms: C_18  and  C_19
REMARK    8  A    between atoms: C_19  and  N_20
REMARK    9  A    between atoms: C_31  and  O_32
REMARK                            x       y       z     vdW  Elec       q    Type
REMARK                         _______ _______ _______ _____ _____    ______ ____
ROOT
ATOM      1  C   UNL     1       1.922   4.860  20.878  0.00  0.00    +0.000 C 
ATOM      2  C   UNL     1       2.349   5.924  19.920  0.00  0.00    +0.000 A 
ATOM      3  C   UNL     1       2.051   7.292  19.913  0.00  0.00    +0.000 A 
ATOM      4  N   UNL     1       2.698   7.823  18.768  0.00  0.00    +0.000 N 
ATOM      5  C   UNL     1       3.369   6.812  18.083  0.00  0.00    +0.000 A 
ATOM      6  C   UNL     1       4.132   6.778  16.896  0.00  0.00    +0.000 A 
ATOM      7  C   UNL     1       4.749   5.599  16.469  0.00  0.00    +0.000 A 
ATOM      8  C   UNL     1       4.555   4.433  17.175  0.00  0.00    +0.000 A 
ATOM      9  C   UNL     1       3.769   4.427  18.323  0.00  0.00    +0.000 A 
ATOM     10  C   UNL     1       3.177   5.628  18.796  0.00  0.00    +0.000 A 
ENDROOT
BRANCH   3  11
ATOM     11  C   UNL     1       1.261   8.071  20.914  0.00  0.00    +0.000 A 
ATOM     12  C   UNL     1      -0.144   8.002  20.912  0.00  0.00    +0.000 A 
ATOM     13  C   UNL     1      -0.919   8.743  21.815  0.00  0.00    +0.000 A 
ATOM     14  C   UNL     1      -0.296   9.514  22.783  0.00  0.00    +0.000 A 
ATOM     15  F   UNL     1      -1.032  10.195  23.670  0.00  0.00    +0.000 F 
ATOM     16  C   UNL     1       1.085   9.596  22.828  0.00  0.00    +0.000 A 
ATOM     17  C   UNL     1       1.848   8.921  21.868  0.00  0.00    +0.000 A 
ENDBRANCH   3  11
BRANCH   8  18
ATOM     18  O   UNL     1       5.111   3.259  16.757  0.00  0.00    +0.000 OA
ATOM     19  H   UNL     1       4.840   2.561  17.368  0.00  0.00    +0.000 HD
ENDBRANCH   8  18
BRANCH   4  20
ATOM     20  C   UNL     1       2.608   9.264  18.430  0.00  0.00    +0.000 C 
BRANCH  20  21
ATOM     21  C   UNL     1       1.264   9.924  18.284  0.00  0.00    +0.000 A 
ATOM     22  C   UNL     1       1.070  11.158  18.918  0.00  0.00    +0.000 A 
ATOM     23  C   UNL     1      -0.194  11.701  19.027  0.00  0.00    +0.000 A 
ATOM     24  C   UNL     1      -1.308  11.023  18.524  0.00  0.00    +0.000 A 
ATOM     25  C   UNL     1      -1.103   9.871  17.756  0.00  0.00    +0.000 A 
ATOM     26  C   UNL     1       0.190   9.344  17.595  0.00  0.00    +0.000 A 
BRANCH  24  27
ATOM     27  O   UNL     1      -2.618  11.374  18.789  0.00  0.00    +0.000 OA
BRANCH  27  28
ATOM     28  C   UNL     1      -2.713  12.368  19.816  0.00  0.00    +0.000 C 
BRANCH  28  29
ATOM     29  C   UNL     1      -4.146  12.739  20.207  0.00  0.00    +0.000 C 
BRANCH  29  30
ATOM     30  N   UNL     1      -4.233  13.101  21.645  0.00  0.00    +0.000 NA
ATOM     31  C   UNL     1      -5.560  12.799  22.216  0.00  0.00    +0.000 C 
ATOM     32  C   UNL     1      -5.661  13.180  23.691  0.00  0.00    +0.000 C 
ATOM     33  C   UNL     1      -4.568  12.510  24.505  0.00  0.00    +0.000 C 
ATOM     34  C   UNL     1      -3.207  12.809  23.890  0.00  0.00    +0.000 C 
ATOM     35  C   UNL     1      -3.168  12.430  22.406  0.00  0.00    +0.000 C 
ENDBRANCH  29  30
ENDBRANCH  28  29
ENDBRANCH  27  28
ENDBRANCH  24  27
ENDBRANCH  20  21
ENDBRANCH   4  20
TORSDOF 8
ENDMDL
MODEL 3
REMARK VINA RESULT:      -8.0      3.025      9.495
REMARK  Name = 
REMARK  9 active torsions:
REMARK  status: ('A' for Active; 'I' for Inactive)
REMARK    1  A    between atoms: C_1  and  C_2
REMARK    2  A    between atoms: C_3  and  C_4
REMARK    3  A    between atoms: N_11  and  C_12
REMARK    4  A    between atoms: C_12  and  C_13
REMARK    5  A    between atoms: C_16  and  O_17
REMARK    6  A    between atoms: O_17  and  C_18
REMARK    7  A    between atoms: C_18  and  C_19
REMARK    8  A    between atoms: C_19  and  N_20
REMARK    9  A    between atoms: C_31  and  O_32
REMARK                            x       y       z     vdW  Elec       q    Type
REMARK                         _______ _______ _______ _____ _____    ______ ____
ROOT
ATOM      1  C   UNL     1       2.161   4.906  20.991  0.00  0.00    +0.000 C 
ATOM      2  C   UNL     1       2.473   5.958  19.978  0.00  0.00    +0.000 A 
ATOM      3  C   UNL     1       2.077   7.300  19.932  0.00  0.00    +0.000 A 
ATOM      4  N   UNL     1       2.638   7.830  18.742  0.00  0.00    +0.000 N 
ATOM      5  C   UNL     1       3.354   6.842  18.068  0.00  0.00    +0.000 A 
ATOM      6  C   UNL     1       4.072   6.815  16.853  0.00  0.00    +0.000 A 
ATOM      7  C   UNL     1       4.757   5.666  16.445  0.00  0.00    +0.000 A 
ATOM      8  C   UNL     1       4.675   4.519  17.201  0.00  0.00    +0.000 A 
ATOM      9  C   UNL     1       3.935   4.503  18.380  0.00  0.00    +0.000 A 
ATOM     10  C   UNL     1       3.276   5.677  18.832  0.00  0.00    +0.000 A 
ENDROOT
BRANCH   3  11
ATOM     11  C   UNL     1       1.270   8.061  20.935  0.00  0.00    +0.000 A 
ATOM     12  C   UNL     1      -0.128   7.921  20.968  0.00  0.00    +0.000 A 
ATOM     13  C   UNL     1      -0.920   8.641  21.873  0.00  0.00    +0.000 A 
ATOM     14  C   UNL     1      -0.315   9.465  22.810  0.00  0.00    +0.000 A 
ATOM     15  F   UNL     1      -1.064  10.126  23.699  0.00  0.00    +0.000 F 
ATOM     16  C   UNL     1       1.061   9.617  22.820  0.00  0.00    +0.000 A 
ATOM     17  C   UNL     1       1.835   8.959  21.857  0.00  0.00    +0.000 A 
ENDBRANCH   3  11
BRANCH   8  18
ATOM     18  O   UNL     1       5.298   3.371  16.805  0.00  0.00    +0.000 OA
ATOM     19  H   UNL     1       4.678   2.638  16.910  0.00  0.00    +0.000 HD
ENDBRANCH   8  18
BRANCH   4  20
ATOM     20  C   UNL     1       2.431   9.246  18.355  0.00  0.00    +0.000 C 
BRANCH  20  21
ATOM     21  C   UNL     1       1.050   9.841  18.379  0.00  0.00    +0.000 A 
ATOM     22  C   UNL     1       0.052   9.205  17.629  0.00  0.00    +0.000 A 
ATOM     23  C   UNL     1      -1.164   9.821  17.413  0.00  0.00    +0.000 A 
ATOM     24  C   UNL     1      -1.418  11.098  17.923  0.00  0.00    +0.000 A 
ATOM     25  C   UNL     1      -0.489  11.669  18.800  0.00  0.00    +0.000 A 
ATOM     26  C   UNL     1       0.729  11.020  19.066  0.00  0.00    +0.000 A 
BRANCH  24  27
ATOM     27  O   UNL     1      -2.503  11.875  17.567  0.00  0.00    +0.000 OA
BRANCH  27  28
ATOM     28  C   UNL     1      -3.616  11.084  17.134  0.00  0.00    +0.000 C 
BRANCH  28  29
ATOM     29  C   UNL     1      -4.984  11.722  17.390  0.00  0.00    +0.000 C 
BRANCH  29  30
ATOM     30  N   UNL     1      -5.469  11.419  18.761  0.00  0.00    +0.000 NA
ATOM     31  C   UNL     1      -5.495  12.618  19.620  0.00  0.00    +0.000 C 
ATOM     32  C   UNL     1      -5.980  12.312  21.035  0.00  0.00    +0.000 C 
ATOM     33  C   UNL     1      -7.344  11.645  21.013  0.00  0.00    +0.000 C 
ATOM     34  C   UNL     1      -7.310  10.424  20.103  0.00  0.00    +0.000 C 
ATOM     35  C   UNL     1      -6.794  10.783  18.705  0.00  0.00    +0.000 C 
ENDBRANCH  29  30
ENDBRANCH  28  29
ENDBRANCH  27  28
ENDBRANCH  24  27
ENDBRANCH  20  21
ENDBRANCH   4  20
TORSDOF 8
ENDMDL
MODEL 4
REMARK VINA RESULT:      -7.9      3.445      5.765
REMARK  Name = 
REMARK  9 active torsions:
REMARK  status: ('A' for Active; 'I' for Inactive)
REMARK    1  A    between atoms: C_1  and  C_2
REMARK    2  A    between atoms: C_3  and  C_4
REMARK    3  A    between atoms: N_11  and  C_12
REMARK    4  A    between atoms: C_12  and  C_13
REMARK    5  A    between atoms: C_16  and  O_17
REMARK    6  A    between atoms: O_17  and  C_18
REMARK    7  A    between atoms: C_18  and  C_19
REMARK    8  A    between atoms: C_19  and  N_20
REMARK    9  A    between atoms: C_31  and  O_32
REMARK                            x       y       z     vdW  Elec       q    Type
REMARK                         _______ _______ _______ _____ _____    ______ ____
ROOT
ATOM      1  C   UNL     1      -4.920  12.712  19.415  0.00  0.00    +0.000 C 
ATOM      2  C   UNL     1      -3.597  12.116  19.057  0.00  0.00    +0.000 A 
ATOM      3  C   UNL     1      -2.381  12.162  19.748  0.00  0.00    +0.000 A 
ATOM      4  N   UNL     1      -1.453  11.451  18.946  0.00  0.00    +0.000 N 
ATOM      5  C   UNL     1      -2.075  10.985  17.789  0.00  0.00    +0.000 A 
ATOM      6  C   UNL     1      -1.626  10.262  16.663  0.00  0.00    +0.000 A 
ATOM      7  C   UNL     1      -2.512   9.875  15.654  0.00  0.00    +0.000 A 
ATOM      8  C   UNL     1      -3.831  10.264  15.718  0.00  0.00    +0.000 A 
ATOM      9  C   UNL     1      -4.291  11.018  16.794  0.00  0.00    +0.000 A 
ATOM     10  C   UNL     1      -3.413  11.376  17.851  0.00  0.00    +0.000 A 
ENDROOT
BRANCH   3  11
ATOM     11  C   UNL     1      -2.096  12.781  21.079  0.00  0.00    +0.000 A 
ATOM     12  C   UNL     1      -2.178  12.005  22.249  0.00  0.00    +0.000 A 
ATOM     13  C   UNL     1      -1.949  12.558  23.517  0.00  0.00    +0.000 A 
ATOM     14  C   UNL     1      -1.564  13.885  23.628  0.00  0.00    +0.000 A 
ATOM     15  F   UNL     1      -1.310  14.407  24.833  0.00  0.00    +0.000 F 
ATOM     16  C   UNL     1      -1.458  14.677  22.498  0.00  0.00    +0.000 A 
ATOM     17  C   UNL     1      -1.772  14.139  21.244  0.00  0.00    +0.000 A 
ENDBRANCH   3  11
BRANCH   8  18
ATOM     18  O   UNL     1      -4.709   9.937  14.726  0.00  0.00    +0.000 OA
ATOM     19  H   UNL     1      -5.589   9.851  15.116  0.00  0.00    +0.000 HD
ENDBRANCH   8  18
BRANCH   4  20
ATOM     20  C   UNL     1      -0.040  11.284  19.365  0.00  0.00    +0.000 C 
BRANCH  20  21
ATOM     21  C   UNL     1       0.576   9.913  19.416  0.00  0.00    +0.000 A 
ATOM     22  C   UNL     1       0.491   9.204  20.621  0.00  0.00    +0.000 A 
ATOM     23  C   UNL     1       1.231   8.055  20.814  0.00  0.00    +0.000 A 
ATOM     24  C   UNL     1       2.094   7.587  19.819  0.00  0.00    +0.000 A 
ATOM     25  C   UNL     1       2.065   8.199  18.561  0.00  0.00    +0.000 A 
ATOM     26  C   UNL     1       1.271   9.338  18.343  0.00  0.00    +0.000 A 
BRANCH  24  27
ATOM     27  O   UNL     1       3.033   6.591  20.009  0.00  0.00    +0.000 OA
BRANCH  27  28
ATOM     28  C   UNL     1       3.004   5.614  18.962  0.00  0.00    +0.000 C 
BRANCH  28  29
ATOM     29  C   UNL     1       4.090   4.539  19.068  0.00  0.00    +0.000 C 
BRANCH  29  30
ATOM     30  N   UNL     1       5.324   4.953  18.353  0.00  0.00    +0.000 NA
ATOM     31  C   UNL     1       5.058   5.989  17.337  0.00  0.00    +0.000 C 
ATOM     32  C   UNL     1       6.320   6.411  16.588  0.00  0.00    +0.000 C 
ATOM     33  C   UNL     1       7.397   6.877  17.551  0.00  0.00    +0.000 C 
ATOM     34  C   UNL     1       7.643   5.809  18.609  0.00  0.00    +0.000 C 
ATOM     35  C   UNL     1       6.343   5.406  19.312  0.00  0.00    +0.000 C 
ENDBRANCH  29  30
ENDBRANCH  28  29
ENDBRANCH  27  28
ENDBRANCH  24  27
ENDBRANCH  20  21
ENDBRANCH   4  20
TORSDOF 8
ENDMDL
MODEL 5
REMARK VINA RESULT:      -7.8      3.052      4.980
REMARK  Name = 
REMARK  9 active torsions:
REMARK  status: ('A' for Active; 'I' for Inactive)
REMARK    1  A    between atoms: C_1  and  C_2
REMARK    2  A    between atoms: C_3  and  C_4
REMARK    3  A    between atoms: N_11  and  C_12
REMARK    4  A    between atoms: C_12  and  C_13
REMARK    5  A    between atoms: C_16  and  O_17
REMARK    6  A    between atoms: O_17  and  C_18
REMARK    7  A    between atoms: C_18  and  C_19
REMARK    8  A    between atoms: C_19  and  N_20
REMARK    9  A    between atoms: C_31  and  O_32
REMARK                            x       y       z     vdW  Elec       q    Type
REMARK                         _______ _______ _______ _____ _____    ______ ____
ROOT
ATOM      1  C   UNL     1      -5.974  12.415  19.457  0.00  0.00    +0.000 C 
ATOM      2  C   UNL     1      -4.512  12.213  19.224  0.00  0.00    +0.000 A 
ATOM      3  C   UNL     1      -3.424  12.526  20.047  0.00  0.00    +0.000 A 
ATOM      4  N   UNL     1      -2.267  12.141  19.325  0.00  0.00    +0.000 N 
ATOM      5  C   UNL     1      -2.627  11.611  18.087  0.00  0.00    +0.000 A 
ATOM      6  C   UNL     1      -1.895  11.110  16.988  0.00  0.00    +0.000 A 
ATOM      7  C   UNL     1      -2.545  10.578  15.872  0.00  0.00    +0.000 A 
ATOM      8  C   UNL     1      -3.920  10.603  15.805  0.00  0.00    +0.000 A 
ATOM      9  C   UNL     1      -4.666  11.133  16.853  0.00  0.00    +0.000 A 
ATOM     10  C   UNL     1      -4.021  11.633  18.016  0.00  0.00    +0.000 A 
ENDROOT
BRANCH   3  11
ATOM     11  C   UNL     1      -3.444  13.103  21.426  0.00  0.00    +0.000 A 
ATOM     12  C   UNL     1      -3.607  14.488  21.609  0.00  0.00    +0.000 A 
ATOM     13  C   UNL     1      -3.599  15.069  22.885  0.00  0.00    +0.000 A 
ATOM     14  C   UNL     1      -3.499  14.261  24.006  0.00  0.00    +0.000 A 
ATOM     15  F   UNL     1      -3.528  14.808  25.227  0.00  0.00    +0.000 F 
ATOM     16  C   UNL     1      -3.353  12.892  23.869  0.00  0.00    +0.000 A 
ATOM     17  C   UNL     1      -3.275  12.331  22.588  0.00  0.00    +0.000 A 
ENDBRANCH   3  11
BRANCH   8  18
ATOM     18  O   UNL     1      -4.579  10.128  14.709  0.00  0.00    +0.000 OA
ATOM     19  H   UNL     1      -4.011  10.251  13.937  0.00  0.00    +0.000 HD
ENDBRANCH   8  18
BRANCH   4  20
ATOM     20  C   UNL     1      -0.908  12.320  19.890  0.00  0.00    +0.000 C 
BRANCH  20  21
ATOM     21  C   UNL     1       0.016  11.141  20.025  0.00  0.00    +0.000 A 
ATOM     22  C   UNL     1       0.961  10.933  19.011  0.00  0.00    +0.000 A 
ATOM     23  C   UNL     1       1.673   9.752  18.947  0.00  0.00    +0.000 A 
ATOM     24  C   UNL     1       1.453   8.735  19.879  0.00  0.00    +0.000 A 
ATOM     25  C   UNL     1       0.630   8.997  20.980  0.00  0.00    +0.000 A 
ATOM     26  C   UNL     1      -0.056  10.220  21.079  0.00  0.00    +0.000 A 
BRANCH  24  27
ATOM     27  O   UNL     1       1.945   7.449  19.758  0.00  0.00    +0.000 OA
BRANCH  27  28
ATOM     28  C   UNL     1       2.363   7.155  18.420  0.00  0.00    +0.000 C 
BRANCH  28  29
ATOM     29  C   UNL     1       3.650   6.330  18.326  0.00  0.00    +0.000 C 
BRANCH  29  30
ATOM     30  N   UNL     1       3.358   4.874  18.375  0.00  0.00    +0.000 NA
ATOM     31  C   UNL     1       3.694   4.284  19.685  0.00  0.00    +0.000 C 
ATOM     32  C   UNL     1       3.408   2.784  19.739  0.00  0.00    +0.000 C 
ATOM     33  C   UNL     1       1.963   2.490  19.379  0.00  0.00    +0.000 C 
ATOM     34  C   UNL     1       1.623   3.127  18.038  0.00  0.00    +0.000 C 
ATOM     35  C   UNL     1       1.951   4.623  18.030  0.00  0.00    +0.000 C 
ENDBRANCH  29  30
ENDBRANCH  28  29
ENDBRANCH  27  28
ENDBRANCH  24  27
ENDBRANCH  20  21
ENDBRANCH   4  20
TORSDOF 8
ENDMDL
MODEL 6
REMARK VINA RESULT:      -7.8      3.179      5.333
REMARK  Name = 
REMARK  9 active torsions:
REMARK  status: ('A' for Active; 'I' for Inactive)
REMARK    1  A    between atoms: C_1  and  C_2
REMARK    2  A    between atoms: C_3  and  C_4
REMARK    3  A    between atoms: N_11  and  C_12
REMARK    4  A    between atoms: C_12  and  C_13
REMARK    5  A    between atoms: C_16  and  O_17
REMARK    6  A    between atoms: O_17  and  C_18
REMARK    7  A    between atoms: C_18  and  C_19
REMARK    8  A    between atoms: C_19  and  N_20
REMARK    9  A    between atoms: C_31  and  O_32
REMARK                            x       y       z     vdW  Elec       q    Type
REMARK                         _______ _______ _______ _____ _____    ______ ____
ROOT
ATOM      1  C   UNL     1      -5.472  12.694  19.638  0.00  0.00    +0.000 C 
ATOM      2  C   UNL     1      -4.049  12.317  19.380  0.00  0.00    +0.000 A 
ATOM      3  C   UNL     1      -2.910  12.535  20.163  0.00  0.00    +0.000 A 
ATOM      4  N   UNL     1      -1.825  11.992  19.431  0.00  0.00    +0.000 N 
ATOM      5  C   UNL     1      -2.278  11.459  18.225  0.00  0.00    +0.000 A 
ATOM      6  C   UNL     1      -1.639  10.835  17.131  0.00  0.00    +0.000 A 
ATOM      7  C   UNL     1      -2.376  10.337  16.054  0.00  0.00    +0.000 A 
ATOM      8  C   UNL     1      -3.740  10.517  16.019  0.00  0.00    +0.000 A 
ATOM      9  C   UNL     1      -4.392  11.170  17.061  0.00  0.00    +0.000 A 
ATOM     10  C   UNL     1      -3.662  11.637  18.186  0.00  0.00    +0.000 A 
ENDROOT
BRANCH   3  11
ATOM     11  C   UNL     1      -2.826  13.165  21.517  0.00  0.00    +0.000 A 
ATOM     12  C   UNL     1      -3.113  12.407  22.666  0.00  0.00    +0.000 A 
ATOM     13  C   UNL     1      -3.076  12.970  23.949  0.00  0.00    +0.000 A 
ATOM     14  C   UNL     1      -2.680  14.289  24.108  0.00  0.00    +0.000 A 
ATOM     15  F   UNL     1      -2.608  14.820  25.334  0.00  0.00    +0.000 F 
ATOM     16  C   UNL     1      -2.374  15.064  23.003  0.00  0.00    +0.000 A 
ATOM     17  C   UNL     1      -2.498  14.516  21.720  0.00  0.00    +0.000 A 
ENDBRANCH   3  11
BRANCH   8  18
ATOM     18  O   UNL     1      -4.480  10.078  14.959  0.00  0.00    +0.000 OA
ATOM     19  H   UNL     1      -5.210  10.695  14.822  0.00  0.00    +0.000 HD
ENDBRANCH   8  18
BRANCH   4  20
ATOM     20  C   UNL     1      -0.439  12.037  19.956  0.00  0.00    +0.000 C 
BRANCH  20  21
ATOM     21  C   UNL     1       0.269  10.764  20.331  0.00  0.00    +0.000 A 
ATOM     22  C   UNL     1       1.086  10.162  19.365  0.00  0.00    +0.000 A 
ATOM     23  C   UNL     1       1.571   8.884  19.553  0.00  0.00    +0.000 A 
ATOM     24  C   UNL     1       1.241   8.157  20.700  0.00  0.00    +0.000 A 
ATOM     25  C   UNL     1       0.558   8.807  21.735  0.00  0.00    +0.000 A 
ATOM     26  C   UNL     1       0.110  10.128  21.570  0.00  0.00    +0.000 A 
BRANCH  24  27
ATOM     27  O   UNL     1       1.487   6.807  20.863  0.00  0.00    +0.000 OA
BRANCH  27  28
ATOM     28  C   UNL     1       2.027   6.209  19.678  0.00  0.00    +0.000 C 
BRANCH  28  29
ATOM     29  C   UNL     1       3.261   5.335  19.916  0.00  0.00    +0.000 C 
BRANCH  29  30
ATOM     30  N   UNL     1       4.334   5.645  18.937  0.00  0.00    +0.000 NA
ATOM     31  C   UNL     1       5.168   4.466  18.634  0.00  0.00    +0.000 C 
ATOM     32  C   UNL     1       6.282   4.780  17.638  0.00  0.00    +0.000 C 
ATOM     33  C   UNL     1       5.720   5.376  16.359  0.00  0.00    +0.000 C 
ATOM     34  C   UNL     1       4.841   6.576  16.689  0.00  0.00    +0.000 C 
ATOM     35  C   UNL     1       3.758   6.212  17.709  0.00  0.00    +0.000 C 
ENDBRANCH  29  30
ENDBRANCH  28  29
ENDBRANCH  27  28
ENDBRANCH  24  27
ENDBRANCH  20  21
ENDBRANCH   4  20
TORSDOF 8
ENDMDL
MODEL 7
REMARK VINA RESULT:      -7.6      3.672     10.740
REMARK  Name = 
REMARK  9 active torsions:
REMARK  status: ('A' for Active; 'I' for Inactive)
REMARK    1  A    between atoms: C_1  and  C_2
REMARK    2  A    between atoms: C_3  and  C_4
REMARK    3  A    between atoms: N_11  and  C_12
REMARK    4  A    between atoms: C_12  and  C_13
REMARK    5  A    between atoms: C_16  and  O_17
REMARK    6  A    between atoms: O_17  and  C_18
REMARK    7  A    between atoms: C_18  and  C_19
REMARK    8  A    between atoms: C_19  and  N_20
REMARK    9  A    between atoms: C_31  and  O_32
REMARK                            x       y       z     vdW  Elec       q    Type
REMARK                         _______ _______ _______ _____ _____    ______ ____
ROOT
ATOM      1  C   UNL     1       3.677   1.818  16.815  0.00  0.00    +0.000 C 
ATOM      2  C   UNL     1       4.067   3.206  17.209  0.00  0.00    +0.000 A 
ATOM      3  C   UNL     1       3.721   3.942  18.347  0.00  0.00    +0.000 A 
ATOM      4  N   UNL     1       4.349   5.205  18.199  0.00  0.00    +0.000 N 
ATOM      5  C   UNL     1       5.056   5.251  16.999  0.00  0.00    +0.000 A 
ATOM      6  C   UNL     1       5.822   6.247  16.355  0.00  0.00    +0.000 A 
ATOM      7  C   UNL     1       6.481   5.984  15.151  0.00  0.00    +0.000 A 
ATOM      8  C   UNL     1       6.328   4.759  14.543  0.00  0.00    +0.000 A 
ATOM      9  C   UNL     1       5.541   3.773  15.132  0.00  0.00    +0.000 A 
ATOM     10  C   UNL     1       4.906   4.009  16.380  0.00  0.00    +0.000 A 
ENDROOT
BRANCH   3  11
ATOM     11  C   UNL     1       2.902   3.503  19.519  0.00  0.00    +0.000 A 
ATOM     12  C   UNL     1       1.510   3.700  19.519  0.00  0.00    +0.000 A 
ATOM     13  C   UNL     1       0.713   3.331  20.612  0.00  0.00    +0.000 A 
ATOM     14  C   UNL     1       1.292   2.691  21.697  0.00  0.00    +0.000 A 
ATOM     15  F   UNL     1       0.530   2.304  22.727  0.00  0.00    +0.000 F 
ATOM     16  C   UNL     1       2.657   2.465  21.728  0.00  0.00    +0.000 A 
ATOM     17  C   UNL     1       3.455   2.915  20.670  0.00  0.00    +0.000 A 
ENDBRANCH   3  11
BRANCH   8  18
ATOM     18  O   UNL     1       6.926   4.489  13.346  0.00  0.00    +0.000 OA
ATOM     19  H   UNL     1       7.360   5.294  13.035  0.00  0.00    +0.000 HD
ENDBRANCH   8  18
BRANCH   4  20
ATOM     20  C   UNL     1       4.208   6.263  19.228  0.00  0.00    +0.000 C 
BRANCH  20  21
ATOM     21  C   UNL     1       2.974   7.123  19.263  0.00  0.00    +0.000 A 
ATOM     22  C   UNL     1       2.702   7.920  18.144  0.00  0.00    +0.000 A 
ATOM     23  C   UNL     1       1.733   8.901  18.200  0.00  0.00    +0.000 A 
ATOM     24  C   UNL     1       1.016   9.130  19.377  0.00  0.00    +0.000 A 
ATOM     25  C   UNL     1       1.172   8.238  20.445  0.00  0.00    +0.000 A 
ATOM     26  C   UNL     1       2.120   7.203  20.372  0.00  0.00    +0.000 A 
BRANCH  24  27
ATOM     27  O   UNL     1       0.202  10.227  19.592  0.00  0.00    +0.000 OA
BRANCH  27  28
ATOM     28  C   UNL     1       0.242  11.151  18.499  0.00  0.00    +0.000 C 
BRANCH  28  29
ATOM     29  C   UNL     1      -0.651  12.382  18.678  0.00  0.00    +0.000 C 
BRANCH  29  30
ATOM     30  N   UNL     1      -2.011  12.141  18.131  0.00  0.00    +0.000 NA
ATOM     31  C   UNL     1      -2.059  10.946  17.265  0.00  0.00    +0.000 C 
ATOM     32  C   UNL     1      -3.451  10.699  16.688  0.00  0.00    +0.000 C 
ATOM     33  C   UNL     1      -4.489  10.597  17.791  0.00  0.00    +0.000 C 
ATOM     34  C   UNL     1      -4.411  11.824  18.691  0.00  0.00    +0.000 C 
ATOM     35  C   UNL     1      -2.991  12.039  19.222  0.00  0.00    +0.000 C 
ENDBRANCH  29  30
ENDBRANCH  28  29
ENDBRANCH  27  28
ENDBRANCH  24  27
ENDBRANCH  20  21
ENDBRANCH   4  20
TORSDOF 8
ENDMDL
MODEL 8
REMARK VINA RESULT:      -7.6      2.508      3.390
REMARK  Name = 
REMARK  9 active torsions:
REMARK  status: ('A' for Active; 'I' for Inactive)
REMARK    1  A    between atoms: C_1  and  C_2
REMARK    2  A    between atoms: C_3  and  C_4
REMARK    3  A    between atoms: N_11  and  C_12
REMARK    4  A    between atoms: C_12  and  C_13
REMARK    5  A    between atoms: C_16  and  O_17
REMARK    6  A    between atoms: O_17  and  C_18
REMARK    7  A    between atoms: C_18  and  C_19
REMARK    8  A    between atoms: C_19  and  N_20
REMARK    9  A    between atoms: C_31  and  O_32
REMARK                            x       y       z     vdW  Elec       q    Type
REMARK                         _______ _______ _______ _____ _____    ______ ____
ROOT
ATOM      1  C   UNL     1      -4.618  12.697  20.453  0.00  0.00    +0.000 C 
ATOM      2  C   UNL     1      -3.125  12.762  20.459  0.00  0.00    +0.000 A 
ATOM      3  C   UNL     1      -2.202  12.191  19.576  0.00  0.00    +0.000 A 
ATOM      4  N   UNL     1      -0.922  12.553  20.066  0.00  0.00    +0.000 N 
ATOM      5  C   UNL     1      -1.049  13.319  21.223  0.00  0.00    +0.000 A 
ATOM      6  C   UNL     1      -0.122  13.905  22.113  0.00  0.00    +0.000 A 
ATOM      7  C   UNL     1      -0.552  14.688  23.188  0.00  0.00    +0.000 A 
ATOM      8  C   UNL     1      -1.899  14.836  23.430  0.00  0.00    +0.000 A 
ATOM      9  C   UNL     1      -2.835  14.230  22.597  0.00  0.00    +0.000 A 
ATOM     10  C   UNL     1      -2.414  13.473  21.472  0.00  0.00    +0.000 A 
ENDROOT
BRANCH   3  11
ATOM     11  C   UNL     1      -2.475  11.400  18.337  0.00  0.00    +0.000 A 
ATOM     12  C   UNL     1      -2.973  10.088  18.434  0.00  0.00    +0.000 A 
ATOM     13  C   UNL     1      -3.211   9.305  17.296  0.00  0.00    +0.000 A 
ATOM     14  C   UNL     1      -3.019   9.849  16.035  0.00  0.00    +0.000 A 
ATOM     15  F   UNL     1      -3.280   9.118  14.946  0.00  0.00    +0.000 F 
ATOM     16  C   UNL     1      -2.545  11.142  15.899  0.00  0.00    +0.000 A 
ATOM     17  C   UNL     1      -2.229  11.887  17.042  0.00  0.00    +0.000 A 
ENDBRANCH   3  11
BRANCH   8  18
ATOM     18  O   UNL     1      -2.346  15.560  24.497  0.00  0.00    +0.000 OA
ATOM     19  H   UNL     1      -1.647  15.580  25.164  0.00  0.00    +0.000 HD
ENDBRANCH   8  18
BRANCH   4  20
ATOM     20  C   UNL     1       0.319  12.124  19.376  0.00  0.00    +0.000 C 
BRANCH  20  21
ATOM     21  C   UNL     1       0.694  10.667  19.334  0.00  0.00    +0.000 A 
ATOM     22  C   UNL     1       0.611   9.937  20.527  0.00  0.00    +0.000 A 
ATOM     23  C   UNL     1       1.160   8.674  20.617  0.00  0.00    +0.000 A 
ATOM     24  C   UNL     1       1.826   8.106  19.527  0.00  0.00    +0.000 A 
ATOM     25  C   UNL     1       1.776   8.762  18.292  0.00  0.00    +0.000 A 
ATOM     26  C   UNL     1       1.169  10.025  18.182  0.00  0.00    +0.000 A 
BRANCH  24  27
ATOM     27  O   UNL     1       2.596   6.961  19.597  0.00  0.00    +0.000 OA
BRANCH  27  28
ATOM     28  C   UNL     1       2.556   6.208  18.379  0.00  0.00    +0.000 C 
BRANCH  28  29
ATOM     29  C   UNL     1       3.415   4.941  18.390  0.00  0.00    +0.000 C 
BRANCH  29  30
ATOM     30  N   UNL     1       4.816   5.240  17.998  0.00  0.00    +0.000 NA
ATOM     31  C   UNL     1       5.724   5.272  19.162  0.00  0.00    +0.000 C 
ATOM     32  C   UNL     1       7.165   5.592  18.769  0.00  0.00    +0.000 C 
ATOM     33  C   UNL     1       7.676   4.617  17.724  0.00  0.00    +0.000 C 
ATOM     34  C   UNL     1       6.716   4.576  16.541  0.00  0.00    +0.000 C 
ATOM     35  C   UNL     1       5.284   4.275  16.993  0.00  0.00    +0.000 C 
ENDBRANCH  29  30
ENDBRANCH  28  29
ENDBRANCH  27  28
ENDBRANCH  24  27
ENDBRANCH  20  21
ENDBRANCH   4  20
TORSDOF 8
ENDMDL
MODEL 9
REMARK VINA RESULT:      -7.6      1.286      1.881
REMARK  Name = 
REMARK  9 active torsions:
REMARK  status: ('A' for Active; 'I' for Inactive)
REMARK    1  A    between atoms: C_1  and  C_2
REMARK    2  A    between atoms: C_3  and  C_4
REMARK    3  A    between atoms: N_11  and  C_12
REMARK    4  A    between atoms: C_12  and  C_13
REMARK    5  A    between atoms: C_16  and  O_17
REMARK    6  A    between atoms: O_17  and  C_18
REMARK    7  A    between atoms: C_18  and  C_19
REMARK    8  A    between atoms: C_19  and  N_20
REMARK    9  A    between atoms: C_31  and  O_32
REMARK                            x       y       z     vdW  Elec       q    Type
REMARK                         _______ _______ _______ _____ _____    ______ ____
ROOT
ATOM      1  C   UNL     1      -6.683  11.269  19.482  0.00  0.00    +0.000 C 
ATOM      2  C   UNL     1      -5.373  11.833  19.928  0.00  0.00    +0.000 A 
ATOM      3  C   UNL     1      -4.125  11.802  19.296  0.00  0.00    +0.000 A 
ATOM      4  N   UNL     1      -3.229  12.466  20.171  0.00  0.00    +0.000 N 
ATOM      5  C   UNL     1      -3.902  12.889  21.316  0.00  0.00    +0.000 A 
ATOM      6  C   UNL     1      -3.501  13.558  22.493  0.00  0.00    +0.000 A 
ATOM      7  C   UNL     1      -4.432  13.911  23.474  0.00  0.00    +0.000 A 
ATOM      8  C   UNL     1      -5.750  13.542  23.330  0.00  0.00    +0.000 A 
ATOM      9  C   UNL     1      -6.165  12.840  22.201  0.00  0.00    +0.000 A 
ATOM     10  C   UNL     1      -5.240  12.518  21.173  0.00  0.00    +0.000 A 
ENDROOT
BRANCH   3  11
ATOM     11  C   UNL     1      -3.782  11.237  17.954  0.00  0.00    +0.000 A 
ATOM     12  C   UNL     1      -2.917  10.133  17.854  0.00  0.00    +0.000 A 
ATOM     13  C   UNL     1      -2.548   9.597  16.613  0.00  0.00    +0.000 A 
ATOM     14  C   UNL     1      -3.096  10.115  15.450  0.00  0.00    +0.000 A 
ATOM     15  F   UNL     1      -2.775   9.583  14.266  0.00  0.00    +0.000 F 
ATOM     16  C   UNL     1      -3.964  11.192  15.508  0.00  0.00    +0.000 A 
ATOM     17  C   UNL     1      -4.259  11.775  16.746  0.00  0.00    +0.000 A 
ENDBRANCH   3  11
BRANCH   8  18
ATOM     18  O   UNL     1      -6.672  13.836  24.291  0.00  0.00    +0.000 OA
ATOM     19  H   UNL     1      -6.441  14.689  24.682  0.00  0.00    +0.000 HD
ENDBRANCH   8  18
BRANCH   4  20
ATOM     20  C   UNL     1      -1.796  12.633  19.829  0.00  0.00    +0.000 C 
BRANCH  20  21
ATOM     21  C   UNL     1      -0.813  11.537  20.139  0.00  0.00    +0.000 A 
ATOM     22  C   UNL     1       0.055  11.131  19.117  0.00  0.00    +0.000 A 
ATOM     23  C   UNL     1       0.810   9.984  19.252  0.00  0.00    +0.000 A 
ATOM     24  C   UNL     1       0.711   9.195  20.402  0.00  0.00    +0.000 A 
ATOM     25  C   UNL     1      -0.032   9.676  21.486  0.00  0.00    +0.000 A 
ATOM     26  C   UNL     1      -0.760  10.873  21.373  0.00  0.00    +0.000 A 
BRANCH  24  27
ATOM     27  O   UNL     1       1.247   7.927  20.524  0.00  0.00    +0.000 OA
BRANCH  27  28
ATOM     28  C   UNL     1       2.439   7.767  19.745  0.00  0.00    +0.000 C 
BRANCH  28  29
ATOM     29  C   UNL     1       2.232   7.040  18.414  0.00  0.00    +0.000 C 
BRANCH  29  30
ATOM     30  N   UNL     1       3.371   6.134  18.117  0.00  0.00    +0.000 NA
ATOM     31  C   UNL     1       2.919   4.794  17.693  0.00  0.00    +0.000 C 
ATOM     32  C   UNL     1       4.083   3.851  17.398  0.00  0.00    +0.000 C 
ATOM     33  C   UNL     1       5.020   4.447  16.362  0.00  0.00    +0.000 C 
ATOM     34  C   UNL     1       5.458   5.839  16.800  0.00  0.00    +0.000 C 
ATOM     35  C   UNL     1       4.253   6.734  17.105  0.00  0.00    +0.000 C 
ENDBRANCH  29  30
ENDBRANCH  28  29
ENDBRANCH  27  28
ENDBRANCH  24  27
ENDBRANCH  20  21
ENDBRANCH   4  20
TORSDOF 8
ENDMDL
