MODEL 1
REMARK VINA RESULT:      -7.3      0.000      0.000
REMARK  Name = 
REMARK  14 active torsions:
REMARK  status: ('A' for Active; 'I' for Inactive)
REMARK    1  A    between atoms: C_1  and  N_2
REMARK    2  A    between atoms: N_2  and  S_3
REMARK    3  A    between atoms: S_3  and  C_6
REMARK    4  A    between atoms: C_9  and  N_10
REMARK    5  A    between atoms: N_10  and  C_11
REMARK    6  A    between atoms: N_10  and  C_12
REMARK    7  A    between atoms: C_13  and  N_14
REMARK    8  A    between atoms: N_14  and  C_15
REMARK    9  A    between atoms: C_21  and  O_22
REMARK   10  A    between atoms: O_22  and  C_23
REMARK   11  A    between atoms: C_23  and  C_24
REMARK   12  A    between atoms: C_24  and  C_25
REMARK   13  A    between atoms: C_25  and  O_26
REMARK   14  A    between atoms: O_26  and  C_27
REMARK                            x       y       z     vdW  Elec       q    Type
REMARK                         _______ _______ _______ _____ _____    ______ ____
ROOT
ATOM      1  N   UNL     1       2.748   7.125  19.860  0.00  0.00    +0.000 N 
ATOM      2  H   UNL     1       3.409   7.887  20.008  0.00  0.00    +0.000 HD
ENDROOT
BRANCH   1   3
ATOM      3  C   UNL     1       1.572   7.798  19.321  0.00  0.00    +0.000 A 
ATOM      4  N   UNL     1       1.753   8.270  18.074  0.00  0.00    +0.000 NA
ATOM      5  C   UNL     1       1.627   9.598  17.931  0.00  0.00    +0.000 A 
ATOM      6  N   UNL     1       1.458  10.480  18.923  0.00  0.00    +0.000 NA
ATOM      7  C   UNL     1       1.052   9.981  20.093  0.00  0.00    +0.000 A 
ATOM      8  C   UNL     1       0.707  10.852  21.122  0.00  0.00    +0.000 A 
ATOM      9  C   UNL     1      -0.047  10.446  22.226  0.00  0.00    +0.000 A 
ATOM     10  C   UNL     1      -0.487   9.130  22.269  0.00  0.00    +0.000 A 
ATOM     11  C   UNL     1       0.019   8.203  21.331  0.00  0.00    +0.000 A 
ATOM     12  C   UNL     1       0.887   8.613  20.277  0.00  0.00    +0.000 A 
BRANCH   9  13
ATOM     13  O   UNL     1      -0.464  11.463  23.034  0.00  0.00    +0.000 OA
BRANCH  13  14
ATOM     14  C   UNL     1      -0.653  12.789  22.511  0.00  0.00    +0.000 C 
BRANCH  14  15
ATOM     15  C   UNL     1      -1.968  13.287  23.127  0.00  0.00    +0.000 C 
BRANCH  15  16
ATOM     16  C   UNL     1      -3.203  12.431  22.870  0.00  0.00    +0.000 C 
BRANCH  16  17
ATOM     17  O   UNL     1      -3.618  11.764  24.059  0.00  0.00    +0.000 OA
ATOM     18  C   UNL     1      -4.708  12.440  24.684  0.00  0.00    +0.000 C 
ENDBRANCH  16  17
ENDBRANCH  15  16
ENDBRANCH  14  15
ENDBRANCH  13  14
ENDBRANCH   9  13
ENDBRANCH   1   3
BRANCH   1  23
ATOM     19  C   UNL     1       4.977   5.198  17.586  0.00  0.00    +0.000 A 
ATOM     20  C   UNL     1       4.590   3.885  17.832  0.00  0.00    +0.000 A 
ATOM     21  C   UNL     1       3.702   3.619  18.866  0.00  0.00    +0.000 A 
ATOM     22  C   UNL     1       3.095   4.644  19.632  0.00  0.00    +0.000 A 
ATOM     23  C   UNL     1       3.522   6.010  19.378  0.00  0.00    +0.000 A 
ATOM     24  C   UNL     1       4.486   6.253  18.373  0.00  0.00    +0.000 A 
BRANCH  19  25
ATOM     25  S   UNL     1       5.935   5.482  16.111  0.00  0.00    +0.000 S 
ATOM     26  O   UNL     1       7.328   5.248  16.430  0.00  0.00    +0.000 OA
ATOM     27  O   UNL     1       5.468   6.735  15.511  0.00  0.00    +0.000 OA
BRANCH  25  29
ATOM     28  C   UNL     1       6.202   3.932  13.911  0.00  0.00    +0.000 C 
ATOM     29  N   UNL     1       5.412   4.236  15.104  0.00  0.00    +0.000 NA
ATOM     30  H   UNL     1       5.039   3.440  15.626  0.00  0.00    +0.000 HD
ENDBRANCH  25  29
ENDBRANCH  19  25
BRANCH  22  31
ATOM     31  N   UNL     1       2.026   4.300  20.496  0.00  0.00    +0.000 N 
ATOM     32  C   UNL     1       0.756   3.840  19.890  0.00  0.00    +0.000 C 
ATOM     33  C   UNL     1       2.327   3.572  21.732  0.00  0.00    +0.000 C 
ENDBRANCH  22  31
ENDBRANCH   1  23
TORSDOF 10
ENDMDL
MODEL 2
REMARK VINA RESULT:      -7.3      1.199      1.674
REMARK  Name = 
REMARK  14 active torsions:
REMARK  status: ('A' for Active; 'I' for Inactive)
REMARK    1  A    between atoms: C_1  and  N_2
REMARK    2  A    between atoms: N_2  and  S_3
REMARK    3  A    between atoms: S_3  and  C_6
REMARK    4  A    between atoms: C_9  and  N_10
REMARK    5  A    between atoms: N_10  and  C_11
REMARK    6  A    between atoms: N_10  and  C_12
REMARK    7  A    between atoms: C_13  and  N_14
REMARK    8  A    between atoms: N_14  and  C_15
REMARK    9  A    between atoms: C_21  and  O_22
REMARK   10  A    between atoms: O_22  and  C_23
REMARK   11  A    between atoms: C_23  and  C_24
REMARK   12  A    between atoms: C_24  and  C_25
REMARK   13  A    between atoms: C_25  and  O_26
REMARK   14  A    between atoms: O_26  and  C_27
REMARK                            x       y       z     vdW  Elec       q    Type
REMARK                         _______ _______ _______ _____ _____    ______ ____
ROOT
ATOM      1  N   UNL     1       3.097   6.804  19.812  0.00  0.00    +0.000 N 
ATOM      2  H   UNL     1       3.778   7.562  19.833  0.00  0.00    +0.000 HD
ENDROOT
BRANCH   1   3
ATOM      3  C   UNL     1       1.906   7.434  19.254  0.00  0.00    +0.000 A 
ATOM      4  N   UNL     1       2.074   7.869  17.992  0.00  0.00    +0.000 NA
ATOM      5  C   UNL     1       1.921   9.188  17.805  0.00  0.00    +0.000 A 
ATOM      6  N   UNL     1       1.736  10.099  18.767  0.00  0.00    +0.000 NA
ATOM      7  C   UNL     1       1.344   9.631  19.955  0.00  0.00    +0.000 A 
ATOM      8  C   UNL     1       0.984  10.528  20.955  0.00  0.00    +0.000 A 
ATOM      9  C   UNL     1       0.240  10.143  22.075  0.00  0.00    +0.000 A 
ATOM     10  C   UNL     1      -0.171   8.821  22.163  0.00  0.00    +0.000 A 
ATOM     11  C   UNL     1       0.350   7.874  21.255  0.00  0.00    +0.000 A 
ATOM     12  C   UNL     1       1.207   8.267  20.185  0.00  0.00    +0.000 A 
BRANCH   9  13
ATOM     13  O   UNL     1      -0.194  11.178  22.851  0.00  0.00    +0.000 OA
BRANCH  13  14
ATOM     14  C   UNL     1      -0.628  12.413  22.255  0.00  0.00    +0.000 C 
BRANCH  14  15
ATOM     15  C   UNL     1      -2.143  12.262  22.059  0.00  0.00    +0.000 C 
BRANCH  15  16
ATOM     16  C   UNL     1      -2.679  12.562  20.663  0.00  0.00    +0.000 C 
BRANCH  16  17
ATOM     17  O   UNL     1      -1.611  12.747  19.736  0.00  0.00    +0.000 OA
ATOM     18  C   UNL     1      -1.800  11.961  18.560  0.00  0.00    +0.000 C 
ENDBRANCH  16  17
ENDBRANCH  15  16
ENDBRANCH  14  15
ENDBRANCH  13  14
ENDBRANCH   9  13
ENDBRANCH   1   3
BRANCH   1  23
ATOM     19  C   UNL     1       5.429   4.672  17.844  0.00  0.00    +0.000 A 
ATOM     20  C   UNL     1       4.897   3.401  18.027  0.00  0.00    +0.000 A 
ATOM     21  C   UNL     1       3.858   3.221  18.931  0.00  0.00    +0.000 A 
ATOM     22  C   UNL     1       3.248   4.300  19.616  0.00  0.00    +0.000 A 
ATOM     23  C   UNL     1       3.826   5.621  19.431  0.00  0.00    +0.000 A 
ATOM     24  C   UNL     1       4.934   5.771  18.565  0.00  0.00    +0.000 A 
BRANCH  19  25
ATOM     25  S   UNL     1       6.598   4.860  16.512  0.00  0.00    +0.000 S 
ATOM     26  O   UNL     1       7.905   4.482  17.007  0.00  0.00    +0.000 OA
ATOM     27  O   UNL     1       6.344   6.157  15.878  0.00  0.00    +0.000 OA
BRANCH  25  29
ATOM     28  C   UNL     1       6.096   4.003  13.997  0.00  0.00    +0.000 C 
ATOM     29  N   UNL     1       6.088   3.680  15.424  0.00  0.00    +0.000 NA
ATOM     30  H   UNL     1       6.400   2.742  15.687  0.00  0.00    +0.000 HD
ENDBRANCH  25  29
ENDBRANCH  19  25
BRANCH  22  31
ATOM     31  N   UNL     1       2.046   4.059  20.326  0.00  0.00    +0.000 N 
ATOM     32  C   UNL     1       0.897   3.492  19.586  0.00  0.00    +0.000 C 
ATOM     33  C   UNL     1       2.130   3.518  21.686  0.00  0.00    +0.000 C 
ENDBRANCH  22  31
ENDBRANCH   1  23
TORSDOF 10
ENDMDL
MODEL 3
REMARK VINA RESULT:      -7.2      1.060      1.402
REMARK  Name = 
REMARK  14 active torsions:
REMARK  status: ('A' for Active; 'I' for Inactive)
REMARK    1  A    between atoms: C_1  and  N_2
REMARK    2  A    between atoms: N_2  and  S_3
REMARK    3  A    between atoms: S_3  and  C_6
REMARK    4  A    between atoms: C_9  and  N_10
REMARK    5  A    between atoms: N_10  and  C_11
REMARK    6  A    between atoms: N_10  and  C_12
REMARK    7  A    between atoms: C_13  and  N_14
REMARK    8  A    between atoms: N_14  and  C_15
REMARK    9  A    between atoms: C_21  and  O_22
REMARK   10  A    between atoms: O_22  and  C_23
REMARK   11  A    between atoms: C_23  and  C_24
REMARK   12  A    between atoms: C_24  and  C_25
REMARK   13  A    between atoms: C_25  and  O_26
REMARK   14  A    between atoms: O_26  and  C_27
REMARK                            x       y       z     vdW  Elec       q    Type
REMARK                         _______ _______ _______ _____ _____    ______ ____
ROOT
ATOM      1  N   UNL     1       2.838   7.005  20.000  0.00  0.00    +0.000 N 
ATOM      2  H   UNL     1       3.454   7.795  20.192  0.00  0.00    +0.000 HD
ENDROOT
BRANCH   1   3
ATOM      3  C   UNL     1       1.650   7.633  19.434  0.00  0.00    +0.000 A 
ATOM      4  N   UNL     1       1.820   8.049  18.165  0.00  0.00    +0.000 NA
ATOM      5  C   UNL     1       1.672   9.366  17.960  0.00  0.00    +0.000 A 
ATOM      6  N   UNL     1       1.492  10.292  18.910  0.00  0.00    +0.000 NA
ATOM      7  C   UNL     1       1.098   9.842  20.104  0.00  0.00    +0.000 A 
ATOM      8  C   UNL     1       0.742  10.755  21.091  0.00  0.00    +0.000 A 
ATOM      9  C   UNL     1      -0.002  10.390  22.217  0.00  0.00    +0.000 A 
ATOM     10  C   UNL     1      -0.420   9.071  22.324  0.00  0.00    +0.000 A 
ATOM     11  C   UNL     1       0.097   8.108  21.429  0.00  0.00    +0.000 A 
ATOM     12  C   UNL     1       0.955   8.482  20.353  0.00  0.00    +0.000 A 
BRANCH   9  13
ATOM     13  O   UNL     1      -0.432  11.438  22.978  0.00  0.00    +0.000 OA
BRANCH  13  14
ATOM     14  C   UNL     1      -0.672  12.727  22.387  0.00  0.00    +0.000 C 
BRANCH  14  15
ATOM     15  C   UNL     1      -1.927  13.269  23.084  0.00  0.00    +0.000 C 
BRANCH  15  16
ATOM     16  C   UNL     1      -3.217  12.487  22.860  0.00  0.00    +0.000 C 
BRANCH  16  17
ATOM     17  O   UNL     1      -3.641  11.847  24.061  0.00  0.00    +0.000 OA
ATOM     18  C   UNL     1      -4.786  12.491  24.619  0.00  0.00    +0.000 C 
ENDBRANCH  16  17
ENDBRANCH  15  16
ENDBRANCH  14  15
ENDBRANCH  13  14
ENDBRANCH   9  13
ENDBRANCH   1   3
BRANCH   1  23
ATOM     19  C   UNL     1       5.303   5.281  17.807  0.00  0.00    +0.000 A 
ATOM     20  C   UNL     1       4.943   3.946  17.946  0.00  0.00    +0.000 A 
ATOM     21  C   UNL     1       3.985   3.594  18.889  0.00  0.00    +0.000 A 
ATOM     22  C   UNL     1       3.285   4.553  19.661  0.00  0.00    +0.000 A 
ATOM     23  C   UNL     1       3.685   5.944  19.520  0.00  0.00    +0.000 A 
ATOM     24  C   UNL     1       4.717   6.273  18.611  0.00  0.00    +0.000 A 
BRANCH  19  25
ATOM     25  S   UNL     1       6.364   5.680  16.432  0.00  0.00    +0.000 S 
ATOM     26  O   UNL     1       5.525   6.011  15.300  0.00  0.00    +0.000 OA
ATOM     27  O   UNL     1       7.406   4.651  16.362  0.00  0.00    +0.000 OA
BRANCH  25  29
ATOM     28  C   UNL     1       7.901   7.040  18.193  0.00  0.00    +0.000 C 
ATOM     29  N   UNL     1       7.112   7.093  16.961  0.00  0.00    +0.000 NA
ATOM     30  H   UNL     1       7.496   7.647  16.192  0.00  0.00    +0.000 HD
ENDBRANCH  25  29
ENDBRANCH  19  25
BRANCH  22  31
ATOM     31  N   UNL     1       2.164   4.128  20.415  0.00  0.00    +0.000 N 
ATOM     32  C   UNL     1       0.935   3.746  19.686  0.00  0.00    +0.000 C 
ATOM     33  C   UNL     1       2.386   3.270  21.583  0.00  0.00    +0.000 C 
ENDBRANCH  22  31
ENDBRANCH   1  23
TORSDOF 10
ENDMDL
MODEL 4
REMARK VINA RESULT:      -7.2      1.436      1.965
REMARK  Name = 
REMARK  14 active torsions:
REMARK  status: ('A' for Active; 'I' for Inactive)
REMARK    1  A    between atoms: C_1  and  N_2
REMARK    2  A    between atoms: N_2  and  S_3
REMARK    3  A    between atoms: S_3  and  C_6
REMARK    4  A    between atoms: C_9  and  N_10
REMARK    5  A    between atoms: N_10  and  C_11
REMARK    6  A    between atoms: N_10  and  C_12
REMARK    7  A    between atoms: C_13  and  N_14
REMARK    8  A    between atoms: N_14  and  C_15
REMARK    9  A    between atoms: C_21  and  O_22
REMARK   10  A    between atoms: O_22  and  C_23
REMARK   11  A    between atoms: C_23  and  C_24
REMARK   12  A    between atoms: C_24  and  C_25
REMARK   13  A    between atoms: C_25  and  O_26
REMARK   14  A    between atoms: O_26  and  C_27
REMARK                            x       y       z     vdW  Elec       q    Type
REMARK                         _______ _______ _______ _____ _____    ______ ____
ROOT
ATOM      1  N   UNL     1       2.830   6.839  20.020  0.00  0.00    +0.000 N 
ATOM      2  H   UNL     1       3.484   7.604  20.187  0.00  0.00    +0.000 HD
ENDROOT
BRANCH   1   3
ATOM      3  C   UNL     1       1.667   7.508  19.449  0.00  0.00    +0.000 A 
ATOM      4  N   UNL     1       1.864   7.937  18.189  0.00  0.00    +0.000 NA
ATOM      5  C   UNL     1       1.754   9.260  18.002  0.00  0.00    +0.000 A 
ATOM      6  N   UNL     1       1.588  10.177  18.963  0.00  0.00    +0.000 NA
ATOM      7  C   UNL     1       1.167   9.721  20.146  0.00  0.00    +0.000 A 
ATOM      8  C   UNL     1       0.824  10.629  21.142  0.00  0.00    +0.000 A 
ATOM      9  C   UNL     1       0.055  10.267  22.253  0.00  0.00    +0.000 A 
ATOM     10  C   UNL     1      -0.400   8.959  22.335  0.00  0.00    +0.000 A 
ATOM     11  C   UNL     1       0.102   7.996  21.432  0.00  0.00    +0.000 A 
ATOM     12  C   UNL     1       0.984   8.362  20.373  0.00  0.00    +0.000 A 
BRANCH   9  13
ATOM     13  O   UNL     1      -0.355  11.315  23.024  0.00  0.00    +0.000 OA
BRANCH  13  14
ATOM     14  C   UNL     1      -1.739  11.703  23.062  0.00  0.00    +0.000 C 
BRANCH  14  15
ATOM     15  C   UNL     1      -1.769  13.157  22.569  0.00  0.00    +0.000 C 
BRANCH  15  16
ATOM     16  C   UNL     1      -1.787  13.359  21.057  0.00  0.00    +0.000 C 
BRANCH  16  17
ATOM     17  O   UNL     1      -2.459  12.283  20.407  0.00  0.00    +0.000 OA
ATOM     18  C   UNL     1      -1.923  12.042  19.107  0.00  0.00    +0.000 C 
ENDBRANCH  16  17
ENDBRANCH  15  16
ENDBRANCH  14  15
ENDBRANCH  13  14
ENDBRANCH   9  13
ENDBRANCH   1   3
BRANCH   1  23
ATOM     19  C   UNL     1       5.252   4.975  17.895  0.00  0.00    +0.000 A 
ATOM     20  C   UNL     1       4.802   3.665  18.009  0.00  0.00    +0.000 A 
ATOM     21  C   UNL     1       3.791   3.368  18.915  0.00  0.00    +0.000 A 
ATOM     22  C   UNL     1       3.129   4.365  19.672  0.00  0.00    +0.000 A 
ATOM     23  C   UNL     1       3.623   5.728  19.559  0.00  0.00    +0.000 A 
ATOM     24  C   UNL     1       4.704   5.997  18.688  0.00  0.00    +0.000 A 
BRANCH  19  25
ATOM     25  S   UNL     1       6.383   5.313  16.561  0.00  0.00    +0.000 S 
ATOM     26  O   UNL     1       5.713   5.004  15.315  0.00  0.00    +0.000 OA
ATOM     27  O   UNL     1       7.681   4.731  16.919  0.00  0.00    +0.000 OA
BRANCH  25  29
ATOM     28  C   UNL     1       7.645   7.521  17.482  0.00  0.00    +0.000 C 
ATOM     29  N   UNL     1       6.558   6.986  16.661  0.00  0.00    +0.000 NA
ATOM     30  H   UNL     1       6.379   7.454  15.770  0.00  0.00    +0.000 HD
ENDBRANCH  25  29
ENDBRANCH  19  25
BRANCH  22  31
ATOM     31  N   UNL     1       1.958   4.009  20.384  0.00  0.00    +0.000 N 
ATOM     32  C   UNL     1       0.837   3.405  19.630  0.00  0.00    +0.000 C 
ATOM     33  C   UNL     1       2.098   3.407  21.713  0.00  0.00    +0.000 C 
ENDBRANCH  22  31
ENDBRANCH   1  23
TORSDOF 10
ENDMDL
MODEL 5
REMARK VINA RESULT:      -7.1      0.987      1.527
REMARK  Name = 
REMARK  14 active torsions:
REMARK  status: ('A' for Active; 'I' for Inactive)
REMARK    1  A    between atoms: C_1  and  N_2
REMARK    2  A    between atoms: N_2  and  S_3
REMARK    3  A    between atoms: S_3  and  C_6
REMARK    4  A    between atoms: C_9  and  N_10
REMARK    5  A    between atoms: N_10  and  C_11
REMARK    6  A    between atoms: N_10  and  C_12
REMARK    7  A    between atoms: C_13  and  N_14
REMARK    8  A    between atoms: N_14  and  C_15
REMARK    9  A    between atoms: C_21  and  O_22
REMARK   10  A    between atoms: O_22  and  C_23
REMARK   11  A    between atoms: C_23  and  C_24
REMARK   12  A    between atoms: C_24  and  C_25
REMARK   13  A    between atoms: C_25  and  O_26
REMARK   14  A    between atoms: O_26  and  C_27
REMARK                            x       y       z     vdW  Elec       q    Type
REMARK                         _______ _______ _______ _____ _____    ______ ____
ROOT
ATOM      1  N   UNL     1       2.817   7.076  19.824  0.00  0.00    +0.000 N 
ATOM      2  H   UNL     1       3.477   7.840  19.964  0.00  0.00    +0.000 HD
ENDROOT
BRANCH   1   3
ATOM      3  C   UNL     1       1.627   7.746  19.312  0.00  0.00    +0.000 A 
ATOM      4  N   UNL     1       1.788   8.246  18.073  0.00  0.00    +0.000 NA
ATOM      5  C   UNL     1       1.646   9.575  17.959  0.00  0.00    +0.000 A 
ATOM      6  N   UNL     1       1.478  10.435  18.970  0.00  0.00    +0.000 NA
ATOM      7  C   UNL     1       1.092   9.907  20.135  0.00  0.00    +0.000 A 
ATOM      8  C   UNL     1       0.749  10.753  21.185  0.00  0.00    +0.000 A 
ATOM      9  C   UNL     1       0.012  10.316  22.290  0.00  0.00    +0.000 A 
ATOM     10  C   UNL     1      -0.412   8.995  22.311  0.00  0.00    +0.000 A 
ATOM     11  C   UNL     1       0.093   8.092  21.348  0.00  0.00    +0.000 A 
ATOM     12  C   UNL     1       0.944   8.534  20.293  0.00  0.00    +0.000 A 
BRANCH   9  13
ATOM     13  O   UNL     1      -0.406  11.312  23.123  0.00  0.00    +0.000 OA
BRANCH  13  14
ATOM     14  C   UNL     1      -1.689  11.935  22.940  0.00  0.00    +0.000 C 
BRANCH  14  15
ATOM     15  C   UNL     1      -1.390  13.425  22.719  0.00  0.00    +0.000 C 
BRANCH  15  16
ATOM     16  C   UNL     1      -1.429  14.313  23.958  0.00  0.00    +0.000 C 
BRANCH  16  17
ATOM     17  O   UNL     1      -0.312  15.199  23.986  0.00  0.00    +0.000 OA
ATOM     18  C   UNL     1       0.059  15.612  22.671  0.00  0.00    +0.000 C 
ENDBRANCH  16  17
ENDBRANCH  15  16
ENDBRANCH  14  15
ENDBRANCH  13  14
ENDBRANCH   9  13
ENDBRANCH   1   3
BRANCH   1  23
ATOM     19  C   UNL     1       5.112   5.216  17.560  0.00  0.00    +0.000 A 
ATOM     20  C   UNL     1       4.681   3.903  17.712  0.00  0.00    +0.000 A 
ATOM     21  C   UNL     1       3.734   3.605  18.684  0.00  0.00    +0.000 A 
ATOM     22  C   UNL     1       3.114   4.602  19.475  0.00  0.00    +0.000 A 
ATOM     23  C   UNL     1       3.587   5.968  19.320  0.00  0.00    +0.000 A 
ATOM     24  C   UNL     1       4.607   6.239  18.379  0.00  0.00    +0.000 A 
BRANCH  19  25
ATOM     25  S   UNL     1       6.151   5.553  16.152  0.00  0.00    +0.000 S 
ATOM     26  O   UNL     1       7.456   5.946  16.643  0.00  0.00    +0.000 OA
ATOM     27  O   UNL     1       5.382   6.383  15.220  0.00  0.00    +0.000 OA
BRANCH  25  29
ATOM     28  C   UNL     1       6.157   3.928  13.992  0.00  0.00    +0.000 C 
ATOM     29  N   UNL     1       6.293   4.031  15.445  0.00  0.00    +0.000 NA
ATOM     30  H   UNL     1       7.020   3.461  15.882  0.00  0.00    +0.000 HD
ENDBRANCH  25  29
ENDBRANCH  19  25
BRANCH  22  31
ATOM     31  N   UNL     1       1.994   4.242  20.265  0.00  0.00    +0.000 N 
ATOM     32  C   UNL     1       0.850   3.583  19.596  0.00  0.00    +0.000 C 
ATOM     33  C   UNL     1       2.225   3.691  21.603  0.00  0.00    +0.000 C 
ENDBRANCH  22  31
ENDBRANCH   1  23
TORSDOF 10
ENDMDL
MODEL 6
REMARK VINA RESULT:      -7.1      1.592      2.073
REMARK  Name = 
REMARK  14 active torsions:
REMARK  status: ('A' for Active; 'I' for Inactive)
REMARK    1  A    between atoms: C_1  and  N_2
REMARK    2  A    between atoms: N_2  and  S_3
REMARK    3  A    between atoms: S_3  and  C_6
REMARK    4  A    between atoms: C_9  and  N_10
REMARK    5  A    between atoms: N_10  and  C_11
REMARK    6  A    between atoms: N_10  and  C_12
REMARK    7  A    between atoms: C_13  and  N_14
REMARK    8  A    between atoms: N_14  and  C_15
REMARK    9  A    between atoms: C_21  and  O_22
REMARK   10  A    between atoms: O_22  and  C_23
REMARK   11  A    between atoms: C_23  and  C_24
REMARK   12  A    between atoms: C_24  and  C_25
REMARK   13  A    between atoms: C_25  and  O_26
REMARK   14  A    between atoms: O_26  and  C_27
REMARK                            x       y       z     vdW  Elec       q    Type
REMARK                         _______ _______ _______ _____ _____    ______ ____
ROOT
ATOM      1  N   UNL     1       2.884   6.821  19.972  0.00  0.00    +0.000 N 
ATOM      2  H   UNL     1       3.526   7.591  20.158  0.00  0.00    +0.000 HD
ENDROOT
BRANCH   1   3
ATOM      3  C   UNL     1       1.719   7.483  19.397  0.00  0.00    +0.000 A 
ATOM      4  N   UNL     1       1.920   7.921  18.140  0.00  0.00    +0.000 NA
ATOM      5  C   UNL     1       1.802   9.244  17.959  0.00  0.00    +0.000 A 
ATOM      6  N   UNL     1       1.621  10.154  18.924  0.00  0.00    +0.000 NA
ATOM      7  C   UNL     1       1.197   9.689  20.101  0.00  0.00    +0.000 A 
ATOM      8  C   UNL     1       0.840  10.589  21.100  0.00  0.00    +0.000 A 
ATOM      9  C   UNL     1       0.067  10.215  22.204  0.00  0.00    +0.000 A 
ATOM     10  C   UNL     1      -0.378   8.903  22.276  0.00  0.00    +0.000 A 
ATOM     11  C   UNL     1       0.138   7.948  21.372  0.00  0.00    +0.000 A 
ATOM     12  C   UNL     1       1.023   8.327  20.320  0.00  0.00    +0.000 A 
BRANCH   9  13
ATOM     13  O   UNL     1      -0.357  11.256  22.978  0.00  0.00    +0.000 OA
BRANCH  13  14
ATOM     14  C   UNL     1      -1.756  11.567  23.090  0.00  0.00    +0.000 C 
BRANCH  14  15
ATOM     15  C   UNL     1      -1.889  13.026  22.632  0.00  0.00    +0.000 C 
BRANCH  15  16
ATOM     16  C   UNL     1      -0.613  13.861  22.656  0.00  0.00    +0.000 C 
BRANCH  16  17
ATOM     17  O   UNL     1      -0.587  14.720  23.794  0.00  0.00    +0.000 OA
ATOM     18  C   UNL     1      -1.442  15.849  23.615  0.00  0.00    +0.000 C 
ENDBRANCH  16  17
ENDBRANCH  15  16
ENDBRANCH  14  15
ENDBRANCH  13  14
ENDBRANCH   9  13
ENDBRANCH   1   3
BRANCH   1  23
ATOM     19  C   UNL     1       5.618   5.096  18.127  0.00  0.00    +0.000 A 
ATOM     20  C   UNL     1       5.079   3.834  17.907  0.00  0.00    +0.000 A 
ATOM     21  C   UNL     1       3.871   3.495  18.505  0.00  0.00    +0.000 A 
ATOM     22  C   UNL     1       3.111   4.418  19.264  0.00  0.00    +0.000 A 
ATOM     23  C   UNL     1       3.696   5.727  19.504  0.00  0.00    +0.000 A 
ATOM     24  C   UNL     1       4.962   6.026  18.951  0.00  0.00    +0.000 A 
BRANCH  19  25
ATOM     25  S   UNL     1       7.044   5.533  17.152  0.00  0.00    +0.000 S 
ATOM     26  O   UNL     1       6.578   6.138  15.923  0.00  0.00    +0.000 OA
ATOM     27  O   UNL     1       7.959   4.387  17.165  0.00  0.00    +0.000 OA
BRANCH  25  29
ATOM     28  C   UNL     1       7.745   8.108  17.585  0.00  0.00    +0.000 C 
ATOM     29  N   UNL     1       7.759   6.735  18.091  0.00  0.00    +0.000 NA
ATOM     30  H   UNL     1       7.584   6.610  19.090  0.00  0.00    +0.000 HD
ENDBRANCH  25  29
ENDBRANCH  19  25
BRANCH  22  31
ATOM     31  N   UNL     1       1.789   4.066  19.630  0.00  0.00    +0.000 N 
ATOM     32  C   UNL     1       1.005   3.226  18.697  0.00  0.00    +0.000 C 
ATOM     33  C   UNL     1       1.514   3.719  21.028  0.00  0.00    +0.000 C 
ENDBRANCH  22  31
ENDBRANCH   1  23
TORSDOF 10
ENDMDL
MODEL 7
REMARK VINA RESULT:      -7.1      1.366      1.866
REMARK  Name = 
REMARK  14 active torsions:
REMARK  status: ('A' for Active; 'I' for Inactive)
REMARK    1  A    between atoms: C_1  and  N_2
REMARK    2  A    between atoms: N_2  and  S_3
REMARK    3  A    between atoms: S_3  and  C_6
REMARK    4  A    between atoms: C_9  and  N_10
REMARK    5  A    between atoms: N_10  and  C_11
REMARK    6  A    between atoms: N_10  and  C_12
REMARK    7  A    between atoms: C_13  and  N_14
REMARK    8  A    between atoms: N_14  and  C_15
REMARK    9  A    between atoms: C_21  and  O_22
REMARK   10  A    between atoms: O_22  and  C_23
REMARK   11  A    between atoms: C_23  and  C_24
REMARK   12  A    between atoms: C_24  and  C_25
REMARK   13  A    between atoms: C_25  and  O_26
REMARK   14  A    between atoms: O_26  and  C_27
REMARK                            x       y       z     vdW  Elec       q    Type
REMARK                         _______ _______ _______ _____ _____    ______ ____
ROOT
ATOM      1  N   UNL     1       2.794   7.030  19.739  0.00  0.00    +0.000 N 
ATOM      2  H   UNL     1       3.489   7.766  19.865  0.00  0.00    +0.000 HD
ENDROOT
BRANCH   1   3
ATOM      3  C   UNL     1       1.633   7.745  19.223  0.00  0.00    +0.000 A 
ATOM      4  N   UNL     1       1.824   8.254  17.992  0.00  0.00    +0.000 NA
ATOM      5  C   UNL     1       1.726   9.588  17.893  0.00  0.00    +0.000 A 
ATOM      6  N   UNL     1       1.575  10.440  18.913  0.00  0.00    +0.000 NA
ATOM      7  C   UNL     1       1.159   9.912  20.067  0.00  0.00    +0.000 A 
ATOM      8  C   UNL     1       0.832  10.755  21.124  0.00  0.00    +0.000 A 
ATOM      9  C   UNL     1       0.069  10.328  22.214  0.00  0.00    +0.000 A 
ATOM     10  C   UNL     1      -0.398   9.021  22.214  0.00  0.00    +0.000 A 
ATOM     11  C   UNL     1       0.088   8.115  21.246  0.00  0.00    +0.000 A 
ATOM     12  C   UNL     1       0.965   8.542  20.206  0.00  0.00    +0.000 A 
BRANCH   9  13
ATOM     13  O   UNL     1      -0.326  11.327  23.056  0.00  0.00    +0.000 OA
BRANCH  13  14
ATOM     14  C   UNL     1      -1.683  11.804  23.046  0.00  0.00    +0.000 C 
BRANCH  14  15
ATOM     15  C   UNL     1      -1.586  13.312  23.318  0.00  0.00    +0.000 C 
BRANCH  15  16
ATOM     16  C   UNL     1      -0.953  14.159  22.219  0.00  0.00    +0.000 C 
BRANCH  16  17
ATOM     17  O   UNL     1      -1.702  14.067  21.009  0.00  0.00    +0.000 OA
ATOM     18  C   UNL     1      -0.855  13.801  19.891  0.00  0.00    +0.000 C 
ENDBRANCH  16  17
ENDBRANCH  15  16
ENDBRANCH  14  15
ENDBRANCH  13  14
ENDBRANCH   9  13
ENDBRANCH   1   3
BRANCH   1  23
ATOM     19  C   UNL     1       4.878   4.995  17.420  0.00  0.00    +0.000 A 
ATOM     20  C   UNL     1       4.454   3.701  17.696  0.00  0.00    +0.000 A 
ATOM     21  C   UNL     1       3.591   3.480  18.762  0.00  0.00    +0.000 A 
ATOM     22  C   UNL     1       3.046   4.535  19.534  0.00  0.00    +0.000 A 
ATOM     23  C   UNL     1       3.513   5.882  19.248  0.00  0.00    +0.000 A 
ATOM     24  C   UNL     1       4.451   6.077  18.208  0.00  0.00    +0.000 A 
BRANCH  19  25
ATOM     25  S   UNL     1       5.797   5.226  15.911  0.00  0.00    +0.000 S 
ATOM     26  O   UNL     1       5.399   6.493  15.333  0.00  0.00    +0.000 OA
ATOM     27  O   UNL     1       5.741   3.969  15.159  0.00  0.00    +0.000 OA
BRANCH  25  29
ATOM     28  C   UNL     1       7.769   4.603  17.653  0.00  0.00    +0.000 C 
ATOM     29  N   UNL     1       7.375   5.382  16.479  0.00  0.00    +0.000 NA
ATOM     30  H   UNL     1       8.059   5.454  15.723  0.00  0.00    +0.000 HD
ENDBRANCH  25  29
ENDBRANCH  19  25
BRANCH  22  31
ATOM     31  N   UNL     1       1.995   4.241  20.437  0.00  0.00    +0.000 N 
ATOM     32  C   UNL     1       0.733   3.697  19.888  0.00  0.00    +0.000 C 
ATOM     33  C   UNL     1       2.326   3.633  21.728  0.00  0.00    +0.000 C 
ENDBRANCH  22  31
ENDBRANCH   1  23
TORSDOF 10
ENDMDL
MODEL 8
REMARK VINA RESULT:      -6.9      0.870      1.065
REMARK  Name = 
REMARK  14 active torsions:
REMARK  status: ('A' for Active; 'I' for Inactive)
REMARK    1  A    between atoms: C_1  and  N_2
REMARK    2  A    between atoms: N_2  and  S_3
REMARK    3  A    between atoms: S_3  and  C_6
REMARK    4  A    between atoms: C_9  and  N_10
REMARK    5  A    between atoms: N_10  and  C_11
REMARK    6  A    between atoms: N_10  and  C_12
REMARK    7  A    between atoms: C_13  and  N_14
REMARK    8  A    between atoms: N_14  and  C_15
REMARK    9  A    between atoms: C_21  and  O_22
REMARK   10  A    between atoms: O_22  and  C_23
REMARK   11  A    between atoms: C_23  and  C_24
REMARK   12  A    between atoms: C_24  and  C_25
REMARK   13  A    between atoms: C_25  and  O_26
REMARK   14  A    between atoms: O_26  and  C_27
REMARK                            x       y       z     vdW  Elec       q    Type
REMARK                         _______ _______ _______ _____ _____    ______ ____
ROOT
ATOM      1  N   UNL     1       3.018   6.614  19.973  0.00  0.00    +0.000 N 
ATOM      2  H   UNL     1       3.599   7.395  20.275  0.00  0.00    +0.000 HD
ENDROOT
BRANCH   1   3
ATOM      3  C   UNL     1       1.860   7.267  19.373  0.00  0.00    +0.000 A 
ATOM      4  N   UNL     1       2.067   7.659  18.102  0.00  0.00    +0.000 NA
ATOM      5  C   UNL     1       1.962   8.976  17.875  0.00  0.00    +0.000 A 
ATOM      6  N   UNL     1       1.788   9.921  18.808  0.00  0.00    +0.000 NA
ATOM      7  C   UNL     1       1.357   9.500  20.000  0.00  0.00    +0.000 A 
ATOM      8  C   UNL     1       1.007  10.437  20.967  0.00  0.00    +0.000 A 
ATOM      9  C   UNL     1       0.230  10.109  22.081  0.00  0.00    +0.000 A 
ATOM     10  C   UNL     1      -0.228   8.805  22.198  0.00  0.00    +0.000 A 
ATOM     11  C   UNL     1       0.280   7.815  21.328  0.00  0.00    +0.000 A 
ATOM     12  C   UNL     1       1.171   8.149  20.265  0.00  0.00    +0.000 A 
BRANCH   9  13
ATOM     13  O   UNL     1      -0.186  11.180  22.818  0.00  0.00    +0.000 OA
BRANCH  13  14
ATOM     14  C   UNL     1      -0.650  12.380  22.176  0.00  0.00    +0.000 C 
BRANCH  14  15
ATOM     15  C   UNL     1      -2.166  12.197  22.016  0.00  0.00    +0.000 C 
BRANCH  15  16
ATOM     16  C   UNL     1      -2.999  12.311  23.288  0.00  0.00    +0.000 C 
BRANCH  16  17
ATOM     17  O   UNL     1      -4.393  12.280  22.989  0.00  0.00    +0.000 OA
ATOM     18  C   UNL     1      -5.134  13.127  23.867  0.00  0.00    +0.000 C 
ENDBRANCH  16  17
ENDBRANCH  15  16
ENDBRANCH  14  15
ENDBRANCH  13  14
ENDBRANCH   9  13
ENDBRANCH   1   3
BRANCH   1  23
ATOM     19  C   UNL     1       5.678   5.125  17.837  0.00  0.00    +0.000 A 
ATOM     20  C   UNL     1       5.340   3.777  17.836  0.00  0.00    +0.000 A 
ATOM     21  C   UNL     1       4.322   3.329  18.669  0.00  0.00    +0.000 A 
ATOM     22  C   UNL     1       3.545   4.208  19.463  0.00  0.00    +0.000 A 
ATOM     23  C   UNL     1       3.923   5.612  19.471  0.00  0.00    +0.000 A 
ATOM     24  C   UNL     1       5.011   6.035  18.674  0.00  0.00    +0.000 A 
BRANCH  19  25
ATOM     25  S   UNL     1       6.830   5.657  16.586  0.00  0.00    +0.000 S 
ATOM     26  O   UNL     1       7.819   4.613  16.414  0.00  0.00    +0.000 OA
ATOM     27  O   UNL     1       7.198   7.045  16.882  0.00  0.00    +0.000 OA
BRANCH  25  29
ATOM     28  C   UNL     1       5.863   4.524  14.330  0.00  0.00    +0.000 C 
ATOM     29  N   UNL     1       5.863   5.695  15.208  0.00  0.00    +0.000 NA
ATOM     30  H   UNL     1       4.961   6.147  15.373  0.00  0.00    +0.000 HD
ENDBRANCH  25  29
ENDBRANCH  19  25
BRANCH  22  31
ATOM     31  N   UNL     1       2.381   3.701  20.091  0.00  0.00    +0.000 N 
ATOM     32  C   UNL     1       2.196   3.962  21.536  0.00  0.00    +0.000 C 
ATOM     33  C   UNL     1       1.109   3.760  19.366  0.00  0.00    +0.000 C 
ENDBRANCH  22  31
ENDBRANCH   1  23
TORSDOF 10
ENDMDL
MODEL 9
REMARK VINA RESULT:      -6.9      1.557      1.620
REMARK  Name = 
REMARK  14 active torsions:
REMARK  status: ('A' for Active; 'I' for Inactive)
REMARK    1  A    between atoms: C_1  and  N_2
REMARK    2  A    between atoms: N_2  and  S_3
REMARK    3  A    between atoms: S_3  and  C_6
REMARK    4  A    between atoms: C_9  and  N_10
REMARK    5  A    between atoms: N_10  and  C_11
REMARK    6  A    between atoms: N_10  and  C_12
REMARK    7  A    between atoms: C_13  and  N_14
REMARK    8  A    between atoms: N_14  and  C_15
REMARK    9  A    between atoms: C_21  and  O_22
REMARK   10  A    between atoms: O_22  and  C_23
REMARK   11  A    between atoms: C_23  and  C_24
REMARK   12  A    between atoms: C_24  and  C_25
REMARK   13  A    between atoms: C_25  and  O_26
REMARK   14  A    between atoms: O_26  and  C_27
REMARK                            x       y       z     vdW  Elec       q    Type
REMARK                         _______ _______ _______ _____ _____    ______ ____
ROOT
ATOM      1  N   UNL     1       2.864   6.610  20.156  0.00  0.00    +0.000 N 
ATOM      2  H   UNL     1       3.470   7.382  20.433  0.00  0.00    +0.000 HD
ENDROOT
BRANCH   1   3
ATOM      3  C   UNL     1       1.739   7.276  19.511  0.00  0.00    +0.000 A 
ATOM      4  N   UNL     1       1.986   7.627  18.236  0.00  0.00    +0.000 NA
ATOM      5  C   UNL     1       1.922   8.939  17.970  0.00  0.00    +0.000 A 
ATOM      6  N   UNL     1       1.754   9.914  18.871  0.00  0.00    +0.000 NA
ATOM      7  C   UNL     1       1.285   9.539  20.064  0.00  0.00    +0.000 A 
ATOM      8  C   UNL     1       0.939  10.513  20.996  0.00  0.00    +0.000 A 
ATOM      9  C   UNL     1       0.128  10.238  22.101  0.00  0.00    +0.000 A 
ATOM     10  C   UNL     1      -0.369   8.950  22.243  0.00  0.00    +0.000 A 
ATOM     11  C   UNL     1       0.131   7.922  21.413  0.00  0.00    +0.000 A 
ATOM     12  C   UNL     1       1.055   8.201  20.362  0.00  0.00    +0.000 A 
BRANCH   9  13
ATOM     13  O   UNL     1      -0.275  11.340  22.798  0.00  0.00    +0.000 OA
BRANCH  13  14
ATOM     14  C   UNL     1      -1.671  11.601  23.020  0.00  0.00    +0.000 C 
BRANCH  14  15
ATOM     15  C   UNL     1      -1.986  12.859  22.198  0.00  0.00    +0.000 C 
BRANCH  15  16
ATOM     16  C   UNL     1      -2.559  12.630  20.803  0.00  0.00    +0.000 C 
BRANCH  16  17
ATOM     17  O   UNL     1      -3.767  13.364  20.621  0.00  0.00    +0.000 OA
ATOM     18  C   UNL     1      -4.881  12.688  21.203  0.00  0.00    +0.000 C 
ENDBRANCH  16  17
ENDBRANCH  15  16
ENDBRANCH  14  15
ENDBRANCH  13  14
ENDBRANCH   9  13
ENDBRANCH   1   3
BRANCH   1  23
ATOM     19  C   UNL     1       5.765   5.023  18.446  0.00  0.00    +0.000 A 
ATOM     20  C   UNL     1       5.281   3.753  18.155  0.00  0.00    +0.000 A 
ATOM     21  C   UNL     1       4.049   3.360  18.663  0.00  0.00    +0.000 A 
ATOM     22  C   UNL     1       3.213   4.236  19.397  0.00  0.00    +0.000 A 
ATOM     23  C   UNL     1       3.739   5.555  19.711  0.00  0.00    +0.000 A 
ATOM     24  C   UNL     1       5.028   5.908  19.250  0.00  0.00    +0.000 A 
BRANCH  19  25
ATOM     25  S   UNL     1       7.236   5.531  17.578  0.00  0.00    +0.000 S 
ATOM     26  O   UNL     1       7.868   4.347  17.035  0.00  0.00    +0.000 OA
ATOM     27  O   UNL     1       7.954   6.479  18.437  0.00  0.00    +0.000 OA
BRANCH  25  29
ATOM     28  C   UNL     1       5.467   5.863  15.560  0.00  0.00    +0.000 C 
ATOM     29  N   UNL     1       6.601   6.422  16.297  0.00  0.00    +0.000 NA
ATOM     30  H   UNL     1       6.576   7.425  16.490  0.00  0.00    +0.000 HD
ENDBRANCH  25  29
ENDBRANCH  19  25
BRANCH  22  31
ATOM     31  N   UNL     1       1.882   3.835  19.666  0.00  0.00    +0.000 N 
ATOM     32  C   UNL     1       1.174   3.029  18.646  0.00  0.00    +0.000 C 
ATOM     33  C   UNL     1       1.537   3.406  21.025  0.00  0.00    +0.000 C 
ENDBRANCH  22  31
ENDBRANCH   1  23
TORSDOF 10
ENDMDL
