MODEL 1
REMARK VINA RESULT:      -7.8      0.000      0.000
REMARK  Name = 
REMARK  7 active torsions:
REMARK  status: ('A' for Active; 'I' for Inactive)
REMARK    1  A    between atoms: N_1  and  C_2
REMARK    2  A    between atoms: C_2  and  C_3
REMARK    3  A    between atoms: C_2  and  C_25
REMARK    4  A    between atoms: C_3  and  N_4
REMARK    5  A    between atoms: N_4  and  C_5
REMARK    6  A    between atoms: C_7  and  C_8
REMARK    7  A    between atoms: C_25  and  C_26
REMARK                            x       y       z     vdW  Elec       q    Type
REMARK                         _______ _______ _______ _____ _____    ______ ____
ROOT
ATOM      1  C   UNL     1       2.962   6.200  20.030  0.00  0.00    +0.000 A 
ATOM      2  N   UNL     1       3.946   5.776  19.193  0.00  0.00    +0.000 NA
ATOM      3  C   UNL     1       4.242   6.409  18.058  0.00  0.00    +0.000 A 
ATOM      4  N   UNL     1       3.617   7.489  17.619  0.00  0.00    +0.000 NA
ATOM      5  C   UNL     1       2.671   7.941  18.455  0.00  0.00    +0.000 A 
ATOM      6  S   UNL     1       1.814   9.339  18.015  0.00  0.00    +0.000 S 
ATOM      7  C   UNL     1       0.920   9.312  19.449  0.00  0.00    +0.000 A 
ATOM      8  C   UNL     1       1.219   8.226  20.260  0.00  0.00    +0.000 A 
ATOM      9  C   UNL     1       2.270   7.391  19.674  0.00  0.00    +0.000 A 
ATOM     10  C   UNL     1       0.536   8.074  21.597  0.00  0.00    +0.000 C 
ATOM     11  C   UNL     1      -0.626   9.076  21.809  0.00  0.00    +0.000 C 
ATOM     12  C   UNL     1      -0.333  10.471  21.242  0.00  0.00    +0.000 C 
ATOM     13  C   UNL     1      -0.077  10.391  19.737  0.00  0.00    +0.000 C 
ENDROOT
BRANCH   3  14
ATOM     14  C   UNL     1       5.262   5.779  17.211  0.00  0.00    +0.000 A 
ATOM     15  C   UNL     1       5.183   5.840  15.806  0.00  0.00    +0.000 A 
ATOM     16  C   UNL     1       6.179   5.264  15.034  0.00  0.00    +0.000 A 
ATOM     17  N   UNL     1       7.245   4.621  15.550  0.00  0.00    +0.000 NA
ATOM     18  C   UNL     1       7.298   4.546  16.900  0.00  0.00    +0.000 A 
ATOM     19  C   UNL     1       6.351   5.095  17.750  0.00  0.00    +0.000 A 
ATOM     20  F   UNL     1       6.496   4.928  19.072  0.00  0.00    +0.000 F 
ENDBRANCH   3  14
BRANCH   1  21
ATOM     21  N   UNL     1       2.739   5.371  21.152  0.00  0.00    +0.000 N 
ATOM     22  H   UNL     1       2.725   5.856  22.041  0.00  0.00    +0.000 HD
BRANCH  21  23
ATOM     23  C   UNL     1       1.565   4.496  20.926  0.00  0.00    +0.000 C 
BRANCH  23  24
ATOM     24  C   UNL     1       1.773   3.015  21.308  0.00  0.00    +0.000 C 
BRANCH  24  25
ATOM     25  N   UNL     1       0.957   2.654  22.490  0.00  0.00    +0.000 NA
ATOM     26  H   UNL     1       0.039   3.091  22.405  0.00  0.00    +0.000 HD
ATOM     27  H   UNL     1       1.380   3.047  23.330  0.00  0.00    +0.000 HD
ENDBRANCH  24  25
BRANCH  24  28
ATOM     28  C   UNL     1       1.402   2.112  20.093  0.00  0.00    +0.000 C 
BRANCH  28  29
ATOM     29  C   UNL     1       2.167   2.372  18.807  0.00  0.00    +0.000 A 
ATOM     30  C   UNL     1       1.676   3.251  17.833  0.00  0.00    +0.000 A 
ATOM     31  C   UNL     1       2.416   3.517  16.672  0.00  0.00    +0.000 A 
ATOM     32  C   UNL     1       3.657   2.900  16.475  0.00  0.00    +0.000 A 
ATOM     33  C   UNL     1       4.147   2.022  17.432  0.00  0.00    +0.000 A 
ATOM     34  C   UNL     1       3.412   1.757  18.590  0.00  0.00    +0.000 A 
ENDBRANCH  28  29
ENDBRANCH  24  28
ENDBRANCH  23  24
ENDBRANCH  21  23
ENDBRANCH   1  21
TORSDOF 7
ENDMDL
MODEL 2
REMARK VINA RESULT:      -7.7      2.594      7.054
REMARK  Name = 
REMARK  7 active torsions:
REMARK  status: ('A' for Active; 'I' for Inactive)
REMARK    1  A    between atoms: N_1  and  C_2
REMARK    2  A    between atoms: C_2  and  C_3
REMARK    3  A    between atoms: C_2  and  C_25
REMARK    4  A    between atoms: C_3  and  N_4
REMARK    5  A    between atoms: N_4  and  C_5
REMARK    6  A    between atoms: C_7  and  C_8
REMARK    7  A    between atoms: C_25  and  C_26
REMARK                            x       y       z     vdW  Elec       q    Type
REMARK                         _______ _______ _______ _____ _____    ______ ____
ROOT
ATOM      1  C   UNL     1       2.998   6.689  18.522  0.00  0.00    +0.000 A 
ATOM      2  N   UNL     1       2.492   7.752  19.204  0.00  0.00    +0.000 NA
ATOM      3  C   UNL     1       1.623   7.612  20.205  0.00  0.00    +0.000 A 
ATOM      4  N   UNL     1       1.153   6.451  20.631  0.00  0.00    +0.000 NA
ATOM      5  C   UNL     1       1.674   5.393  19.993  0.00  0.00    +0.000 A 
ATOM      6  S   UNL     1       1.168   3.843  20.468  0.00  0.00    +0.000 S 
ATOM      7  C   UNL     1       2.197   3.102  19.351  0.00  0.00    +0.000 A 
ATOM      8  C   UNL     1       2.904   4.008  18.571  0.00  0.00    +0.000 A 
ATOM      9  C   UNL     1       2.598   5.391  18.946  0.00  0.00    +0.000 A 
ATOM     10  C   UNL     1       3.896   3.511  17.550  0.00  0.00    +0.000 C 
ATOM     11  C   UNL     1       3.840   1.978  17.336  0.00  0.00    +0.000 C 
ATOM     12  C   UNL     1       3.604   1.195  18.634  0.00  0.00    +0.000 C 
ATOM     13  C   UNL     1       2.278   1.609  19.272  0.00  0.00    +0.000 C 
ENDROOT
BRANCH   3  14
ATOM     14  C   UNL     1       1.093   8.853  20.781  0.00  0.00    +0.000 A 
ATOM     15  C   UNL     1       0.799   8.953  22.156  0.00  0.00    +0.000 A 
ATOM     16  C   UNL     1       0.330  10.148  22.675  0.00  0.00    +0.000 A 
ATOM     17  N   UNL     1       0.120  11.253  21.933  0.00  0.00    +0.000 NA
ATOM     18  C   UNL     1       0.382  11.140  20.610  0.00  0.00    +0.000 A 
ATOM     19  C   UNL     1       0.855   9.986  20.004  0.00  0.00    +0.000 A 
ATOM     20  F   UNL     1       1.048   9.987  18.678  0.00  0.00    +0.000 F 
ENDBRANCH   3  14
BRANCH   1  21
ATOM     21  N   UNL     1       3.852   7.024  17.449  0.00  0.00    +0.000 N 
ATOM     22  H   UNL     1       3.728   7.961  17.084  0.00  0.00    +0.000 HD
BRANCH  21  23
ATOM     23  C   UNL     1       5.256   6.689  17.778  0.00  0.00    +0.000 C 
BRANCH  23  24
ATOM     24  C   UNL     1       6.235   6.734  16.584  0.00  0.00    +0.000 C 
BRANCH  24  25
ATOM     25  N   UNL     1       7.376   7.633  16.870  0.00  0.00    +0.000 NA
ATOM     26  H   UNL     1       7.970   7.200  17.578  0.00  0.00    +0.000 HD
ATOM     27  H   UNL     1       7.033   8.500  17.284  0.00  0.00    +0.000 HD
ENDBRANCH  24  25
BRANCH  24  28
ATOM     28  C   UNL     1       6.741   5.293  16.278  0.00  0.00    +0.000 C 
BRANCH  28  29
ATOM     29  C   UNL     1       6.720   4.871  14.819  0.00  0.00    +0.000 A 
ATOM     30  C   UNL     1       7.669   5.353  13.908  0.00  0.00    +0.000 A 
ATOM     31  C   UNL     1       7.666   4.918  12.575  0.00  0.00    +0.000 A 
ATOM     32  C   UNL     1       6.707   3.995  12.141  0.00  0.00    +0.000 A 
ATOM     33  C   UNL     1       5.759   3.519  13.035  0.00  0.00    +0.000 A 
ATOM     34  C   UNL     1       5.761   3.949  14.364  0.00  0.00    +0.000 A 
ENDBRANCH  28  29
ENDBRANCH  24  28
ENDBRANCH  23  24
ENDBRANCH  21  23
ENDBRANCH   1  21
TORSDOF 7
ENDMDL
MODEL 3
REMARK VINA RESULT:      -7.6      2.479      6.011
REMARK  Name = 
REMARK  7 active torsions:
REMARK  status: ('A' for Active; 'I' for Inactive)
REMARK    1  A    between atoms: N_1  and  C_2
REMARK    2  A    between atoms: C_2  and  C_3
REMARK    3  A    between atoms: C_2  and  C_25
REMARK    4  A    between atoms: C_3  and  N_4
REMARK    5  A    between atoms: N_4  and  C_5
REMARK    6  A    between atoms: C_7  and  C_8
REMARK    7  A    between atoms: C_25  and  C_26
REMARK                            x       y       z     vdW  Elec       q    Type
REMARK                         _______ _______ _______ _____ _____    ______ ____
ROOT
ATOM      1  C   UNL     1       4.362   5.644  17.453  0.00  0.00    +0.000 A 
ATOM      2  N   UNL     1       4.979   5.506  16.250  0.00  0.00    +0.000 NA
ATOM      3  C   UNL     1       5.162   4.318  15.671  0.00  0.00    +0.000 A 
ATOM      4  N   UNL     1       4.785   3.165  16.196  0.00  0.00    +0.000 NA
ATOM      5  C   UNL     1       4.139   3.291  17.365  0.00  0.00    +0.000 A 
ATOM      6  S   UNL     1       3.581   1.879  18.127  0.00  0.00    +0.000 S 
ATOM      7  C   UNL     1       2.897   2.766  19.394  0.00  0.00    +0.000 A 
ATOM      8  C   UNL     1       3.118   4.132  19.288  0.00  0.00    +0.000 A 
ATOM      9  C   UNL     1       3.865   4.463  18.072  0.00  0.00    +0.000 A 
ATOM     10  C   UNL     1       2.540   5.071  20.318  0.00  0.00    +0.000 C 
ATOM     11  C   UNL     1       1.932   4.340  21.541  0.00  0.00    +0.000 C 
ATOM     12  C   UNL     1       1.193   3.048  21.167  0.00  0.00    +0.000 C 
ATOM     13  C   UNL     1       2.146   2.067  20.485  0.00  0.00    +0.000 C 
ENDROOT
BRANCH   3  14
ATOM     14  C   UNL     1       5.929   4.319  14.421  0.00  0.00    +0.000 A 
ATOM     15  C   UNL     1       5.488   3.598  13.293  0.00  0.00    +0.000 A 
ATOM     16  C   UNL     1       6.218   3.644  12.116  0.00  0.00    +0.000 A 
ATOM     17  N   UNL     1       7.361   4.344  11.974  0.00  0.00    +0.000 NA
ATOM     18  C   UNL     1       7.790   5.012  13.070  0.00  0.00    +0.000 A 
ATOM     19  C   UNL     1       7.124   5.025  14.286  0.00  0.00    +0.000 A 
ATOM     20  F   UNL     1       7.665   5.700  15.309  0.00  0.00    +0.000 F 
ENDBRANCH   3  14
BRANCH   1  21
ATOM     21  N   UNL     1       4.315   6.966  17.948  0.00  0.00    +0.000 N 
ATOM     22  H   UNL     1       5.204   7.450  17.950  0.00  0.00    +0.000 HD
BRANCH  21  23
ATOM     23  C   UNL     1       3.219   7.724  17.302  0.00  0.00    +0.000 C 
BRANCH  23  24
ATOM     24  C   UNL     1       2.537   8.779  18.200  0.00  0.00    +0.000 C 
BRANCH  24  25
ATOM     25  N   UNL     1       1.879   9.823  17.382  0.00  0.00    +0.000 NA
ATOM     26  H   UNL     1       1.357   9.375  16.629  0.00  0.00    +0.000 HD
ATOM     27  H   UNL     1       2.588  10.399  16.929  0.00  0.00    +0.000 HD
ENDBRANCH  24  25
BRANCH  24  28
ATOM     28  C   UNL     1       1.497   8.075  19.123  0.00  0.00    +0.000 C 
BRANCH  28  29
ATOM     29  C   UNL     1       0.931   8.913  20.256  0.00  0.00    +0.000 A 
ATOM     30  C   UNL     1       0.091  10.005  20.004  0.00  0.00    +0.000 A 
ATOM     31  C   UNL     1      -0.463  10.741  21.061  0.00  0.00    +0.000 A 
ATOM     32  C   UNL     1      -0.177  10.388  22.385  0.00  0.00    +0.000 A 
ATOM     33  C   UNL     1       0.661   9.312  22.644  0.00  0.00    +0.000 A 
ATOM     34  C   UNL     1       1.212   8.577  21.592  0.00  0.00    +0.000 A 
ENDBRANCH  28  29
ENDBRANCH  24  28
ENDBRANCH  23  24
ENDBRANCH  21  23
ENDBRANCH   1  21
TORSDOF 7
ENDMDL
MODEL 4
REMARK VINA RESULT:      -7.6      3.982      7.677
REMARK  Name = 
REMARK  7 active torsions:
REMARK  status: ('A' for Active; 'I' for Inactive)
REMARK    1  A    between atoms: N_1  and  C_2
REMARK    2  A    between atoms: C_2  and  C_3
REMARK    3  A    between atoms: C_2  and  C_25
REMARK    4  A    between atoms: C_3  and  N_4
REMARK    5  A    between atoms: N_4  and  C_5
REMARK    6  A    between atoms: C_7  and  C_8
REMARK    7  A    between atoms: C_25  and  C_26
REMARK                            x       y       z     vdW  Elec       q    Type
REMARK                         _______ _______ _______ _____ _____    ______ ____
ROOT
ATOM      1  C   UNL     1       0.361   9.712  18.456  0.00  0.00    +0.000 A 
ATOM      2  N   UNL     1       1.181   8.729  17.996  0.00  0.00    +0.000 NA
ATOM      3  C   UNL     1       1.892   7.951  18.813  0.00  0.00    +0.000 A 
ATOM      4  N   UNL     1       1.892   8.052  20.131  0.00  0.00    +0.000 NA
ATOM      5  C   UNL     1       1.057   8.990  20.599  0.00  0.00    +0.000 A 
ATOM      6  S   UNL     1       0.947   9.199  22.281  0.00  0.00    +0.000 S 
ATOM      7  C   UNL     1      -0.224  10.405  22.113  0.00  0.00    +0.000 A 
ATOM      8  C   UNL     1      -0.518  10.703  20.789  0.00  0.00    +0.000 A 
ATOM      9  C   UNL     1       0.246   9.860  19.867  0.00  0.00    +0.000 A 
ATOM     10  C   UNL     1      -1.573  11.732  20.465  0.00  0.00    +0.000 C 
ATOM     11  C   UNL     1      -2.061  12.522  21.705  0.00  0.00    +0.000 C 
ATOM     12  C   UNL     1      -2.186  11.653  22.963  0.00  0.00    +0.000 C 
ATOM     13  C   UNL     1      -0.833  11.041  23.325  0.00  0.00    +0.000 C 
ENDROOT
BRANCH   3  14
ATOM     14  C   UNL     1       2.805   7.000  18.168  0.00  0.00    +0.000 A 
ATOM     15  C   UNL     1       3.932   7.444  17.448  0.00  0.00    +0.000 A 
ATOM     16  C   UNL     1       4.793   6.521  16.877  0.00  0.00    +0.000 A 
ATOM     17  N   UNL     1       4.618   5.187  16.959  0.00  0.00    +0.000 NA
ATOM     18  C   UNL     1       3.519   4.771  17.631  0.00  0.00    +0.000 A 
ATOM     19  C   UNL     1       2.606   5.621  18.235  0.00  0.00    +0.000 A 
ATOM     20  F   UNL     1       1.539   5.091  18.847  0.00  0.00    +0.000 F 
ENDBRANCH   3  14
BRANCH   1  21
ATOM     21  N   UNL     1      -0.262  10.484  17.451  0.00  0.00    +0.000 N 
ATOM     22  H   UNL     1       0.277  10.587  16.600  0.00  0.00    +0.000 HD
BRANCH  21  23
ATOM     23  C   UNL     1      -1.653  10.024  17.230  0.00  0.00    +0.000 C 
BRANCH  23  24
ATOM     24  C   UNL     1      -2.673  11.146  16.940  0.00  0.00    +0.000 C 
BRANCH  24  25
ATOM     25  N   UNL     1      -2.748  11.428  15.488  0.00  0.00    +0.000 NA
ATOM     26  H   UNL     1      -2.454  12.391  15.321  0.00  0.00    +0.000 HD
ATOM     27  H   UNL     1      -3.718  11.373  15.179  0.00  0.00    +0.000 HD
ENDBRANCH  24  25
BRANCH  24  28
ATOM     28  C   UNL     1      -4.071  10.726  17.485  0.00  0.00    +0.000 C 
BRANCH  28  29
ATOM     29  C   UNL     1      -4.974  11.855  17.952  0.00  0.00    +0.000 A 
ATOM     30  C   UNL     1      -5.920  12.432  17.095  0.00  0.00    +0.000 A 
ATOM     31  C   UNL     1      -6.780  13.440  17.553  0.00  0.00    +0.000 A 
ATOM     32  C   UNL     1      -6.697  13.882  18.879  0.00  0.00    +0.000 A 
ATOM     33  C   UNL     1      -5.757  13.321  19.733  0.00  0.00    +0.000 A 
ATOM     34  C   UNL     1      -4.901  12.315  19.278  0.00  0.00    +0.000 A 
ENDBRANCH  28  29
ENDBRANCH  24  28
ENDBRANCH  23  24
ENDBRANCH  21  23
ENDBRANCH   1  21
TORSDOF 7
ENDMDL
MODEL 5
REMARK VINA RESULT:      -7.5      0.851      1.473
REMARK  Name = 
REMARK  7 active torsions:
REMARK  status: ('A' for Active; 'I' for Inactive)
REMARK    1  A    between atoms: N_1  and  C_2
REMARK    2  A    between atoms: C_2  and  C_3
REMARK    3  A    between atoms: C_2  and  C_25
REMARK    4  A    between atoms: C_3  and  N_4
REMARK    5  A    between atoms: N_4  and  C_5
REMARK    6  A    between atoms: C_7  and  C_8
REMARK    7  A    between atoms: C_25  and  C_26
REMARK                            x       y       z     vdW  Elec       q    Type
REMARK                         _______ _______ _______ _____ _____    ______ ____
ROOT
ATOM      1  C   UNL     1       2.929   6.282  20.060  0.00  0.00    +0.000 A 
ATOM      2  N   UNL     1       3.953   5.858  19.273  0.00  0.00    +0.000 NA
ATOM      3  C   UNL     1       4.293   6.481  18.144  0.00  0.00    +0.000 A 
ATOM      4  N   UNL     1       3.679   7.549  17.665  0.00  0.00    +0.000 NA
ATOM      5  C   UNL     1       2.693   8.001  18.452  0.00  0.00    +0.000 A 
ATOM      6  S   UNL     1       1.843   9.386  17.957  0.00  0.00    +0.000 S 
ATOM      7  C   UNL     1       0.887   9.368  19.350  0.00  0.00    +0.000 A 
ATOM      8  C   UNL     1       1.159   8.295  20.188  0.00  0.00    +0.000 A 
ATOM      9  C   UNL     1       2.243   7.463  19.660  0.00  0.00    +0.000 A 
ATOM     10  C   UNL     1       0.419   8.152  21.495  0.00  0.00    +0.000 C 
ATOM     11  C   UNL     1      -0.760   9.145  21.643  0.00  0.00    +0.000 C 
ATOM     12  C   UNL     1      -0.455  10.536  21.072  0.00  0.00    +0.000 C 
ATOM     13  C   UNL     1      -0.132  10.441  19.581  0.00  0.00    +0.000 C 
ENDROOT
BRANCH   3  14
ATOM     14  C   UNL     1       5.355   5.850  17.351  0.00  0.00    +0.000 A 
ATOM     15  C   UNL     1       6.316   5.013  17.953  0.00  0.00    +0.000 A 
ATOM     16  C   UNL     1       7.287   4.407  17.173  0.00  0.00    +0.000 A 
ATOM     17  N   UNL     1       7.385   4.574  15.839  0.00  0.00    +0.000 NA
ATOM     18  C   UNL     1       6.473   5.399  15.274  0.00  0.00    +0.000 A 
ATOM     19  C   UNL     1       5.466   6.045  15.975  0.00  0.00    +0.000 A 
ATOM     20  F   UNL     1       4.640   6.863  15.309  0.00  0.00    +0.000 F 
ENDBRANCH   3  14
BRANCH   1  21
ATOM     21  N   UNL     1       2.664   5.465  21.181  0.00  0.00    +0.000 N 
ATOM     22  H   UNL     1       2.597   5.962  22.061  0.00  0.00    +0.000 HD
BRANCH  21  23
ATOM     23  C   UNL     1       1.518   4.567  20.910  0.00  0.00    +0.000 C 
BRANCH  23  24
ATOM     24  C   UNL     1       1.767   3.077  21.234  0.00  0.00    +0.000 C 
BRANCH  24  25
ATOM     25  N   UNL     1       0.941   2.641  22.383  0.00  0.00    +0.000 NA
ATOM     26  H   UNL     1       0.574   3.466  22.860  0.00  0.00    +0.000 HD
ATOM     27  H   UNL     1       1.529   2.162  23.064  0.00  0.00    +0.000 HD
ENDBRANCH  24  25
BRANCH  24  28
ATOM     28  C   UNL     1       1.446   2.216  19.975  0.00  0.00    +0.000 C 
BRANCH  28  29
ATOM     29  C   UNL     1       2.286   2.494  18.741  0.00  0.00    +0.000 A 
ATOM     30  C   UNL     1       3.497   1.825  18.519  0.00  0.00    +0.000 A 
ATOM     31  C   UNL     1       4.238   2.056  17.352  0.00  0.00    +0.000 A 
ATOM     32  C   UNL     1       3.773   2.966  16.395  0.00  0.00    +0.000 A 
ATOM     33  C   UNL     1       2.578   3.639  16.611  0.00  0.00    +0.000 A 
ATOM     34  C   UNL     1       1.837   3.408  17.772  0.00  0.00    +0.000 A 
ENDBRANCH  28  29
ENDBRANCH  24  28
ENDBRANCH  23  24
ENDBRANCH  21  23
ENDBRANCH   1  21
TORSDOF 7
ENDMDL
MODEL 6
REMARK VINA RESULT:      -7.5      2.691      6.169
REMARK  Name = 
REMARK  7 active torsions:
REMARK  status: ('A' for Active; 'I' for Inactive)
REMARK    1  A    between atoms: N_1  and  C_2
REMARK    2  A    between atoms: C_2  and  C_3
REMARK    3  A    between atoms: C_2  and  C_25
REMARK    4  A    between atoms: C_3  and  N_4
REMARK    5  A    between atoms: N_4  and  C_5
REMARK    6  A    between atoms: C_7  and  C_8
REMARK    7  A    between atoms: C_25  and  C_26
REMARK                            x       y       z     vdW  Elec       q    Type
REMARK                         _______ _______ _______ _____ _____    ______ ____
ROOT
ATOM      1  C   UNL     1       4.357   5.968  17.225  0.00  0.00    +0.000 A 
ATOM      2  N   UNL     1       5.020   5.811  16.048  0.00  0.00    +0.000 NA
ATOM      3  C   UNL     1       5.258   4.612  15.516  0.00  0.00    +0.000 A 
ATOM      4  N   UNL     1       4.898   3.465  16.066  0.00  0.00    +0.000 NA
ATOM      5  C   UNL     1       4.209   3.607  17.207  0.00  0.00    +0.000 A 
ATOM      6  S   UNL     1       3.668   2.205  17.998  0.00  0.00    +0.000 S 
ATOM      7  C   UNL     1       2.915   3.109  19.210  0.00  0.00    +0.000 A 
ATOM      8  C   UNL     1       3.097   4.478  19.067  0.00  0.00    +0.000 A 
ATOM      9  C   UNL     1       3.875   4.793  17.866  0.00  0.00    +0.000 A 
ATOM     10  C   UNL     1       2.456   5.431  20.045  0.00  0.00    +0.000 C 
ATOM     11  C   UNL     1       1.828   4.721  21.270  0.00  0.00    +0.000 C 
ATOM     12  C   UNL     1       1.142   3.395  20.914  0.00  0.00    +0.000 C 
ATOM     13  C   UNL     1       2.147   2.423  20.298  0.00  0.00    +0.000 C 
ENDROOT
BRANCH   3  14
ATOM     14  C   UNL     1       6.068   4.596  14.293  0.00  0.00    +0.000 A 
ATOM     15  C   UNL     1       7.310   5.257  14.231  0.00  0.00    +0.000 A 
ATOM     16  C   UNL     1       8.067   5.197  13.072  0.00  0.00    +0.000 A 
ATOM     17  N   UNL     1       7.681   4.536  11.963  0.00  0.00    +0.000 NA
ATOM     18  C   UNL     1       6.476   3.924  12.023  0.00  0.00    +0.000 A 
ATOM     19  C   UNL     1       5.654   3.930  13.139  0.00  0.00    +0.000 A 
ATOM     20  F   UNL     1       4.466   3.313  13.068  0.00  0.00    +0.000 F 
ENDBRANCH   3  14
BRANCH   1  21
ATOM     21  N   UNL     1       4.253   7.303  17.674  0.00  0.00    +0.000 N 
ATOM     22  H   UNL     1       5.055   7.885  17.465  0.00  0.00    +0.000 HD
BRANCH  21  23
ATOM     23  C   UNL     1       2.959   7.892  17.259  0.00  0.00    +0.000 C 
BRANCH  23  24
ATOM     24  C   UNL     1       2.387   8.955  18.222  0.00  0.00    +0.000 C 
BRANCH  24  25
ATOM     25  N   UNL     1       2.111  10.222  17.506  0.00  0.00    +0.000 NA
ATOM     26  H   UNL     1       1.278  10.102  16.929  0.00  0.00    +0.000 HD
ATOM     27  H   UNL     1       2.874  10.422  16.859  0.00  0.00    +0.000 HD
ENDBRANCH  24  25
BRANCH  24  28
ATOM     28  C   UNL     1       1.086   8.408  18.881  0.00  0.00    +0.000 C 
BRANCH  28  29
ATOM     29  C   UNL     1       0.645   9.092  20.164  0.00  0.00    +0.000 A 
ATOM     30  C   UNL     1       1.042   8.613  21.418  0.00  0.00    +0.000 A 
ATOM     31  C   UNL     1       0.667   9.283  22.592  0.00  0.00    +0.000 A 
ATOM     32  C   UNL     1      -0.114  10.442  22.517  0.00  0.00    +0.000 A 
ATOM     33  C   UNL     1      -0.518  10.920  21.278  0.00  0.00    +0.000 A 
ATOM     34  C   UNL     1      -0.144  10.255  20.108  0.00  0.00    +0.000 A 
ENDBRANCH  28  29
ENDBRANCH  24  28
ENDBRANCH  23  24
ENDBRANCH  21  23
ENDBRANCH   1  21
TORSDOF 7
ENDMDL
MODEL 7
REMARK VINA RESULT:      -7.4      2.560      6.939
REMARK  Name = 
REMARK  7 active torsions:
REMARK  status: ('A' for Active; 'I' for Inactive)
REMARK    1  A    between atoms: N_1  and  C_2
REMARK    2  A    between atoms: C_2  and  C_3
REMARK    3  A    between atoms: C_2  and  C_25
REMARK    4  A    between atoms: C_3  and  N_4
REMARK    5  A    between atoms: N_4  and  C_5
REMARK    6  A    between atoms: C_7  and  C_8
REMARK    7  A    between atoms: C_25  and  C_26
REMARK                            x       y       z     vdW  Elec       q    Type
REMARK                         _______ _______ _______ _____ _____    ______ ____
ROOT
ATOM      1  C   UNL     1       3.114   6.715  18.226  0.00  0.00    +0.000 A 
ATOM      2  N   UNL     1       2.622   7.857  18.776  0.00  0.00    +0.000 NA
ATOM      3  C   UNL     1       1.719   7.847  19.758  0.00  0.00    +0.000 A 
ATOM      4  N   UNL     1       1.202   6.751  20.287  0.00  0.00    +0.000 NA
ATOM      5  C   UNL     1       1.709   5.618  19.782  0.00  0.00    +0.000 A 
ATOM      6  S   UNL     1       1.143   4.141  20.400  0.00  0.00    +0.000 S 
ATOM      7  C   UNL     1       2.181   3.259  19.401  0.00  0.00    +0.000 A 
ATOM      8  C   UNL     1       2.938   4.058  18.554  0.00  0.00    +0.000 A 
ATOM      9  C   UNL     1       2.663   5.480  18.771  0.00  0.00    +0.000 A 
ATOM     10  C   UNL     1       3.945   3.428  17.623  0.00  0.00    +0.000 C 
ATOM     11  C   UNL     1       3.848   1.883  17.570  0.00  0.00    +0.000 C 
ATOM     12  C   UNL     1       3.550   1.249  18.935  0.00  0.00    +0.000 C 
ATOM     13  C   UNL     1       2.219   1.764  19.483  0.00  0.00    +0.000 C 
ENDROOT
BRANCH   3  14
ATOM     14  C   UNL     1       1.210   9.156  20.182  0.00  0.00    +0.000 A 
ATOM     15  C   UNL     1       0.846  10.138  19.239  0.00  0.00    +0.000 A 
ATOM     16  C   UNL     1       0.338  11.353  19.670  0.00  0.00    +0.000 A 
ATOM     17  N   UNL     1       0.170  11.673  20.969  0.00  0.00    +0.000 NA
ATOM     18  C   UNL     1       0.545  10.733  21.867  0.00  0.00    +0.000 A 
ATOM     19  C   UNL     1       1.060   9.491  21.527  0.00  0.00    +0.000 A 
ATOM     20  F   UNL     1       1.426   8.655  22.508  0.00  0.00    +0.000 F 
ENDBRANCH   3  14
BRANCH   1  21
ATOM     21  N   UNL     1       4.010   6.911  17.152  0.00  0.00    +0.000 N 
ATOM     22  H   UNL     1       3.866   7.767  16.631  0.00  0.00    +0.000 HD
BRANCH  21  23
ATOM     23  C   UNL     1       5.408   6.705  17.597  0.00  0.00    +0.000 C 
BRANCH  23  24
ATOM     24  C   UNL     1       6.449   6.626  16.459  0.00  0.00    +0.000 C 
BRANCH  24  25
ATOM     25  N   UNL     1       7.703   7.313  16.842  0.00  0.00    +0.000 NA
ATOM     26  H   UNL     1       7.779   7.323  17.859  0.00  0.00    +0.000 HD
ATOM     27  H   UNL     1       7.659   8.291  16.555  0.00  0.00    +0.000 HD
ENDBRANCH  24  25
BRANCH  24  28
ATOM     28  C   UNL     1       6.729   5.131  16.121  0.00  0.00    +0.000 C 
BRANCH  28  29
ATOM     29  C   UNL     1       6.732   4.767  14.646  0.00  0.00    +0.000 A 
ATOM     30  C   UNL     1       7.664   5.323  13.761  0.00  0.00    +0.000 A 
ATOM     31  C   UNL     1       7.686   4.941  12.412  0.00  0.00    +0.000 A 
ATOM     32  C   UNL     1       6.768   3.997  11.936  0.00  0.00    +0.000 A 
ATOM     33  C   UNL     1       5.836   3.447  12.805  0.00  0.00    +0.000 A 
ATOM     34  C   UNL     1       5.814   3.825  14.149  0.00  0.00    +0.000 A 
ENDBRANCH  28  29
ENDBRANCH  24  28
ENDBRANCH  23  24
ENDBRANCH  21  23
ENDBRANCH   1  21
TORSDOF 7
ENDMDL
MODEL 8
REMARK VINA RESULT:      -7.4      2.587      6.274
REMARK  Name = 
REMARK  7 active torsions:
REMARK  status: ('A' for Active; 'I' for Inactive)
REMARK    1  A    between atoms: N_1  and  C_2
REMARK    2  A    between atoms: C_2  and  C_3
REMARK    3  A    between atoms: C_2  and  C_25
REMARK    4  A    between atoms: C_3  and  N_4
REMARK    5  A    between atoms: N_4  and  C_5
REMARK    6  A    between atoms: C_7  and  C_8
REMARK    7  A    between atoms: C_25  and  C_26
REMARK                            x       y       z     vdW  Elec       q    Type
REMARK                         _______ _______ _______ _____ _____    ______ ____
ROOT
ATOM      1  C   UNL     1       4.254   5.802  17.296  0.00  0.00    +0.000 A 
ATOM      2  N   UNL     1       4.906   5.630  16.115  0.00  0.00    +0.000 NA
ATOM      3  C   UNL     1       5.157   4.424  15.605  0.00  0.00    +0.000 A 
ATOM      4  N   UNL     1       4.821   3.283  16.183  0.00  0.00    +0.000 NA
ATOM      5  C   UNL     1       4.142   3.439  17.329  0.00  0.00    +0.000 A 
ATOM      6  S   UNL     1       3.631   2.046  18.154  0.00  0.00    +0.000 S 
ATOM      7  C   UNL     1       2.877   2.964  19.356  0.00  0.00    +0.000 A 
ATOM      8  C   UNL     1       3.037   4.332  19.182  0.00  0.00    +0.000 A 
ATOM      9  C   UNL     1       3.798   4.633  17.966  0.00  0.00    +0.000 A 
ATOM     10  C   UNL     1       2.393   5.295  20.148  0.00  0.00    +0.000 C 
ATOM     11  C   UNL     1       1.789   4.601  21.394  0.00  0.00    +0.000 C 
ATOM     12  C   UNL     1       1.120   3.259  21.074  0.00  0.00    +0.000 C 
ATOM     13  C   UNL     1       2.133   2.289  20.466  0.00  0.00    +0.000 C 
ENDROOT
BRANCH   3  14
ATOM     14  C   UNL     1       5.954   4.395  14.373  0.00  0.00    +0.000 A 
ATOM     15  C   UNL     1       5.537   3.649  13.252  0.00  0.00    +0.000 A 
ATOM     16  C   UNL     1       6.294   3.667  12.092  0.00  0.00    +0.000 A 
ATOM     17  N   UNL     1       7.442   4.362  11.961  0.00  0.00    +0.000 NA
ATOM     18  C   UNL     1       7.846   5.055  13.051  0.00  0.00    +0.000 A 
ATOM     19  C   UNL     1       7.152   5.097  14.250  0.00  0.00    +0.000 A 
ATOM     20  F   UNL     1       7.670   5.794  15.270  0.00  0.00    +0.000 F 
ENDBRANCH   3  14
BRANCH   1  21
ATOM     21  N   UNL     1       4.135   7.144  17.719  0.00  0.00    +0.000 N 
ATOM     22  H   UNL     1       4.800   7.782  17.299  0.00  0.00    +0.000 HD
BRANCH  21  23
ATOM     23  C   UNL     1       2.728   7.596  17.624  0.00  0.00    +0.000 C 
BRANCH  23  24
ATOM     24  C   UNL     1       2.422   8.931  18.337  0.00  0.00    +0.000 C 
BRANCH  24  25
ATOM     25  N   UNL     1       2.065   9.983  17.358  0.00  0.00    +0.000 NA
ATOM     26  H   UNL     1       1.559  10.727  17.840  0.00  0.00    +0.000 HD
ATOM     27  H   UNL     1       1.416   9.603  16.669  0.00  0.00    +0.000 HD
ENDBRANCH  24  25
BRANCH  24  28
ATOM     28  C   UNL     1       1.261   8.717  19.354  0.00  0.00    +0.000 C 
BRANCH  28  29
ATOM     29  C   UNL     1       0.457   9.953  19.722  0.00  0.00    +0.000 A 
ATOM     30  C   UNL     1      -0.763  10.241  19.097  0.00  0.00    +0.000 A 
ATOM     31  C   UNL     1      -1.517  11.359  19.481  0.00  0.00    +0.000 A 
ATOM     32  C   UNL     1      -1.052  12.202  20.497  0.00  0.00    +0.000 A 
ATOM     33  C   UNL     1       0.160  11.928  21.116  0.00  0.00    +0.000 A 
ATOM     34  C   UNL     1       0.911  10.814  20.736  0.00  0.00    +0.000 A 
ENDBRANCH  28  29
ENDBRANCH  24  28
ENDBRANCH  23  24
ENDBRANCH  21  23
ENDBRANCH   1  21
TORSDOF 7
ENDMDL
MODEL 9
REMARK VINA RESULT:      -7.4      2.735      6.647
REMARK  Name = 
REMARK  7 active torsions:
REMARK  status: ('A' for Active; 'I' for Inactive)
REMARK    1  A    between atoms: N_1  and  C_2
REMARK    2  A    between atoms: C_2  and  C_3
REMARK    3  A    between atoms: C_2  and  C_25
REMARK    4  A    between atoms: C_3  and  N_4
REMARK    5  A    between atoms: N_4  and  C_5
REMARK    6  A    between atoms: C_7  and  C_8
REMARK    7  A    between atoms: C_25  and  C_26
REMARK                            x       y       z     vdW  Elec       q    Type
REMARK                         _______ _______ _______ _____ _____    ______ ____
ROOT
ATOM      1  C   UNL     1       3.498   6.957  17.821  0.00  0.00    +0.000 A 
ATOM      2  N   UNL     1       3.020   8.228  17.898  0.00  0.00    +0.000 NA
ATOM      3  C   UNL     1       2.151   8.610  18.835  0.00  0.00    +0.000 A 
ATOM      4  N   UNL     1       1.655   7.812  19.765  0.00  0.00    +0.000 NA
ATOM      5  C   UNL     1       2.149   6.566  19.725  0.00  0.00    +0.000 A 
ATOM      6  S   UNL     1       1.608   5.451  20.887  0.00  0.00    +0.000 S 
ATOM      7  C   UNL     1       2.616   4.240  20.277  0.00  0.00    +0.000 A 
ATOM      8  C   UNL     1       3.341   4.639  19.162  0.00  0.00    +0.000 A 
ATOM      9  C   UNL     1       3.069   6.036  18.817  0.00  0.00    +0.000 A 
ATOM     10  C   UNL     1       4.318   3.687  18.518  0.00  0.00    +0.000 C 
ATOM     11  C   UNL     1       4.224   2.244  19.073  0.00  0.00    +0.000 C 
ATOM     12  C   UNL     1       3.974   2.193  20.586  0.00  0.00    +0.000 C 
ATOM     13  C   UNL     1       2.661   2.894  20.933  0.00  0.00    +0.000 C 
ENDROOT
BRANCH   3  14
ATOM     14  C   UNL     1       1.652   9.986  18.733  0.00  0.00    +0.000 A 
ATOM     15  C   UNL     1       2.433  11.004  18.150  0.00  0.00    +0.000 A 
ATOM     16  C   UNL     1       1.921  12.287  18.038  0.00  0.00    +0.000 A 
ATOM     17  N   UNL     1       0.694  12.641  18.470  0.00  0.00    +0.000 NA
ATOM     18  C   UNL     1      -0.038  11.662  19.050  0.00  0.00    +0.000 A 
ATOM     19  C   UNL     1       0.391  10.353  19.202  0.00  0.00    +0.000 A 
ATOM     20  F   UNL     1      -0.413   9.478  19.822  0.00  0.00    +0.000 F 
ENDBRANCH   3  14
BRANCH   1  21
ATOM     21  N   UNL     1       4.356   6.711  16.727  0.00  0.00    +0.000 N 
ATOM     22  H   UNL     1       4.064   7.135  15.855  0.00  0.00    +0.000 HD
BRANCH  21  23
ATOM     23  C   UNL     1       5.762   6.999  17.095  0.00  0.00    +0.000 C 
BRANCH  23  24
ATOM     24  C   UNL     1       6.779   5.912  16.685  0.00  0.00    +0.000 C 
BRANCH  24  25
ATOM     25  N   UNL     1       7.490   5.381  17.871  0.00  0.00    +0.000 NA
ATOM     26  H   UNL     1       8.411   5.816  17.927  0.00  0.00    +0.000 HD
ATOM     27  H   UNL     1       7.659   4.382  17.749  0.00  0.00    +0.000 HD
ENDBRANCH  24  25
BRANCH  24  28
ATOM     28  C   UNL     1       6.034   4.764  15.939  0.00  0.00    +0.000 C 
BRANCH  28  29
ATOM     29  C   UNL     1       6.392   4.574  14.475  0.00  0.00    +0.000 A 
ATOM     30  C   UNL     1       7.456   5.271  13.889  0.00  0.00    +0.000 A 
ATOM     31  C   UNL     1       7.805   5.050  12.549  0.00  0.00    +0.000 A 
ATOM     32  C   UNL     1       7.086   4.126  11.782  0.00  0.00    +0.000 A 
ATOM     33  C   UNL     1       6.025   3.437  12.352  0.00  0.00    +0.000 A 
ATOM     34  C   UNL     1       5.677   3.655  13.687  0.00  0.00    +0.000 A 
ENDBRANCH  28  29
ENDBRANCH  24  28
ENDBRANCH  23  24
ENDBRANCH  21  23
ENDBRANCH   1  21
TORSDOF 7
ENDMDL
