MODEL 1
REMARK VINA RESULT:      -9.5      0.000      0.000
REMARK  Name = 
REMARK  5 active torsions:
REMARK  status: ('A' for Active; 'I' for Inactive)
REMARK    1  A    between atoms: C_2  and  C_5
REMARK    2  A    between atoms: C_7  and  N_8
REMARK    3  A    between atoms: N_8  and  C_9
REMARK    4  A    between atoms: C_12  and  C_13
REMARK    5  A    between atoms: C_13  and  C_14
REMARK                            x       y       z     vdW  Elec       q    Type
REMARK                         _______ _______ _______ _____ _____    ______ ____
ROOT
ATOM      1  C   UNL     1       1.386   8.770  20.205  0.00  0.00    +0.000 A 
ATOM      2  N   UNL     1       1.392   9.095  18.892  0.00  0.00    +0.000 NA
ATOM      3  N   UNL     1       0.658  10.132  18.428  0.00  0.00    +0.000 NA
ATOM      4  C   UNL     1      -0.153  10.818  19.268  0.00  0.00    +0.000 A 
ATOM      5  C   UNL     1      -0.234  10.507  20.640  0.00  0.00    +0.000 A 
ATOM      6  C   UNL     1      -1.135  11.126  21.543  0.00  0.00    +0.000 A 
ATOM      7  C   UNL     1      -1.137  10.817  22.904  0.00  0.00    +0.000 A 
ATOM      8  C   UNL     1      -0.224   9.902  23.404  0.00  0.00    +0.000 A 
ATOM      9  C   UNL     1       0.637   9.240  22.530  0.00  0.00    +0.000 A 
ATOM     10  C   UNL     1       0.623   9.502  21.136  0.00  0.00    +0.000 A 
ENDROOT
BRANCH   1  11
ATOM     11  N   UNL     1       2.098   7.618  20.614  0.00  0.00    +0.000 N 
ATOM     12  H   UNL     1       2.861   7.863  21.232  0.00  0.00    +0.000 HD
BRANCH  11  15
ATOM     13  C   UNL     1       1.816   4.096  19.396  0.00  0.00    +0.000 A 
ATOM     14  C   UNL     1       1.695   5.252  20.198  0.00  0.00    +0.000 A 
ATOM     15  C   UNL     1       2.288   6.463  19.829  0.00  0.00    +0.000 A 
ATOM     16  C   UNL     1       2.978   6.514  18.610  0.00  0.00    +0.000 A 
ATOM     17  C   UNL     1       3.098   5.386  17.797  0.00  0.00    +0.000 A 
ATOM     18  C   UNL     1       2.519   4.182  18.189  0.00  0.00    +0.000 A 
ATOM     19 CL   UNL     1       2.694   2.833  17.125  0.00  0.00    +0.000 Cl
BRANCH  13  21
ATOM     20  F   UNL     1       0.688   2.875  21.115  0.00  0.00    +0.000 F 
ATOM     21  C   UNL     1       1.203   2.802  19.851  0.00  0.00    +0.000 C 
ATOM     22  F   UNL     1       2.094   1.774  19.888  0.00  0.00    +0.000 F 
ATOM     23  F   UNL     1       0.169   2.392  19.067  0.00  0.00    +0.000 F 
ENDBRANCH  13  21
ENDBRANCH  11  15
ENDBRANCH   1  11
BRANCH   4  24
ATOM     24  C   UNL     1      -0.837  12.006  18.630  0.00  0.00    +0.000 C 
BRANCH  24  25
ATOM     25  C   UNL     1      -2.183  11.648  18.041  0.00  0.00    +0.000 A 
ATOM     26  C   UNL     1      -2.287  11.157  16.735  0.00  0.00    +0.000 A 
ATOM     27  C   UNL     1      -3.545  10.918  16.206  0.00  0.00    +0.000 A 
ATOM     28  N   UNL     1      -4.693  11.119  16.887  0.00  0.00    +0.000 NA
ATOM     29  C   UNL     1      -4.574  11.567  18.154  0.00  0.00    +0.000 A 
ATOM     30  C   UNL     1      -3.361  11.839  18.770  0.00  0.00    +0.000 A 
ENDBRANCH  24  25
ENDBRANCH   4  24
TORSDOF 5
ENDMDL
MODEL 2
REMARK VINA RESULT:      -9.4      1.446      1.953
REMARK  Name = 
REMARK  5 active torsions:
REMARK  status: ('A' for Active; 'I' for Inactive)
REMARK    1  A    between atoms: C_2  and  C_5
REMARK    2  A    between atoms: C_7  and  N_8
REMARK    3  A    between atoms: N_8  and  C_9
REMARK    4  A    between atoms: C_12  and  C_13
REMARK    5  A    between atoms: C_13  and  C_14
REMARK                            x       y       z     vdW  Elec       q    Type
REMARK                         _______ _______ _______ _____ _____    ______ ____
ROOT
ATOM      1  C   UNL     1       1.640   8.573  20.034  0.00  0.00    +0.000 A 
ATOM      2  N   UNL     1       1.622   8.927  18.728  0.00  0.00    +0.000 NA
ATOM      3  N   UNL     1       0.866   9.963  18.298  0.00  0.00    +0.000 NA
ATOM      4  C   UNL     1       0.058  10.618  19.164  0.00  0.00    +0.000 A 
ATOM      5  C   UNL     1       0.001  10.276  20.530  0.00  0.00    +0.000 A 
ATOM      6  C   UNL     1      -0.896  10.862  21.458  0.00  0.00    +0.000 A 
ATOM      7  C   UNL     1      -0.874  10.523  22.812  0.00  0.00    +0.000 A 
ATOM      8  C   UNL     1       0.059   9.611  23.280  0.00  0.00    +0.000 A 
ATOM      9  C   UNL     1       0.918   8.982  22.379  0.00  0.00    +0.000 A 
ATOM     10  C   UNL     1       0.880   9.274  20.991  0.00  0.00    +0.000 A 
ENDROOT
BRANCH   1  11
ATOM     11  N   UNL     1       2.375   7.424  20.407  0.00  0.00    +0.000 N 
ATOM     12  H   UNL     1       3.352   7.647  20.548  0.00  0.00    +0.000 HD
BRANCH  11  15
ATOM     13  C   UNL     1       2.589   4.226  18.484  0.00  0.00    +0.000 A 
ATOM     14  C   UNL     1       2.801   5.560  18.898  0.00  0.00    +0.000 A 
ATOM     15  C   UNL     1       2.099   6.111  19.974  0.00  0.00    +0.000 A 
ATOM     16  C   UNL     1       1.202   5.287  20.667  0.00  0.00    +0.000 A 
ATOM     17  C   UNL     1       0.989   3.962  20.282  0.00  0.00    +0.000 A 
ATOM     18  C   UNL     1       1.680   3.435  19.195  0.00  0.00    +0.000 A 
ATOM     19 CL   UNL     1       1.378   1.784  18.787  0.00  0.00    +0.000 Cl
BRANCH  13  21
ATOM     20  F   UNL     1       2.496   3.180  16.336  0.00  0.00    +0.000 F 
ATOM     21  C   UNL     1       3.329   3.686  17.293  0.00  0.00    +0.000 C 
ATOM     22  F   UNL     1       4.172   2.665  17.608  0.00  0.00    +0.000 F 
ATOM     23  F   UNL     1       4.078   4.626  16.654  0.00  0.00    +0.000 F 
ENDBRANCH  13  21
ENDBRANCH  11  15
ENDBRANCH   1  11
BRANCH   4  24
ATOM     24  C   UNL     1      -0.653  11.809  18.562  0.00  0.00    +0.000 C 
BRANCH  24  25
ATOM     25  C   UNL     1      -2.045  11.467  18.080  0.00  0.00    +0.000 A 
ATOM     26  C   UNL     1      -2.239  10.797  16.866  0.00  0.00    +0.000 A 
ATOM     27  C   UNL     1      -3.533  10.575  16.422  0.00  0.00    +0.000 A 
ATOM     28  N   UNL     1      -4.634  10.957  17.105  0.00  0.00    +0.000 NA
ATOM     29  C   UNL     1      -4.428  11.577  18.285  0.00  0.00    +0.000 A 
ATOM     30  C   UNL     1      -3.173  11.847  18.812  0.00  0.00    +0.000 A 
ENDBRANCH  24  25
ENDBRANCH   4  24
TORSDOF 5
ENDMDL
MODEL 3
REMARK VINA RESULT:      -9.3      4.150      8.366
REMARK  Name = 
REMARK  5 active torsions:
REMARK  status: ('A' for Active; 'I' for Inactive)
REMARK    1  A    between atoms: C_2  and  C_5
REMARK    2  A    between atoms: C_7  and  N_8
REMARK    3  A    between atoms: N_8  and  C_9
REMARK    4  A    between atoms: C_12  and  C_13
REMARK    5  A    between atoms: C_13  and  C_14
REMARK                            x       y       z     vdW  Elec       q    Type
REMARK                         _______ _______ _______ _____ _____    ______ ____
ROOT
ATOM      1  C   UNL     1       2.239   6.446  19.947  0.00  0.00    +0.000 A 
ATOM      2  N   UNL     1       2.853   7.042  18.899  0.00  0.00    +0.000 NA
ATOM      3  N   UNL     1       3.263   6.321  17.830  0.00  0.00    +0.000 NA
ATOM      4  C   UNL     1       3.125   4.975  17.827  0.00  0.00    +0.000 A 
ATOM      5  C   UNL     1       2.527   4.288  18.903  0.00  0.00    +0.000 A 
ATOM      6  C   UNL     1       2.445   2.875  18.996  0.00  0.00    +0.000 A 
ATOM      7  C   UNL     1       1.794   2.247  20.058  0.00  0.00    +0.000 A 
ATOM      8  C   UNL     1       1.186   3.010  21.043  0.00  0.00    +0.000 A 
ATOM      9  C   UNL     1       1.297   4.400  21.003  0.00  0.00    +0.000 A 
ATOM     10  C   UNL     1       1.996   5.058  19.959  0.00  0.00    +0.000 A 
ENDROOT
BRANCH   1  11
ATOM     11  N   UNL     1       1.919   7.236  21.075  0.00  0.00    +0.000 N 
ATOM     12  H   UNL     1       1.819   6.664  21.903  0.00  0.00    +0.000 HD
BRANCH  11  15
ATOM     13  C   UNL     1      -0.286   9.977  19.811  0.00  0.00    +0.000 A 
ATOM     14  C   UNL     1       0.545   8.835  19.855  0.00  0.00    +0.000 A 
ATOM     15  C   UNL     1       1.147   8.415  21.045  0.00  0.00    +0.000 A 
ATOM     16  C   UNL     1       0.870   9.137  22.214  0.00  0.00    +0.000 A 
ATOM     17  C   UNL     1       0.041  10.260  22.193  0.00  0.00    +0.000 A 
ATOM     18  C   UNL     1      -0.534  10.678  20.996  0.00  0.00    +0.000 A 
ATOM     19 CL   UNL     1      -1.561  12.065  21.050  0.00  0.00    +0.000 Cl
BRANCH  13  21
ATOM     20  F   UNL     1      -0.470   9.654  17.449  0.00  0.00    +0.000 F 
ATOM     21  C   UNL     1      -0.877  10.422  18.502  0.00  0.00    +0.000 C 
ATOM     22  F   UNL     1      -0.533  11.696  18.169  0.00  0.00    +0.000 F 
ATOM     23  F   UNL     1      -2.237  10.367  18.480  0.00  0.00    +0.000 F 
ENDBRANCH  13  21
ENDBRANCH  11  15
ENDBRANCH   1  11
BRANCH   4  24
ATOM     24  C   UNL     1       3.540   4.316  16.531  0.00  0.00    +0.000 C 
BRANCH  24  25
ATOM     25  C   UNL     1       5.031   4.395  16.296  0.00  0.00    +0.000 A 
ATOM     26  C   UNL     1       5.928   4.418  17.371  0.00  0.00    +0.000 A 
ATOM     27  C   UNL     1       7.280   4.574  17.113  0.00  0.00    +0.000 A 
ATOM     28  N   UNL     1       7.796   4.691  15.871  0.00  0.00    +0.000 NA
ATOM     29  C   UNL     1       6.921   4.640  14.846  0.00  0.00    +0.000 A 
ATOM     30  C   UNL     1       5.551   4.490  15.001  0.00  0.00    +0.000 A 
ENDBRANCH  24  25
ENDBRANCH   4  24
TORSDOF 5
ENDMDL
MODEL 4
REMARK VINA RESULT:      -9.3      1.481      2.194
REMARK  Name = 
REMARK  5 active torsions:
REMARK  status: ('A' for Active; 'I' for Inactive)
REMARK    1  A    between atoms: C_2  and  C_5
REMARK    2  A    between atoms: C_7  and  N_8
REMARK    3  A    between atoms: N_8  and  C_9
REMARK    4  A    between atoms: C_12  and  C_13
REMARK    5  A    between atoms: C_13  and  C_14
REMARK                            x       y       z     vdW  Elec       q    Type
REMARK                         _______ _______ _______ _____ _____    ______ ____
ROOT
ATOM      1  C   UNL     1       1.610   8.528  20.145  0.00  0.00    +0.000 A 
ATOM      2  N   UNL     1       1.619   8.861  18.834  0.00  0.00    +0.000 NA
ATOM      3  N   UNL     1       0.899   9.911  18.376  0.00  0.00    +0.000 NA
ATOM      4  C   UNL     1       0.100  10.604  19.221  0.00  0.00    +0.000 A 
ATOM      5  C   UNL     1       0.016  10.286  20.592  0.00  0.00    +0.000 A 
ATOM      6  C   UNL     1      -0.876  10.913  21.498  0.00  0.00    +0.000 A 
ATOM      7  C   UNL     1      -0.881  10.597  22.858  0.00  0.00    +0.000 A 
ATOM      8  C   UNL     1       0.019   9.665  23.352  0.00  0.00    +0.000 A 
ATOM      9  C   UNL     1       0.870   8.996  22.473  0.00  0.00    +0.000 A 
ATOM     10  C   UNL     1       0.858   9.266  21.081  0.00  0.00    +0.000 A 
ENDROOT
BRANCH   1  11
ATOM     11  N   UNL     1       2.306   7.364  20.547  0.00  0.00    +0.000 N 
ATOM     12  H   UNL     1       3.267   7.577  20.778  0.00  0.00    +0.000 HD
BRANCH  11  15
ATOM     13  C   UNL     1       2.621   4.256  18.495  0.00  0.00    +0.000 A 
ATOM     14  C   UNL     1       2.798   5.575  18.970  0.00  0.00    +0.000 A 
ATOM     15  C   UNL     1       2.064   6.066  20.053  0.00  0.00    +0.000 A 
ATOM     16  C   UNL     1       1.169   5.197  20.691  0.00  0.00    +0.000 A 
ATOM     17  C   UNL     1       0.989   3.886  20.246  0.00  0.00    +0.000 A 
ATOM     18  C   UNL     1       1.713   3.418  19.152  0.00  0.00    +0.000 A 
ATOM     19 CL   UNL     1       1.451   1.781  18.669  0.00  0.00    +0.000 Cl
BRANCH  13  21
ATOM     20  F   UNL     1       4.116   4.777  16.703  0.00  0.00    +0.000 F 
ATOM     21  C   UNL     1       3.396   3.780  17.299  0.00  0.00    +0.000 C 
ATOM     22  F   UNL     1       2.601   3.278  16.315  0.00  0.00    +0.000 F 
ATOM     23  F   UNL     1       4.305   2.812  17.597  0.00  0.00    +0.000 F 
ENDBRANCH  13  21
ENDBRANCH  11  15
ENDBRANCH   1  11
BRANCH   4  24
ATOM     24  C   UNL     1      -0.569  11.805  18.590  0.00  0.00    +0.000 C 
BRANCH  24  25
ATOM     25  C   UNL     1      -1.967  11.498  18.106  0.00  0.00    +0.000 A 
ATOM     26  C   UNL     1      -3.087  11.933  18.824  0.00  0.00    +0.000 A 
ATOM     27  C   UNL     1      -4.349  11.561  18.389  0.00  0.00    +0.000 A 
ATOM     28  N   UNL     1      -4.569  10.806  17.292  0.00  0.00    +0.000 NA
ATOM     29  C   UNL     1      -3.480  10.418  16.596  0.00  0.00    +0.000 A 
ATOM     30  C   UNL     1      -2.178  10.736  16.952  0.00  0.00    +0.000 A 
ENDBRANCH  24  25
ENDBRANCH   4  24
TORSDOF 5
ENDMDL
MODEL 5
REMARK VINA RESULT:      -9.1      4.313      8.482
REMARK  Name = 
REMARK  5 active torsions:
REMARK  status: ('A' for Active; 'I' for Inactive)
REMARK    1  A    between atoms: C_2  and  C_5
REMARK    2  A    between atoms: C_7  and  N_8
REMARK    3  A    between atoms: N_8  and  C_9
REMARK    4  A    between atoms: C_12  and  C_13
REMARK    5  A    between atoms: C_13  and  C_14
REMARK                            x       y       z     vdW  Elec       q    Type
REMARK                         _______ _______ _______ _____ _____    ______ ____
ROOT
ATOM      1  C   UNL     1       2.496   6.431  19.474  0.00  0.00    +0.000 A 
ATOM      2  N   UNL     1       3.255   6.815  18.423  0.00  0.00    +0.000 NA
ATOM      3  N   UNL     1       3.701   5.913  17.518  0.00  0.00    +0.000 NA
ATOM      4  C   UNL     1       3.448   4.595  17.695  0.00  0.00    +0.000 A 
ATOM      5  C   UNL     1       2.694   4.124  18.788  0.00  0.00    +0.000 A 
ATOM      6  C   UNL     1       2.483   2.751  19.074  0.00  0.00    +0.000 A 
ATOM      7  C   UNL     1       1.683   2.339  20.141  0.00  0.00    +0.000 A 
ATOM      8  C   UNL     1       1.053   3.285  20.935  0.00  0.00    +0.000 A 
ATOM      9  C   UNL     1       1.286   4.640  20.708  0.00  0.00    +0.000 A 
ATOM     10  C   UNL     1       2.135   5.081  19.660  0.00  0.00    +0.000 A 
ENDROOT
BRANCH   1  11
ATOM     11  N   UNL     1       2.140   7.404  20.437  0.00  0.00    +0.000 N 
ATOM     12  H   UNL     1       2.017   6.984  21.349  0.00  0.00    +0.000 HD
BRANCH  11  15
ATOM     13  C   UNL     1       0.056  10.454  21.004  0.00  0.00    +0.000 A 
ATOM     14  C   UNL     1       0.784   9.265  21.230  0.00  0.00    +0.000 A 
ATOM     15  C   UNL     1       1.365   8.553  20.177  0.00  0.00    +0.000 A 
ATOM     16  C   UNL     1       1.245   9.075  18.883  0.00  0.00    +0.000 A 
ATOM     17  C   UNL     1       0.542  10.256  18.640  0.00  0.00    +0.000 A 
ATOM     18  C   UNL     1      -0.050  10.943  19.697  0.00  0.00    +0.000 A 
ATOM     19 CL   UNL     1      -0.889  12.405  19.323  0.00  0.00    +0.000 Cl
BRANCH  13  21
ATOM     20  F   UNL     1      -0.430  10.509  23.344  0.00  0.00    +0.000 F 
ATOM     21  C   UNL     1      -0.594  11.165  22.157  0.00  0.00    +0.000 C 
ATOM     22  F   UNL     1      -1.940  11.301  22.009  0.00  0.00    +0.000 F 
ATOM     23  F   UNL     1      -0.097  12.415  22.368  0.00  0.00    +0.000 F 
ENDBRANCH  13  21
ENDBRANCH  11  15
ENDBRANCH   1  11
BRANCH   4  24
ATOM     24  C   UNL     1       3.926   3.719  16.558  0.00  0.00    +0.000 C 
BRANCH  24  25
ATOM     25  C   UNL     1       5.257   4.170  16.003  0.00  0.00    +0.000 A 
ATOM     26  C   UNL     1       6.345   4.410  16.850  0.00  0.00    +0.000 A 
ATOM     27  C   UNL     1       7.522   4.900  16.309  0.00  0.00    +0.000 A 
ATOM     28  N   UNL     1       7.693   5.151  14.993  0.00  0.00    +0.000 NA
ATOM     29  C   UNL     1       6.643   4.888  14.187  0.00  0.00    +0.000 A 
ATOM     30  C   UNL     1       5.424   4.400  14.633  0.00  0.00    +0.000 A 
ENDBRANCH  24  25
ENDBRANCH   4  24
TORSDOF 5
ENDMDL
MODEL 6
REMARK VINA RESULT:      -9.1      4.333      8.430
REMARK  Name = 
REMARK  5 active torsions:
REMARK  status: ('A' for Active; 'I' for Inactive)
REMARK    1  A    between atoms: C_2  and  C_5
REMARK    2  A    between atoms: C_7  and  N_8
REMARK    3  A    between atoms: N_8  and  C_9
REMARK    4  A    between atoms: C_12  and  C_13
REMARK    5  A    between atoms: C_13  and  C_14
REMARK                            x       y       z     vdW  Elec       q    Type
REMARK                         _______ _______ _______ _____ _____    ______ ____
ROOT
ATOM      1  C   UNL     1       2.351   6.580  19.628  0.00  0.00    +0.000 A 
ATOM      2  N   UNL     1       2.998   7.021  18.525  0.00  0.00    +0.000 NA
ATOM      3  N   UNL     1       3.429   6.156  17.578  0.00  0.00    +0.000 NA
ATOM      4  C   UNL     1       3.280   4.823  17.759  0.00  0.00    +0.000 A 
ATOM      5  C   UNL     1       2.648   4.295  18.903  0.00  0.00    +0.000 A 
ATOM      6  C   UNL     1       2.552   2.910  19.189  0.00  0.00    +0.000 A 
ATOM      7  C   UNL     1       1.868   2.439  20.311  0.00  0.00    +0.000 A 
ATOM      8  C   UNL     1       1.241   3.335  21.163  0.00  0.00    +0.000 A 
ATOM      9  C   UNL     1       1.365   4.705  20.933  0.00  0.00    +0.000 A 
ATOM     10  C   UNL     1       2.097   5.208  19.827  0.00  0.00    +0.000 A 
ENDROOT
BRANCH   1  11
ATOM     11  N   UNL     1       2.009   7.521  20.627  0.00  0.00    +0.000 N 
ATOM     12  H   UNL     1       1.911   7.074  21.529  0.00  0.00    +0.000 HD
BRANCH  11  15
ATOM     13  C   UNL     1      -0.163  10.481  21.326  0.00  0.00    +0.000 A 
ATOM     14  C   UNL     1       0.583   9.293  21.496  0.00  0.00    +0.000 A 
ATOM     15  C   UNL     1       1.218   8.669  20.419  0.00  0.00    +0.000 A 
ATOM     16  C   UNL     1       1.132   9.279  19.160  0.00  0.00    +0.000 A 
ATOM     17  C   UNL     1       0.411  10.459  18.974  0.00  0.00    +0.000 A 
ATOM     18  C   UNL     1      -0.234  11.057  20.053  0.00  0.00    +0.000 A 
ATOM     19 CL   UNL     1      -1.093  12.524  19.751  0.00  0.00    +0.000 Cl
BRANCH  13  21
ATOM     20  F   UNL     1      -0.364  12.316  22.845  0.00  0.00    +0.000 F 
ATOM     21  C   UNL     1      -0.871  11.095  22.501  0.00  0.00    +0.000 C 
ATOM     22  F   UNL     1      -0.781  10.341  23.630  0.00  0.00    +0.000 F 
ATOM     23  F   UNL     1      -2.197  11.309  22.279  0.00  0.00    +0.000 F 
ENDBRANCH  13  21
ENDBRANCH  11  15
ENDBRANCH   1  11
BRANCH   4  24
ATOM     24  C   UNL     1       3.723   3.988  16.579  0.00  0.00    +0.000 C 
BRANCH  24  25
ATOM     25  C   UNL     1       5.129   4.320  16.133  0.00  0.00    +0.000 A 
ATOM     26  C   UNL     1       5.428   4.505  14.778  0.00  0.00    +0.000 A 
ATOM     27  C   UNL     1       6.744   4.727  14.406  0.00  0.00    +0.000 A 
ATOM     28  N   UNL     1       7.768   4.791  15.282  0.00  0.00    +0.000 NA
ATOM     29  C   UNL     1       7.459   4.637  16.586  0.00  0.00    +0.000 A 
ATOM     30  C   UNL     1       6.174   4.408  17.058  0.00  0.00    +0.000 A 
ENDBRANCH  24  25
ENDBRANCH   4  24
TORSDOF 5
ENDMDL
MODEL 7
REMARK VINA RESULT:      -8.9      1.686      2.883
REMARK  Name = 
REMARK  5 active torsions:
REMARK  status: ('A' for Active; 'I' for Inactive)
REMARK    1  A    between atoms: C_2  and  C_5
REMARK    2  A    between atoms: C_7  and  N_8
REMARK    3  A    between atoms: N_8  and  C_9
REMARK    4  A    between atoms: C_12  and  C_13
REMARK    5  A    between atoms: C_13  and  C_14
REMARK                            x       y       z     vdW  Elec       q    Type
REMARK                         _______ _______ _______ _____ _____    ______ ____
ROOT
ATOM      1  C   UNL     1       1.342   8.822  20.238  0.00  0.00    +0.000 A 
ATOM      2  N   UNL     1       1.423   9.140  18.926  0.00  0.00    +0.000 NA
ATOM      3  N   UNL     1       0.754  10.204  18.424  0.00  0.00    +0.000 NA
ATOM      4  C   UNL     1      -0.065  10.927  19.222  0.00  0.00    +0.000 A 
ATOM      5  C   UNL     1      -0.223  10.627  20.590  0.00  0.00    +0.000 A 
ATOM      6  C   UNL     1      -1.139  11.288  21.447  0.00  0.00    +0.000 A 
ATOM      7  C   UNL     1      -1.217  10.988  22.808  0.00  0.00    +0.000 A 
ATOM      8  C   UNL     1      -0.367  10.039  23.354  0.00  0.00    +0.000 A 
ATOM      9  C   UNL     1       0.506   9.337  22.524  0.00  0.00    +0.000 A 
ATOM     10  C   UNL     1       0.568   9.591  21.130  0.00  0.00    +0.000 A 
ENDROOT
BRANCH   1  11
ATOM     11  N   UNL     1       1.987   7.645  20.685  0.00  0.00    +0.000 N 
ATOM     12  H   UNL     1       2.700   7.859  21.369  0.00  0.00    +0.000 HD
BRANCH  11  15
ATOM     13  C   UNL     1       1.790   4.126  19.442  0.00  0.00    +0.000 A 
ATOM     14  C   UNL     1       1.633   5.275  20.248  0.00  0.00    +0.000 A 
ATOM     15  C   UNL     1       2.212   6.498  19.897  0.00  0.00    +0.000 A 
ATOM     16  C   UNL     1       2.925   6.568  18.692  0.00  0.00    +0.000 A 
ATOM     17  C   UNL     1       3.080   5.447  17.876  0.00  0.00    +0.000 A 
ATOM     18  C   UNL     1       2.515   4.231  18.250  0.00  0.00    +0.000 A 
ATOM     19 CL   UNL     1       2.734   2.891  17.182  0.00  0.00    +0.000 Cl
BRANCH  13  21
ATOM     20  F   UNL     1       2.093   1.793  19.872  0.00  0.00    +0.000 F 
ATOM     21  C   UNL     1       1.190   2.819  19.878  0.00  0.00    +0.000 C 
ATOM     22  F   UNL     1       0.174   2.404  19.073  0.00  0.00    +0.000 F 
ATOM     23  F   UNL     1       0.695   2.851  21.146  0.00  0.00    +0.000 F 
ENDBRANCH  13  21
ENDBRANCH  11  15
ENDBRANCH   1  11
BRANCH   4  24
ATOM     24  C   UNL     1      -0.670  12.138  18.548  0.00  0.00    +0.000 C 
BRANCH  24  25
ATOM     25  C   UNL     1       0.162  13.384  18.747  0.00  0.00    +0.000 A 
ATOM     26  C   UNL     1      -0.413  14.559  19.245  0.00  0.00    +0.000 A 
ATOM     27  C   UNL     1       0.366  15.702  19.335  0.00  0.00    +0.000 A 
ATOM     28  N   UNL     1       1.668  15.748  18.982  0.00  0.00    +0.000 NA
ATOM     29  C   UNL     1       2.214  14.600  18.530  0.00  0.00    +0.000 A 
ATOM     30  C   UNL     1       1.516  13.408  18.400  0.00  0.00    +0.000 A 
ENDBRANCH  24  25
ENDBRANCH   4  24
TORSDOF 5
ENDMDL
MODEL 8
REMARK VINA RESULT:      -8.9      2.222      3.352
REMARK  Name = 
REMARK  5 active torsions:
REMARK  status: ('A' for Active; 'I' for Inactive)
REMARK    1  A    between atoms: C_2  and  C_5
REMARK    2  A    between atoms: C_7  and  N_8
REMARK    3  A    between atoms: N_8  and  C_9
REMARK    4  A    between atoms: C_12  and  C_13
REMARK    5  A    between atoms: C_13  and  C_14
REMARK                            x       y       z     vdW  Elec       q    Type
REMARK                         _______ _______ _______ _____ _____    ______ ____
ROOT
ATOM      1  C   UNL     1       1.661   8.513  20.008  0.00  0.00    +0.000 A 
ATOM      2  N   UNL     1       1.649   8.842  18.696  0.00  0.00    +0.000 NA
ATOM      3  N   UNL     1       0.903   9.877  18.245  0.00  0.00    +0.000 NA
ATOM      4  C   UNL     1       0.101  10.557  19.097  0.00  0.00    +0.000 A 
ATOM      5  C   UNL     1       0.039  10.241  20.470  0.00  0.00    +0.000 A 
ATOM      6  C   UNL     1      -0.853  10.854  21.385  0.00  0.00    +0.000 A 
ATOM      7  C   UNL     1      -0.836  10.542  22.746  0.00  0.00    +0.000 A 
ATOM      8  C   UNL     1       0.088   9.629  23.232  0.00  0.00    +0.000 A 
ATOM      9  C   UNL     1       0.941   8.974  22.344  0.00  0.00    +0.000 A 
ATOM     10  C   UNL     1       0.907   9.240  20.951  0.00  0.00    +0.000 A 
ENDROOT
BRANCH   1  11
ATOM     11  N   UNL     1       2.384   7.364  20.405  0.00  0.00    +0.000 N 
ATOM     12  H   UNL     1       3.359   7.585  20.565  0.00  0.00    +0.000 HD
BRANCH  11  15
ATOM     13  C   UNL     1       2.603   4.167  18.481  0.00  0.00    +0.000 A 
ATOM     14  C   UNL     1       2.810   5.503  18.893  0.00  0.00    +0.000 A 
ATOM     15  C   UNL     1       2.113   6.049  19.974  0.00  0.00    +0.000 A 
ATOM     16  C   UNL     1       1.227   5.220  20.675  0.00  0.00    +0.000 A 
ATOM     17  C   UNL     1       1.020   3.893  20.292  0.00  0.00    +0.000 A 
ATOM     18  C   UNL     1       1.705   3.370  19.199  0.00  0.00    +0.000 A 
ATOM     19 CL   UNL     1       1.410   1.718  18.794  0.00  0.00    +0.000 Cl
BRANCH  13  21
ATOM     20  F   UNL     1       4.107   4.577  16.667  0.00  0.00    +0.000 F 
ATOM     21  C   UNL     1       3.338   3.631  17.284  0.00  0.00    +0.000 C 
ATOM     22  F   UNL     1       2.505   3.162  16.315  0.00  0.00    +0.000 F 
ATOM     23  F   UNL     1       4.193   2.617  17.588  0.00  0.00    +0.000 F 
ENDBRANCH  13  21
ENDBRANCH  11  15
ENDBRANCH   1  11
BRANCH   4  24
ATOM     24  C   UNL     1      -0.598  11.743  18.471  0.00  0.00    +0.000 C 
BRANCH  24  25
ATOM     25  C   UNL     1       0.165  13.033  18.670  0.00  0.00    +0.000 A 
ATOM     26  C   UNL     1      -0.493  14.203  19.066  0.00  0.00    +0.000 A 
ATOM     27  C   UNL     1       0.231  15.381  19.157  0.00  0.00    +0.000 A 
ATOM     28  N   UNL     1       1.553  15.469  18.899  0.00  0.00    +0.000 NA
ATOM     29  C   UNL     1       2.177  14.326  18.545  0.00  0.00    +0.000 A 
ATOM     30  C   UNL     1       1.540  13.100  18.423  0.00  0.00    +0.000 A 
ENDBRANCH  24  25
ENDBRANCH   4  24
TORSDOF 5
ENDMDL
MODEL 9
REMARK VINA RESULT:      -8.9      1.678      2.710
REMARK  Name = 
REMARK  5 active torsions:
REMARK  status: ('A' for Active; 'I' for Inactive)
REMARK    1  A    between atoms: C_2  and  C_5
REMARK    2  A    between atoms: C_7  and  N_8
REMARK    3  A    between atoms: N_8  and  C_9
REMARK    4  A    between atoms: C_12  and  C_13
REMARK    5  A    between atoms: C_13  and  C_14
REMARK                            x       y       z     vdW  Elec       q    Type
REMARK                         _______ _______ _______ _____ _____    ______ ____
ROOT
ATOM      1  C   UNL     1       1.349   8.832  20.233  0.00  0.00    +0.000 A 
ATOM      2  N   UNL     1       1.429   9.144  18.919  0.00  0.00    +0.000 NA
ATOM      3  N   UNL     1       0.760  10.205  18.413  0.00  0.00    +0.000 NA
ATOM      4  C   UNL     1      -0.060  10.931  19.209  0.00  0.00    +0.000 A 
ATOM      5  C   UNL     1      -0.218  10.637  20.578  0.00  0.00    +0.000 A 
ATOM      6  C   UNL     1      -1.135  11.300  21.432  0.00  0.00    +0.000 A 
ATOM      7  C   UNL     1      -1.213  11.005  22.794  0.00  0.00    +0.000 A 
ATOM      8  C   UNL     1      -0.361  10.059  23.345  0.00  0.00    +0.000 A 
ATOM      9  C   UNL     1       0.512   9.355  22.517  0.00  0.00    +0.000 A 
ATOM     10  C   UNL     1       0.574   9.604  21.122  0.00  0.00    +0.000 A 
ENDROOT
BRANCH   1  11
ATOM     11  N   UNL     1       1.995   7.657  20.684  0.00  0.00    +0.000 N 
ATOM     12  H   UNL     1       2.710   7.875  21.366  0.00  0.00    +0.000 HD
BRANCH  11  15
ATOM     13  C   UNL     1       1.802   4.130  19.463  0.00  0.00    +0.000 A 
ATOM     14  C   UNL     1       1.645   5.284  20.263  0.00  0.00    +0.000 A 
ATOM     15  C   UNL     1       2.219   6.506  19.902  0.00  0.00    +0.000 A 
ATOM     16  C   UNL     1       2.925   6.572  18.693  0.00  0.00    +0.000 A 
ATOM     17  C   UNL     1       3.079   5.446  17.882  0.00  0.00    +0.000 A 
ATOM     18  C   UNL     1       2.519   4.231  18.266  0.00  0.00    +0.000 A 
ATOM     19 CL   UNL     1       2.736   2.886  17.205  0.00  0.00    +0.000 Cl
BRANCH  13  21
ATOM     20  F   UNL     1       0.702   2.878  21.177  0.00  0.00    +0.000 F 
ATOM     21  C   UNL     1       1.208   2.824  19.910  0.00  0.00    +0.000 C 
ATOM     22  F   UNL     1       2.113   1.807  19.930  0.00  0.00    +0.000 F 
ATOM     23  F   UNL     1       0.174   2.408  19.129  0.00  0.00    +0.000 F 
ENDBRANCH  13  21
ENDBRANCH  11  15
ENDBRANCH   1  11
BRANCH   4  24
ATOM     24  C   UNL     1      -0.666  12.139  18.530  0.00  0.00    +0.000 C 
BRANCH  24  25
ATOM     25  C   UNL     1       0.204  13.369  18.656  0.00  0.00    +0.000 A 
ATOM     26  C   UNL     1       1.571  13.314  18.362  0.00  0.00    +0.000 A 
ATOM     27  C   UNL     1       2.348  14.442  18.569  0.00  0.00    +0.000 A 
ATOM     28  N   UNL     1       1.858  15.613  19.030  0.00  0.00    +0.000 NA
ATOM     29  C   UNL     1       0.534  15.656  19.283  0.00  0.00    +0.000 A 
ATOM     30  C   UNL     1      -0.325  14.581  19.111  0.00  0.00    +0.000 A 
ENDBRANCH  24  25
ENDBRANCH   4  24
TORSDOF 5
ENDMDL
