MODEL 1
REMARK VINA RESULT:      -9.0      0.000      0.000
REMARK  Name = 
REMARK  8 active torsions:
REMARK  status: ('A' for Active; 'I' for Inactive)
REMARK    1  A    between atoms: C_1  and  O_2
REMARK    2  A    between atoms: O_2  and  C_3
REMARK    3  A    between atoms: C_5  and  O_6
REMARK    4  A    between atoms: O_6  and  C_7
REMARK    5  A    between atoms: C_7  and  C_8
REMARK    6  A    between atoms: C_22  and  C_23
REMARK    7  A    between atoms: N_30  and  C_31
REMARK    8  A    between atoms: N_34  and  C_35
REMARK                            x       y       z     vdW  Elec       q    Type
REMARK                         _______ _______ _______ _____ _____    ______ ____
ROOT
ATOM      1  C   UNL     1       0.284  10.623  20.950  0.00  0.00    +0.000 A 
ATOM      2  C   UNL     1       0.933   9.912  19.920  0.00  0.00    +0.000 A 
ATOM      3  C   UNL     1       0.494   9.973  18.595  0.00  0.00    +0.000 A 
ATOM      4  C   UNL     1      -0.626  10.732  18.293  0.00  0.00    +0.000 A 
ATOM      5  C   UNL     1      -1.310  11.405  19.319  0.00  0.00    +0.000 A 
ATOM      6  C   UNL     1      -0.880  11.369  20.665  0.00  0.00    +0.000 A 
ENDROOT
BRANCH   6   7
ATOM      7  C   UNL     1      -1.614  12.181  21.672  0.00  0.00    +0.000 A 
ATOM      8  C   UNL     1      -2.981  12.410  21.830  0.00  0.00    +0.000 A 
ATOM      9  C   UNL     1      -3.147  13.490  22.720  0.00  0.00    +0.000 A 
ATOM     10  C   UNL     1      -1.916  13.806  23.214  0.00  0.00    +0.000 A 
ATOM     11  N   UNL     1      -1.001  12.963  22.642  0.00  0.00    +0.000 N 
ATOM     12  C   UNL     1      -1.682  14.883  24.125  0.00  0.00    +0.000 A 
ATOM     13  O   UNL     1      -0.566  15.142  24.565  0.00  0.00    +0.000 OA
ATOM     14  N   UNL     1      -2.836  15.605  24.427  0.00  0.00    +0.000 N 
ATOM     15  C   UNL     1      -2.719  16.779  25.270  0.00  0.00    +0.000 C 
ATOM     16  C   UNL     1      -4.126  15.344  23.924  0.00  0.00    +0.000 A 
ATOM     17  O   UNL     1      -5.080  16.061  24.212  0.00  0.00    +0.000 OA
ATOM     18  N   UNL     1      -4.263  14.233  23.069  0.00  0.00    +0.000 N 
ATOM     19  C   UNL     1      -5.560  13.965  22.471  0.00  0.00    +0.000 C 
ATOM     20  H   UNL     1      -0.001  12.985  22.809  0.00  0.00    +0.000 HD
ENDBRANCH   6   7
BRANCH   1  22
ATOM     21  C   UNL     1       0.332   9.438  23.003  0.00  0.00    +0.000 C 
ATOM     22  O   UNL     1       0.735  10.583  22.251  0.00  0.00    +0.000 OA
ENDBRANCH   1  22
BRANCH   3  23
ATOM     23  O   UNL     1       1.176   9.178  17.715  0.00  0.00    +0.000 OA
BRANCH  23  24
ATOM     24  C   UNL     1       2.555   8.960  17.953  0.00  0.00    +0.000 C 
BRANCH  24  25
ATOM     25  C   UNL     1       3.206   7.581  17.723  0.00  0.00    +0.000 C 
ATOM     26  O   UNL     1       4.233   7.516  17.037  0.00  0.00    +0.000 OA
ATOM     27  N   UNL     1       2.606   6.440  18.213  0.00  0.00    +0.000 N 
ATOM     28  C   UNL     1       2.968   5.148  17.623  0.00  0.00    +0.000 C 
ATOM     29  C   UNL     1       1.775   4.171  17.691  0.00  0.00    +0.000 C 
ATOM     30  C   UNL     1       1.515   3.922  19.158  0.00  0.00    +0.000 A 
ATOM     31  C   UNL     1       1.260   2.642  19.645  0.00  0.00    +0.000 A 
ATOM     32  C   UNL     1       1.567   2.362  20.972  0.00  0.00    +0.000 A 
ATOM     33  C   UNL     1       2.117   3.358  21.786  0.00  0.00    +0.000 A 
ATOM     34  C   UNL     1       2.201   4.679  21.334  0.00  0.00    +0.000 A 
ATOM     35  C   UNL     1       1.817   4.985  20.032  0.00  0.00    +0.000 A 
ATOM     36  C   UNL     1       1.824   6.385  19.450  0.00  0.00    +0.000 C 
ENDBRANCH  24  25
ENDBRANCH  23  24
ENDBRANCH   3  23
TORSDOF 5
ENDMDL
MODEL 2
REMARK VINA RESULT:      -8.9      3.705      5.948
REMARK  Name = 
REMARK  8 active torsions:
REMARK  status: ('A' for Active; 'I' for Inactive)
REMARK    1  A    between atoms: C_1  and  O_2
REMARK    2  A    between atoms: O_2  and  C_3
REMARK    3  A    between atoms: C_5  and  O_6
REMARK    4  A    between atoms: O_6  and  C_7
REMARK    5  A    between atoms: C_7  and  C_8
REMARK    6  A    between atoms: C_22  and  C_23
REMARK    7  A    between atoms: N_30  and  C_31
REMARK    8  A    between atoms: N_34  and  C_35
REMARK                            x       y       z     vdW  Elec       q    Type
REMARK                         _______ _______ _______ _____ _____    ______ ____
ROOT
ATOM      1  C   UNL     1       1.457   8.356  20.387  0.00  0.00    +0.000 A 
ATOM      2  C   UNL     1       1.831   7.004  20.532  0.00  0.00    +0.000 A 
ATOM      3  C   UNL     1       2.414   6.287  19.486  0.00  0.00    +0.000 A 
ATOM      4  C   UNL     1       2.603   6.915  18.264  0.00  0.00    +0.000 A 
ATOM      5  C   UNL     1       2.189   8.246  18.093  0.00  0.00    +0.000 A 
ATOM      6  C   UNL     1       1.608   8.998  19.138  0.00  0.00    +0.000 A 
ENDROOT
BRANCH   6   7
ATOM      7  C   UNL     1       1.277  10.427  18.893  0.00  0.00    +0.000 A 
ATOM      8  C   UNL     1       2.064  11.468  18.400  0.00  0.00    +0.000 A 
ATOM      9  C   UNL     1       1.398  12.684  18.655  0.00  0.00    +0.000 A 
ATOM     10  C   UNL     1       0.163  12.378  19.148  0.00  0.00    +0.000 A 
ATOM     11  N   UNL     1       0.060  11.014  19.216  0.00  0.00    +0.000 N 
ATOM     12  C   UNL     1      -0.791  13.361  19.558  0.00  0.00    +0.000 A 
ATOM     13  O   UNL     1      -1.901  13.063  19.988  0.00  0.00    +0.000 OA
ATOM     14  N   UNL     1      -0.315  14.667  19.441  0.00  0.00    +0.000 N 
ATOM     15  C   UNL     1      -1.152  15.755  19.910  0.00  0.00    +0.000 C 
ATOM     16  C   UNL     1       0.959  15.040  18.970  0.00  0.00    +0.000 A 
ATOM     17  O   UNL     1       1.310  16.217  18.942  0.00  0.00    +0.000 OA
ATOM     18  N   UNL     1       1.811  14.001  18.545  0.00  0.00    +0.000 N 
ATOM     19  C   UNL     1       3.159  14.331  18.115  0.00  0.00    +0.000 C 
ATOM     20  H   UNL     1      -0.743  10.505  19.567  0.00  0.00    +0.000 HD
ENDBRANCH   6   7
BRANCH   1  22
ATOM     21  C   UNL     1      -0.364   8.606  21.885  0.00  0.00    +0.000 C 
ATOM     22  O   UNL     1       0.907   9.070  21.430  0.00  0.00    +0.000 OA
ENDBRANCH   1  22
BRANCH   3  23
ATOM     23  O   UNL     1       2.662   4.967  19.747  0.00  0.00    +0.000 OA
BRANCH  23  24
ATOM     24  C   UNL     1       3.087   4.150  18.671  0.00  0.00    +0.000 C 
BRANCH  24  25
ATOM     25  C   UNL     1       4.579   3.840  18.432  0.00  0.00    +0.000 C 
ATOM     26  O   UNL     1       5.202   3.212  19.297  0.00  0.00    +0.000 OA
ATOM     27  N   UNL     1       5.216   4.322  17.309  0.00  0.00    +0.000 N 
ATOM     28  C   UNL     1       6.680   4.412  17.315  0.00  0.00    +0.000 C 
ATOM     29  C   UNL     1       7.152   5.583  16.427  0.00  0.00    +0.000 C 
ATOM     30  C   UNL     1       6.743   5.235  15.014  0.00  0.00    +0.000 A 
ATOM     31  C   UNL     1       7.607   5.426  13.939  0.00  0.00    +0.000 A 
ATOM     32  C   UNL     1       7.449   4.631  12.810  0.00  0.00    +0.000 A 
ATOM     33  C   UNL     1       6.437   3.667  12.771  0.00  0.00    +0.000 A 
ATOM     34  C   UNL     1       5.472   3.609  13.782  0.00  0.00    +0.000 A 
ATOM     35  C   UNL     1       5.574   4.459  14.879  0.00  0.00    +0.000 A 
ATOM     36  C   UNL     1       4.566   4.515  16.010  0.00  0.00    +0.000 C 
ENDBRANCH  24  25
ENDBRANCH  23  24
ENDBRANCH   3  23
TORSDOF 5
ENDMDL
MODEL 3
REMARK VINA RESULT:      -8.8      3.684      5.406
REMARK  Name = 
REMARK  8 active torsions:
REMARK  status: ('A' for Active; 'I' for Inactive)
REMARK    1  A    between atoms: C_1  and  O_2
REMARK    2  A    between atoms: O_2  and  C_3
REMARK    3  A    between atoms: C_5  and  O_6
REMARK    4  A    between atoms: O_6  and  C_7
REMARK    5  A    between atoms: C_7  and  C_8
REMARK    6  A    between atoms: C_22  and  C_23
REMARK    7  A    between atoms: N_30  and  C_31
REMARK    8  A    between atoms: N_34  and  C_35
REMARK                            x       y       z     vdW  Elec       q    Type
REMARK                         _______ _______ _______ _____ _____    ______ ____
ROOT
ATOM      1  C   UNL     1       0.890   9.983  21.012  0.00  0.00    +0.000 A 
ATOM      2  C   UNL     1       1.022   8.622  21.356  0.00  0.00    +0.000 A 
ATOM      3  C   UNL     1       1.511   7.679  20.449  0.00  0.00    +0.000 A 
ATOM      4  C   UNL     1       1.847   8.090  19.169  0.00  0.00    +0.000 A 
ATOM      5  C   UNL     1       1.673   9.434  18.799  0.00  0.00    +0.000 A 
ATOM      6  C   UNL     1       1.192  10.410  19.700  0.00  0.00    +0.000 A 
ENDROOT
BRANCH   6   7
ATOM      7  C   UNL     1       1.120  11.825  19.250  0.00  0.00    +0.000 A 
ATOM      8  C   UNL     1       2.045  12.603  18.553  0.00  0.00    +0.000 A 
ATOM      9  C   UNL     1       1.647  13.952  18.648  0.00  0.00    +0.000 A 
ATOM     10  C   UNL     1       0.425  13.976  19.253  0.00  0.00    +0.000 A 
ATOM     11  N   UNL     1       0.070  12.686  19.543  0.00  0.00    +0.000 N 
ATOM     12  C   UNL     1      -0.285  15.181  19.555  0.00  0.00    +0.000 A 
ATOM     13  O   UNL     1      -1.389  15.178  20.089  0.00  0.00    +0.000 OA
ATOM     14  N   UNL     1       0.419  16.333  19.204  0.00  0.00    +0.000 N 
ATOM     15  C   UNL     1      -0.151  17.623  19.540  0.00  0.00    +0.000 C 
ATOM     16  C   UNL     1       1.695  16.369  18.608  0.00  0.00    +0.000 A 
ATOM     17  O   UNL     1       2.259  17.434  18.372  0.00  0.00    +0.000 OA
ATOM     18  N   UNL     1       2.292  15.129  18.306  0.00  0.00    +0.000 N 
ATOM     19  C   UNL     1       3.636  15.115  17.753  0.00  0.00    +0.000 C 
ATOM     20  H   UNL     1      -0.782  12.406  20.017  0.00  0.00    +0.000 HD
ENDBRANCH   6   7
BRANCH   1  22
ATOM     21  C   UNL     1      -0.556  10.447  22.833  0.00  0.00    +0.000 C 
ATOM     22  O   UNL     1       0.433  10.916  21.917  0.00  0.00    +0.000 OA
ENDBRANCH   1  22
BRANCH   3  23
ATOM     23  O   UNL     1       1.519   6.386  20.896  0.00  0.00    +0.000 OA
BRANCH  23  24
ATOM     24  C   UNL     1       1.656   5.356  19.934  0.00  0.00    +0.000 C 
BRANCH  24  25
ATOM     25  C   UNL     1       2.915   4.467  19.874  0.00  0.00    +0.000 C 
ATOM     26  O   UNL     1       3.021   3.530  20.674  0.00  0.00    +0.000 OA
ATOM     27  N   UNL     1       3.932   4.766  18.992  0.00  0.00    +0.000 N 
ATOM     28  C   UNL     1       5.267   4.216  19.248  0.00  0.00    +0.000 C 
ATOM     29  C   UNL     1       6.355   5.172  18.713  0.00  0.00    +0.000 C 
ATOM     30  C   UNL     1       6.182   5.213  17.212  0.00  0.00    +0.000 A 
ATOM     31  C   UNL     1       7.274   5.148  16.351  0.00  0.00    +0.000 A 
ATOM     32  C   UNL     1       7.082   4.647  15.070  0.00  0.00    +0.000 A 
ATOM     33  C   UNL     1       5.810   4.223  14.670  0.00  0.00    +0.000 A 
ATOM     34  C   UNL     1       4.695   4.460  15.480  0.00  0.00    +0.000 A 
ATOM     35  C   UNL     1       4.868   5.039  16.734  0.00  0.00    +0.000 A 
ATOM     36  C   UNL     1       3.731   5.380  17.678  0.00  0.00    +0.000 C 
ENDBRANCH  24  25
ENDBRANCH  23  24
ENDBRANCH   3  23
TORSDOF 5
ENDMDL
MODEL 4
REMARK VINA RESULT:      -8.7      3.294     10.467
REMARK  Name = 
REMARK  8 active torsions:
REMARK  status: ('A' for Active; 'I' for Inactive)
REMARK    1  A    between atoms: C_1  and  O_2
REMARK    2  A    between atoms: O_2  and  C_3
REMARK    3  A    between atoms: C_5  and  O_6
REMARK    4  A    between atoms: O_6  and  C_7
REMARK    5  A    between atoms: C_7  and  C_8
REMARK    6  A    between atoms: C_22  and  C_23
REMARK    7  A    between atoms: N_30  and  C_31
REMARK    8  A    between atoms: N_34  and  C_35
REMARK                            x       y       z     vdW  Elec       q    Type
REMARK                         _______ _______ _______ _____ _____    ______ ____
ROOT
ATOM      1  C   UNL     1       0.524   9.831  20.271  0.00  0.00    +0.000 A 
ATOM      2  C   UNL     1      -0.093  10.907  20.941  0.00  0.00    +0.000 A 
ATOM      3  C   UNL     1      -0.371  10.859  22.308  0.00  0.00    +0.000 A 
ATOM      4  C   UNL     1      -0.056   9.711  23.018  0.00  0.00    +0.000 A 
ATOM      5  C   UNL     1       0.514   8.613  22.352  0.00  0.00    +0.000 A 
ATOM      6  C   UNL     1       0.817   8.640  20.972  0.00  0.00    +0.000 A 
ENDROOT
BRANCH   6   7
ATOM      7  C   UNL     1       1.498   7.465  20.367  0.00  0.00    +0.000 A 
ATOM      8  C   UNL     1       1.498   6.122  20.745  0.00  0.00    +0.000 A 
ATOM      9  C   UNL     1       2.538   5.469  20.053  0.00  0.00    +0.000 A 
ATOM     10  C   UNL     1       3.054   6.358  19.157  0.00  0.00    +0.000 A 
ATOM     11  N   UNL     1       2.372   7.538  19.290  0.00  0.00    +0.000 N 
ATOM     12  C   UNL     1       4.157   6.062  18.295  0.00  0.00    +0.000 A 
ATOM     13  O   UNL     1       4.598   6.875  17.488  0.00  0.00    +0.000 OA
ATOM     14  N   UNL     1       4.679   4.784  18.493  0.00  0.00    +0.000 N 
ATOM     15  C   UNL     1       5.858   4.393  17.744  0.00  0.00    +0.000 C 
ATOM     16  C   UNL     1       4.207   3.837  19.423  0.00  0.00    +0.000 A 
ATOM     17  O   UNL     1       4.757   2.748  19.559  0.00  0.00    +0.000 OA
ATOM     18  N   UNL     1       3.086   4.205  20.194  0.00  0.00    +0.000 N 
ATOM     19  C   UNL     1       2.607   3.288  21.214  0.00  0.00    +0.000 C 
ATOM     20  H   UNL     1       2.560   8.384  18.764  0.00  0.00    +0.000 HD
ENDBRANCH   6   7
BRANCH   1  22
ATOM     21  C   UNL     1       1.566  11.038  18.516  0.00  0.00    +0.000 C 
ATOM     22  O   UNL     1       0.823   9.891  18.927  0.00  0.00    +0.000 OA
ENDBRANCH   1  22
BRANCH   3  23
ATOM     23  O   UNL     1      -1.034  11.946  22.810  0.00  0.00    +0.000 OA
BRANCH  23  24
ATOM     24  C   UNL     1      -1.208  13.063  21.958  0.00  0.00    +0.000 C 
BRANCH  24  25
ATOM     25  C   UNL     1      -0.336  14.328  22.095  0.00  0.00    +0.000 C 
ATOM     26  O   UNL     1      -0.090  14.762  23.226  0.00  0.00    +0.000 OA
ATOM     27  N   UNL     1       0.093  14.999  20.969  0.00  0.00    +0.000 N 
ATOM     28  C   UNL     1       0.515  16.397  21.102  0.00  0.00    +0.000 C 
ATOM     29  C   UNL     1       0.227  17.173  19.799  0.00  0.00    +0.000 C 
ATOM     30  C   UNL     1       1.103  16.554  18.735  0.00  0.00    +0.000 A 
ATOM     31  C   UNL     1       1.811  17.339  17.828  0.00  0.00    +0.000 A 
ATOM     32  C   UNL     1       2.972  16.821  17.266  0.00  0.00    +0.000 A 
ATOM     33  C   UNL     1       3.403  15.536  17.613  0.00  0.00    +0.000 A 
ATOM     34  C   UNL     1       2.590  14.698  18.383  0.00  0.00    +0.000 A 
ATOM     35  C   UNL     1       1.385  15.181  18.883  0.00  0.00    +0.000 A 
ATOM     36  C   UNL     1       0.406  14.352  19.692  0.00  0.00    +0.000 C 
ENDBRANCH  24  25
ENDBRANCH  23  24
ENDBRANCH   3  23
TORSDOF 5
ENDMDL
MODEL 5
REMARK VINA RESULT:      -8.6      1.657      2.726
REMARK  Name = 
REMARK  8 active torsions:
REMARK  status: ('A' for Active; 'I' for Inactive)
REMARK    1  A    between atoms: C_1  and  O_2
REMARK    2  A    between atoms: O_2  and  C_3
REMARK    3  A    between atoms: C_5  and  O_6
REMARK    4  A    between atoms: O_6  and  C_7
REMARK    5  A    between atoms: C_7  and  C_8
REMARK    6  A    between atoms: C_22  and  C_23
REMARK    7  A    between atoms: N_30  and  C_31
REMARK    8  A    between atoms: N_34  and  C_35
REMARK                            x       y       z     vdW  Elec       q    Type
REMARK                         _______ _______ _______ _____ _____    ______ ____
ROOT
ATOM      1  C   UNL     1      -1.664  10.823  18.417  0.00  0.00    +0.000 A 
ATOM      2  C   UNL     1      -0.722  10.000  17.768  0.00  0.00    +0.000 A 
ATOM      3  C   UNL     1       0.612   9.945  18.178  0.00  0.00    +0.000 A 
ATOM      4  C   UNL     1       1.024  10.743  19.234  0.00  0.00    +0.000 A 
ATOM      5  C   UNL     1       0.105  11.604  19.857  0.00  0.00    +0.000 A 
ATOM      6  C   UNL     1      -1.252  11.670  19.470  0.00  0.00    +0.000 A 
ENDROOT
BRANCH   6   7
ATOM      7  C   UNL     1      -2.174  12.546  20.241  0.00  0.00    +0.000 A 
ATOM      8  C   UNL     1      -1.929  13.729  20.939  0.00  0.00    +0.000 A 
ATOM      9  C   UNL     1      -3.046  13.998  21.755  0.00  0.00    +0.000 A 
ATOM     10  C   UNL     1      -4.012  13.088  21.441  0.00  0.00    +0.000 A 
ATOM     11  N   UNL     1      -3.514  12.261  20.469  0.00  0.00    +0.000 N 
ATOM     12  C   UNL     1      -5.282  13.026  22.094  0.00  0.00    +0.000 A 
ATOM     13  O   UNL     1      -6.141  12.204  21.787  0.00  0.00    +0.000 OA
ATOM     14  N   UNL     1      -5.420  13.966  23.115  0.00  0.00    +0.000 N 
ATOM     15  C   UNL     1      -6.629  13.948  23.916  0.00  0.00    +0.000 C 
ATOM     16  C   UNL     1      -4.447  14.908  23.503  0.00  0.00    +0.000 A 
ATOM     17  O   UNL     1      -4.639  15.672  24.445  0.00  0.00    +0.000 OA
ATOM     18  N   UNL     1      -3.245  14.922  22.768  0.00  0.00    +0.000 N 
ATOM     19  C   UNL     1      -2.186  15.829  23.175  0.00  0.00    +0.000 C 
ATOM     20  H   UNL     1      -4.008  11.475  20.061  0.00  0.00    +0.000 HD
ENDBRANCH   6   7
BRANCH   1  22
ATOM     21  C   UNL     1      -3.241  10.424  16.692  0.00  0.00    +0.000 C 
ATOM     22  O   UNL     1      -2.986  10.855  18.029  0.00  0.00    +0.000 OA
ENDBRANCH   1  22
BRANCH   3  23
ATOM     23  O   UNL     1       1.428   9.157  17.413  0.00  0.00    +0.000 OA
BRANCH  23  24
ATOM     24  C   UNL     1       2.707   8.834  17.929  0.00  0.00    +0.000 C 
BRANCH  24  25
ATOM     25  C   UNL     1       3.334   7.440  17.722  0.00  0.00    +0.000 C 
ATOM     26  O   UNL     1       4.369   7.347  17.051  0.00  0.00    +0.000 OA
ATOM     27  N   UNL     1       2.704   6.317  18.214  0.00  0.00    +0.000 N 
ATOM     28  C   UNL     1       3.048   5.011  17.642  0.00  0.00    +0.000 C 
ATOM     29  C   UNL     1       1.834   4.059  17.703  0.00  0.00    +0.000 C 
ATOM     30  C   UNL     1       1.548   3.831  19.170  0.00  0.00    +0.000 A 
ATOM     31  C   UNL     1       1.261   2.562  19.666  0.00  0.00    +0.000 A 
ATOM     32  C   UNL     1       1.544   2.289  20.999  0.00  0.00    +0.000 A 
ATOM     33  C   UNL     1       2.103   3.282  21.810  0.00  0.00    +0.000 A 
ATOM     34  C   UNL     1       2.219   4.596  21.347  0.00  0.00    +0.000 A 
ATOM     35  C   UNL     1       1.860   4.897  20.037  0.00  0.00    +0.000 A 
ATOM     36  C   UNL     1       1.903   6.290  19.441  0.00  0.00    +0.000 C 
ENDBRANCH  24  25
ENDBRANCH  23  24
ENDBRANCH   3  23
TORSDOF 5
ENDMDL
MODEL 6
REMARK VINA RESULT:      -8.6      1.883      2.475
REMARK  Name = 
REMARK  8 active torsions:
REMARK  status: ('A' for Active; 'I' for Inactive)
REMARK    1  A    between atoms: C_1  and  O_2
REMARK    2  A    between atoms: O_2  and  C_3
REMARK    3  A    between atoms: C_5  and  O_6
REMARK    4  A    between atoms: O_6  and  C_7
REMARK    5  A    between atoms: C_7  and  C_8
REMARK    6  A    between atoms: C_22  and  C_23
REMARK    7  A    between atoms: N_30  and  C_31
REMARK    8  A    between atoms: N_34  and  C_35
REMARK                            x       y       z     vdW  Elec       q    Type
REMARK                         _______ _______ _______ _____ _____    ______ ____
ROOT
ATOM      1  C   UNL     1       0.194  11.473  19.907  0.00  0.00    +0.000 A 
ATOM      2  C   UNL     1       1.046  10.712  19.081  0.00  0.00    +0.000 A 
ATOM      3  C   UNL     1       0.555   9.962  18.011  0.00  0.00    +0.000 A 
ATOM      4  C   UNL     1      -0.811   9.944  17.773  0.00  0.00    +0.000 A 
ATOM      5  C   UNL     1      -1.675  10.659  18.619  0.00  0.00    +0.000 A 
ATOM      6  C   UNL     1      -1.203  11.436  19.701  0.00  0.00    +0.000 A 
ENDROOT
BRANCH   6   7
ATOM      7  C   UNL     1      -2.182  12.229  20.492  0.00  0.00    +0.000 A 
ATOM      8  C   UNL     1      -2.425  12.260  21.865  0.00  0.00    +0.000 A 
ATOM      9  C   UNL     1      -3.650  12.922  22.081  0.00  0.00    +0.000 A 
ATOM     10  C   UNL     1      -4.062  13.422  20.881  0.00  0.00    +0.000 A 
ATOM     11  N   UNL     1      -3.134  13.073  19.936  0.00  0.00    +0.000 N 
ATOM     12  C   UNL     1      -5.291  14.131  20.699  0.00  0.00    +0.000 A 
ATOM     13  O   UNL     1      -5.636  14.582  19.611  0.00  0.00    +0.000 OA
ATOM     14  N   UNL     1      -6.047  14.224  21.867  0.00  0.00    +0.000 N 
ATOM     15  C   UNL     1      -7.358  14.841  21.797  0.00  0.00    +0.000 C 
ATOM     16  C   UNL     1      -5.687  13.701  23.125  0.00  0.00    +0.000 A 
ATOM     17  O   UNL     1      -6.438  13.793  24.092  0.00  0.00    +0.000 OA
ATOM     18  N   UNL     1      -4.436  13.060  23.214  0.00  0.00    +0.000 N 
ATOM     19  C   UNL     1      -4.051  12.445  24.473  0.00  0.00    +0.000 C 
ATOM     20  H   UNL     1      -3.195  13.292  18.948  0.00  0.00    +0.000 HD
ENDBRANCH   6   7
BRANCH   1  22
ATOM     21  C   UNL     1       1.424  13.393  20.559  0.00  0.00    +0.000 C 
ATOM     22  O   UNL     1       0.683  12.235  20.945  0.00  0.00    +0.000 OA
ENDBRANCH   1  22
BRANCH   3  23
ATOM     23  O   UNL     1       1.487   9.219  17.340  0.00  0.00    +0.000 OA
BRANCH  23  24
ATOM     24  C   UNL     1       2.655   8.834  18.043  0.00  0.00    +0.000 C 
BRANCH  24  25
ATOM     25  C   UNL     1       3.316   7.458  17.820  0.00  0.00    +0.000 C 
ATOM     26  O   UNL     1       4.366   7.401  17.167  0.00  0.00    +0.000 OA
ATOM     27  N   UNL     1       2.702   6.311  18.277  0.00  0.00    +0.000 N 
ATOM     28  C   UNL     1       3.086   5.026  17.686  0.00  0.00    +0.000 C 
ATOM     29  C   UNL     1       1.892   4.047  17.704  0.00  0.00    +0.000 C 
ATOM     30  C   UNL     1       1.584   3.782  19.160  0.00  0.00    +0.000 A 
ATOM     31  C   UNL     1       1.315   2.497  19.625  0.00  0.00    +0.000 A 
ATOM     32  C   UNL     1       1.579   2.204  20.957  0.00  0.00    +0.000 A 
ATOM     33  C   UNL     1       2.100   3.191  21.799  0.00  0.00    +0.000 A 
ATOM     34  C   UNL     1       2.196   4.517  21.365  0.00  0.00    +0.000 A 
ATOM     35  C   UNL     1       1.855   4.836  20.054  0.00  0.00    +0.000 A 
ATOM     36  C   UNL     1       1.879   6.243  19.487  0.00  0.00    +0.000 C 
ENDBRANCH  24  25
ENDBRANCH  23  24
ENDBRANCH   3  23
TORSDOF 5
ENDMDL
MODEL 7
REMARK VINA RESULT:      -8.5      3.766      5.481
REMARK  Name = 
REMARK  8 active torsions:
REMARK  status: ('A' for Active; 'I' for Inactive)
REMARK    1  A    between atoms: C_1  and  O_2
REMARK    2  A    between atoms: O_2  and  C_3
REMARK    3  A    between atoms: C_5  and  O_6
REMARK    4  A    between atoms: O_6  and  C_7
REMARK    5  A    between atoms: C_7  and  C_8
REMARK    6  A    between atoms: C_22  and  C_23
REMARK    7  A    between atoms: N_30  and  C_31
REMARK    8  A    between atoms: N_34  and  C_35
REMARK                            x       y       z     vdW  Elec       q    Type
REMARK                         _______ _______ _______ _____ _____    ______ ____
ROOT
ATOM      1  C   UNL     1       0.886  10.305  21.009  0.00  0.00    +0.000 A 
ATOM      2  C   UNL     1       0.894   8.962  21.435  0.00  0.00    +0.000 A 
ATOM      3  C   UNL     1       1.317   7.927  20.597  0.00  0.00    +0.000 A 
ATOM      4  C   UNL     1       1.710   8.229  19.303  0.00  0.00    +0.000 A 
ATOM      5  C   UNL     1       1.659   9.559  18.851  0.00  0.00    +0.000 A 
ATOM      6  C   UNL     1       1.248  10.625  19.682  0.00  0.00    +0.000 A 
ENDROOT
BRANCH   6   7
ATOM      7  C   UNL     1       1.307  12.011  19.147  0.00  0.00    +0.000 A 
ATOM      8  C   UNL     1       2.337  12.689  18.493  0.00  0.00    +0.000 A 
ATOM      9  C   UNL     1       2.020  14.062  18.476  0.00  0.00    +0.000 A 
ATOM     10  C   UNL     1       0.754  14.196  18.966  0.00  0.00    +0.000 A 
ATOM     11  N   UNL     1       0.293  12.949  19.296  0.00  0.00    +0.000 N 
ATOM     12  C   UNL     1       0.100  15.457  19.134  0.00  0.00    +0.000 A 
ATOM     13  O   UNL     1      -1.044  15.552  19.567  0.00  0.00    +0.000 OA
ATOM     14  N   UNL     1       0.904  16.541  18.784  0.00  0.00    +0.000 N 
ATOM     15  C   UNL     1       0.391  17.881  18.994  0.00  0.00    +0.000 C 
ATOM     16  C   UNL     1       2.226  16.464  18.303  0.00  0.00    +0.000 A 
ATOM     17  O   UNL     1       2.876  17.478  18.060  0.00  0.00    +0.000 OA
ATOM     18  N   UNL     1       2.767  15.175  18.127  0.00  0.00    +0.000 N 
ATOM     19  C   UNL     1       4.149  15.047  17.699  0.00  0.00    +0.000 C 
ATOM     20  H   UNL     1      -0.613  12.750  19.706  0.00  0.00    +0.000 HD
ENDBRANCH   6   7
BRANCH   1  22
ATOM     21  C   UNL     1      -0.673  11.068  22.624  0.00  0.00    +0.000 C 
ATOM     22  O   UNL     1       0.496  11.327  21.846  0.00  0.00    +0.000 OA
ENDBRANCH   1  22
BRANCH   3  23
ATOM     23  O   UNL     1       1.206   6.668  21.120  0.00  0.00    +0.000 OA
BRANCH  23  24
ATOM     24  C   UNL     1       2.182   5.711  20.750  0.00  0.00    +0.000 C 
BRANCH  24  25
ATOM     25  C   UNL     1       2.012   4.822  19.501  0.00  0.00    +0.000 C 
ATOM     26  O   UNL     1       0.923   4.269  19.309  0.00  0.00    +0.000 OA
ATOM     27  N   UNL     1       3.082   4.594  18.662  0.00  0.00    +0.000 N 
ATOM     28  C   UNL     1       3.040   3.430  17.771  0.00  0.00    +0.000 C 
ATOM     29  C   UNL     1       4.465   2.896  17.513  0.00  0.00    +0.000 C 
ATOM     30  C   UNL     1       5.197   3.989  16.768  0.00  0.00    +0.000 A 
ATOM     31  C   UNL     1       6.005   3.705  15.670  0.00  0.00    +0.000 A 
ATOM     32  C   UNL     1       6.200   4.695  14.714  0.00  0.00    +0.000 A 
ATOM     33  C   UNL     1       5.592   5.944  14.870  0.00  0.00    +0.000 A 
ATOM     34  C   UNL     1       4.933   6.270  16.060  0.00  0.00    +0.000 A 
ATOM     35  C   UNL     1       4.804   5.310  17.058  0.00  0.00    +0.000 A 
ATOM     36  C   UNL     1       4.149   5.563  18.403  0.00  0.00    +0.000 C 
ENDBRANCH  24  25
ENDBRANCH  23  24
ENDBRANCH   3  23
TORSDOF 5
ENDMDL
MODEL 8
REMARK VINA RESULT:      -8.4      2.355      4.016
REMARK  Name = 
REMARK  8 active torsions:
REMARK  status: ('A' for Active; 'I' for Inactive)
REMARK    1  A    between atoms: C_1  and  O_2
REMARK    2  A    between atoms: O_2  and  C_3
REMARK    3  A    between atoms: C_5  and  O_6
REMARK    4  A    between atoms: O_6  and  C_7
REMARK    5  A    between atoms: C_7  and  C_8
REMARK    6  A    between atoms: C_22  and  C_23
REMARK    7  A    between atoms: N_30  and  C_31
REMARK    8  A    between atoms: N_34  and  C_35
REMARK                            x       y       z     vdW  Elec       q    Type
REMARK                         _______ _______ _______ _____ _____    ______ ____
ROOT
ATOM      1  C   UNL     1      -0.177  11.109  20.633  0.00  0.00    +0.000 A 
ATOM      2  C   UNL     1       0.684   9.998  20.527  0.00  0.00    +0.000 A 
ATOM      3  C   UNL     1       0.844   9.089  21.576  0.00  0.00    +0.000 A 
ATOM      4  C   UNL     1       0.159   9.305  22.762  0.00  0.00    +0.000 A 
ATOM      5  C   UNL     1      -0.663  10.437  22.897  0.00  0.00    +0.000 A 
ATOM      6  C   UNL     1      -0.852  11.364  21.848  0.00  0.00    +0.000 A 
ENDROOT
BRANCH   6   7
ATOM      7  C   UNL     1      -1.806  12.486  22.048  0.00  0.00    +0.000 A 
ATOM      8  C   UNL     1      -1.904  13.420  23.080  0.00  0.00    +0.000 A 
ATOM      9  C   UNL     1      -3.153  14.065  22.974  0.00  0.00    +0.000 A 
ATOM     10  C   UNL     1      -3.733  13.646  21.813  0.00  0.00    +0.000 A 
ATOM     11  N   UNL     1      -2.884  12.754  21.214  0.00  0.00    +0.000 N 
ATOM     12  C   UNL     1      -5.032  14.061  21.383  0.00  0.00    +0.000 A 
ATOM     13  O   UNL     1      -5.530  13.679  20.328  0.00  0.00    +0.000 OA
ATOM     14  N   UNL     1      -5.665  14.909  22.292  0.00  0.00    +0.000 N 
ATOM     15  C   UNL     1      -7.025  15.329  22.017  0.00  0.00    +0.000 C 
ATOM     16  C   UNL     1      -5.128  15.349  23.518  0.00  0.00    +0.000 A 
ATOM     17  O   UNL     1      -5.777  16.063  24.278  0.00  0.00    +0.000 OA
ATOM     18  N   UNL     1      -3.822  14.923  23.832  0.00  0.00    +0.000 N 
ATOM     19  C   UNL     1      -3.253  15.295  25.116  0.00  0.00    +0.000 C 
ATOM     20  H   UNL     1      -3.069  12.263  20.346  0.00  0.00    +0.000 HD
ENDBRANCH   6   7
BRANCH   1  22
ATOM     21  C   UNL     1       0.754  12.847  19.316  0.00  0.00    +0.000 C 
ATOM     22  O   UNL     1      -0.354  11.989  19.588  0.00  0.00    +0.000 OA
ENDBRANCH   1  22
BRANCH   3  23
ATOM     23  O   UNL     1       1.762   8.099  21.359  0.00  0.00    +0.000 OA
BRANCH  23  24
ATOM     24  C   UNL     1       1.865   7.570  20.049  0.00  0.00    +0.000 C 
BRANCH  24  25
ATOM     25  C   UNL     1       2.367   6.134  19.794  0.00  0.00    +0.000 C 
ATOM     26  O   UNL     1       1.700   5.186  20.224  0.00  0.00    +0.000 OA
ATOM     27  N   UNL     1       3.576   5.924  19.164  0.00  0.00    +0.000 N 
ATOM     28  C   UNL     1       4.237   4.626  19.330  0.00  0.00    +0.000 C 
ATOM     29  C   UNL     1       5.771   4.790  19.258  0.00  0.00    +0.000 C 
ATOM     30  C   UNL     1       6.082   5.262  17.857  0.00  0.00    +0.000 A 
ATOM     31  C   UNL     1       7.140   4.726  17.127  0.00  0.00    +0.000 A 
ATOM     32  C   UNL     1       7.071   4.753  15.739  0.00  0.00    +0.000 A 
ATOM     33  C   UNL     1       5.955   5.312  15.106  0.00  0.00    +0.000 A 
ATOM     34  C   UNL     1       4.990   6.001  15.847  0.00  0.00    +0.000 A 
ATOM     35  C   UNL     1       5.095   6.051  17.234  0.00  0.00    +0.000 A 
ATOM     36  C   UNL     1       4.133   6.803  18.133  0.00  0.00    +0.000 C 
ENDBRANCH  24  25
ENDBRANCH  23  24
ENDBRANCH   3  23
TORSDOF 5
ENDMDL
MODEL 9
REMARK VINA RESULT:      -8.4      2.199     10.430
REMARK  Name = 
REMARK  8 active torsions:
REMARK  status: ('A' for Active; 'I' for Inactive)
REMARK    1  A    between atoms: C_1  and  O_2
REMARK    2  A    between atoms: O_2  and  C_3
REMARK    3  A    between atoms: C_5  and  O_6
REMARK    4  A    between atoms: O_6  and  C_7
REMARK    5  A    between atoms: C_7  and  C_8
REMARK    6  A    between atoms: C_22  and  C_23
REMARK    7  A    between atoms: N_30  and  C_31
REMARK    8  A    between atoms: N_34  and  C_35
REMARK                            x       y       z     vdW  Elec       q    Type
REMARK                         _______ _______ _______ _____ _____    ______ ____
ROOT
ATOM      1  C   UNL     1       0.785  10.080  20.613  0.00  0.00    +0.000 A 
ATOM      2  C   UNL     1      -0.089  11.185  20.561  0.00  0.00    +0.000 A 
ATOM      3  C   UNL     1      -0.724  11.566  19.377  0.00  0.00    +0.000 A 
ATOM      4  C   UNL     1      -0.463  10.854  18.216  0.00  0.00    +0.000 A 
ATOM      5  C   UNL     1       0.445   9.783  18.245  0.00  0.00    +0.000 A 
ATOM      6  C   UNL     1       1.091   9.369  19.431  0.00  0.00    +0.000 A 
ENDROOT
BRANCH   6   7
ATOM      7  C   UNL     1       1.970   8.171  19.387  0.00  0.00    +0.000 A 
ATOM      8  C   UNL     1       2.910   7.771  18.437  0.00  0.00    +0.000 A 
ATOM      9  C   UNL     1       3.242   6.423  18.685  0.00  0.00    +0.000 A 
ATOM     10  C   UNL     1       2.638   6.062  19.853  0.00  0.00    +0.000 A 
ATOM     11  N   UNL     1       1.936   7.142  20.319  0.00  0.00    +0.000 N 
ATOM     12  C   UNL     1       2.718   4.748  20.411  0.00  0.00    +0.000 A 
ATOM     13  O   UNL     1       2.175   4.448  21.470  0.00  0.00    +0.000 OA
ATOM     14  N   UNL     1       3.443   3.859  19.617  0.00  0.00    +0.000 N 
ATOM     15  C   UNL     1       3.522   2.470  20.026  0.00  0.00    +0.000 C 
ATOM     16  C   UNL     1       4.060   4.168  18.389  0.00  0.00    +0.000 A 
ATOM     17  O   UNL     1       4.644   3.308  17.735  0.00  0.00    +0.000 OA
ATOM     18  N   UNL     1       3.965   5.502  17.946  0.00  0.00    +0.000 N 
ATOM     19  C   UNL     1       4.527   5.852  16.653  0.00  0.00    +0.000 C 
ATOM     20  H   UNL     1       1.371   7.152  21.160  0.00  0.00    +0.000 HD
ENDBRANCH   6   7
BRANCH   1  22
ATOM     21  C   UNL     1       0.497   9.390  22.863  0.00  0.00    +0.000 C 
ATOM     22  O   UNL     1       1.388   9.690  21.788  0.00  0.00    +0.000 OA
ENDBRANCH   1  22
BRANCH   3  23
ATOM     23  O   UNL     1      -1.490  12.696  19.460  0.00  0.00    +0.000 OA
BRANCH  23  24
ATOM     24  C   UNL     1      -1.219  13.601  20.515  0.00  0.00    +0.000 C 
BRANCH  24  25
ATOM     25  C   UNL     1      -2.297  14.568  21.047  0.00  0.00    +0.000 C 
ATOM     26  O   UNL     1      -2.166  15.780  20.834  0.00  0.00    +0.000 OA
ATOM     27  N   UNL     1      -3.343  14.091  21.808  0.00  0.00    +0.000 N 
ATOM     28  C   UNL     1      -4.077  15.031  22.660  0.00  0.00    +0.000 C 
ATOM     29  C   UNL     1      -4.618  14.313  23.915  0.00  0.00    +0.000 C 
ATOM     30  C   UNL     1      -5.622  13.296  23.421  0.00  0.00    +0.000 A 
ATOM     31  C   UNL     1      -6.849  13.118  24.056  0.00  0.00    +0.000 A 
ATOM     32  C   UNL     1      -7.916  12.628  23.312  0.00  0.00    +0.000 A 
ATOM     33  C   UNL     1      -7.742  12.323  21.959  0.00  0.00    +0.000 A 
ATOM     34  C   UNL     1      -6.467  12.338  21.385  0.00  0.00    +0.000 A 
ATOM     35  C   UNL     1      -5.377  12.749  22.146  0.00  0.00    +0.000 A 
ATOM     36  C   UNL     1      -3.946  12.767  21.644  0.00  0.00    +0.000 C 
ENDBRANCH  24  25
ENDBRANCH  23  24
ENDBRANCH   3  23
TORSDOF 5
ENDMDL
