MODEL 1
REMARK VINA RESULT:      -8.4      0.000      0.000
REMARK  Name = 
REMARK  6 active torsions:
REMARK  status: ('A' for Active; 'I' for Inactive)
REMARK    1  A    between atoms: N_3  and  C_4
REMARK    2  A    between atoms: C_4  and  C_5
REMARK    3  A    between atoms: C_7  and  C_8
REMARK    4  A    between atoms: C_9  and  C_10
REMARK    5  A    between atoms: C_31  and  C_32
REMARK    6  A    between atoms: C_32  and  O_33
REMARK                            x       y       z     vdW  Elec       q    Type
REMARK                         _______ _______ _______ _____ _____    ______ ____
ROOT
ATOM      1  C   UNL     1      -1.677  11.085  19.425  0.00  0.00    +0.000 A 
ATOM      2  C   UNL     1      -2.386  12.104  20.065  0.00  0.00    +0.000 A 
ATOM      3  N   UNL     1      -3.393  12.464  19.195  0.00  0.00    +0.000 N 
ATOM      4  C   UNL     1      -3.368  11.708  18.051  0.00  0.00    +0.000 A 
ATOM      5  C   UNL     1      -4.233  11.728  16.952  0.00  0.00    +0.000 A 
ATOM      6  F   UNL     1      -5.262  12.583  16.908  0.00  0.00    +0.000 F 
ATOM      7  C   UNL     1      -4.026  10.837  15.910  0.00  0.00    +0.000 A 
ATOM      8  C   UNL     1      -2.970   9.948  15.985  0.00  0.00    +0.000 A 
ATOM      9  F   UNL     1      -2.772   9.079  14.984  0.00  0.00    +0.000 F 
ATOM     10  C   UNL     1      -2.107   9.919  17.086  0.00  0.00    +0.000 A 
ATOM     11  C   UNL     1      -2.293  10.825  18.155  0.00  0.00    +0.000 A 
ATOM     12  H   UNL     1      -4.102  13.161  19.386  0.00  0.00    +0.000 HD
ENDROOT
BRANCH   2  13
ATOM     13  C   UNL     1      -2.276  12.756  21.382  0.00  0.00    +0.000 A 
ATOM     14  C   UNL     1      -1.278  13.721  21.622  0.00  0.00    +0.000 A 
ATOM     15  C   UNL     1      -1.202  14.386  22.850  0.00  0.00    +0.000 A 
ATOM     16  C   UNL     1      -2.106  14.075  23.856  0.00  0.00    +0.000 A 
ATOM     17  F   UNL     1      -2.034  14.711  25.031  0.00  0.00    +0.000 F 
ATOM     18  C   UNL     1      -3.092  13.123  23.651  0.00  0.00    +0.000 A 
ATOM     19  C   UNL     1      -3.184  12.482  22.412  0.00  0.00    +0.000 A 
ENDBRANCH   2  13
BRANCH   1  22
ATOM     20  C   UNL     1       0.247   8.800  21.354  0.00  0.00    +0.000 C 
ATOM     21  C   UNL     1      -0.301  10.238  21.565  0.00  0.00    +0.000 C 
ATOM     22  C   UNL     1      -0.504  10.326  20.042  0.00  0.00    +0.000 C 
ATOM     23  C   UNL     1      -0.608   8.778  20.048  0.00  0.00    +0.000 C 
BRANCH  20  24
ATOM     24  C   UNL     1       1.762   8.694  21.226  0.00  0.00    +0.000 C 
BRANCH  24  27
ATOM     25  O   UNL     1       2.514   8.050  18.664  0.00  0.00    +0.000 OA
ATOM     26  C   UNL     1       2.422   7.135  19.477  0.00  0.00    +0.000 C 
ATOM     27  N   UNL     1       2.064   7.347  20.783  0.00  0.00    +0.000 N 
ATOM     28  N   UNL     1       2.634   5.818  19.146  0.00  0.00    +0.000 N 
ATOM     29  C   UNL     1       3.115   5.474  17.819  0.00  0.00    +0.000 C 
ATOM     30  C   UNL     1       2.645   4.049  17.614  0.00  0.00    +0.000 C 
ATOM     31  C   UNL     1       2.782   3.447  19.008  0.00  0.00    +0.000 C 
ATOM     32  C   UNL     1       2.428   4.610  19.958  0.00  0.00    +0.000 C 
ATOM     33  H   UNL     1       2.579   6.767  21.430  0.00  0.00    +0.000 HD
BRANCH  32  34
ATOM     34  C   UNL     1       1.008   4.454  20.530  0.00  0.00    +0.000 C 
BRANCH  34  35
ATOM     35  O   UNL     1       0.636   3.078  20.605  0.00  0.00    +0.000 OA
ATOM     36  H   UNL     1       1.335   2.606  21.089  0.00  0.00    +0.000 HD
ENDBRANCH  34  35
ENDBRANCH  32  34
ENDBRANCH  24  27
ENDBRANCH  20  24
ENDBRANCH   1  22
TORSDOF 6
ENDMDL
MODEL 2
REMARK VINA RESULT:      -8.4      1.401      5.125
REMARK  Name = 
REMARK  6 active torsions:
REMARK  status: ('A' for Active; 'I' for Inactive)
REMARK    1  A    between atoms: N_3  and  C_4
REMARK    2  A    between atoms: C_4  and  C_5
REMARK    3  A    between atoms: C_7  and  C_8
REMARK    4  A    between atoms: C_9  and  C_10
REMARK    5  A    between atoms: C_31  and  C_32
REMARK    6  A    between atoms: C_32  and  O_33
REMARK                            x       y       z     vdW  Elec       q    Type
REMARK                         _______ _______ _______ _____ _____    ______ ____
ROOT
ATOM      1  C   UNL     1      -1.601  11.383  19.754  0.00  0.00    +0.000 A 
ATOM      2  C   UNL     1      -2.631  11.621  18.840  0.00  0.00    +0.000 A 
ATOM      3  N   UNL     1      -3.429  12.585  19.416  0.00  0.00    +0.000 N 
ATOM      4  C   UNL     1      -2.942  12.984  20.635  0.00  0.00    +0.000 A 
ATOM      5  C   UNL     1      -3.427  13.960  21.512  0.00  0.00    +0.000 A 
ATOM      6  F   UNL     1      -4.531  14.657  21.215  0.00  0.00    +0.000 F 
ATOM      7  C   UNL     1      -2.740  14.215  22.689  0.00  0.00    +0.000 A 
ATOM      8  C   UNL     1      -1.591  13.499  22.966  0.00  0.00    +0.000 A 
ATOM      9  F   UNL     1      -0.920  13.748  24.099  0.00  0.00    +0.000 F 
ATOM     10  C   UNL     1      -1.098  12.526  22.089  0.00  0.00    +0.000 A 
ATOM     11  C   UNL     1      -1.787  12.243  20.888  0.00  0.00    +0.000 A 
ATOM     12  H   UNL     1      -4.247  12.996  18.983  0.00  0.00    +0.000 HD
ENDROOT
BRANCH   2  13
ATOM     13  C   UNL     1      -2.948  11.101  17.498  0.00  0.00    +0.000 A 
ATOM     14  C   UNL     1      -4.065  11.584  16.789  0.00  0.00    +0.000 A 
ATOM     15  C   UNL     1      -4.340  11.139  15.491  0.00  0.00    +0.000 A 
ATOM     16  C   UNL     1      -3.515  10.191  14.903  0.00  0.00    +0.000 A 
ATOM     17  F   UNL     1      -3.777   9.764  13.661  0.00  0.00    +0.000 F 
ATOM     18  C   UNL     1      -2.415   9.691  15.581  0.00  0.00    +0.000 A 
ATOM     19  C   UNL     1      -2.126  10.161  16.865  0.00  0.00    +0.000 A 
ENDBRANCH   2  13
BRANCH   1  22
ATOM     20  C   UNL     1       1.241   9.307  20.256  0.00  0.00    +0.000 C 
ATOM     21  C   UNL     1       1.012  10.800  19.895  0.00  0.00    +0.000 C 
ATOM     22  C   UNL     1      -0.432  10.430  19.513  0.00  0.00    +0.000 C 
ATOM     23  C   UNL     1      -0.300   9.236  20.495  0.00  0.00    +0.000 C 
BRANCH  20  24
ATOM     24  C   UNL     1       1.838   8.453  19.143  0.00  0.00    +0.000 C 
BRANCH  24  27
ATOM     25  O   UNL     1       3.786   6.755  18.214  0.00  0.00    +0.000 OA
ATOM     26  C   UNL     1       3.098   6.371  19.155  0.00  0.00    +0.000 C 
ATOM     27  N   UNL     1       2.106   7.142  19.702  0.00  0.00    +0.000 N 
ATOM     28  N   UNL     1       3.236   5.126  19.722  0.00  0.00    +0.000 N 
ATOM     29  C   UNL     1       4.317   4.253  19.297  0.00  0.00    +0.000 C 
ATOM     30  C   UNL     1       3.814   2.861  19.616  0.00  0.00    +0.000 C 
ATOM     31  C   UNL     1       3.035   3.074  20.910  0.00  0.00    +0.000 C 
ATOM     32  C   UNL     1       2.407   4.474  20.746  0.00  0.00    +0.000 C 
ATOM     33  H   UNL     1       2.059   7.065  20.708  0.00  0.00    +0.000 HD
BRANCH  32  34
ATOM     34  C   UNL     1       0.910   4.380  20.399  0.00  0.00    +0.000 C 
BRANCH  34  35
ATOM     35  O   UNL     1       0.445   3.035  20.508  0.00  0.00    +0.000 OA
ATOM     36  H   UNL     1      -0.396   2.970  20.022  0.00  0.00    +0.000 HD
ENDBRANCH  34  35
ENDBRANCH  32  34
ENDBRANCH  24  27
ENDBRANCH  20  24
ENDBRANCH   1  22
TORSDOF 6
ENDMDL
MODEL 3
REMARK VINA RESULT:      -8.2      3.217      5.223
REMARK  Name = 
REMARK  6 active torsions:
REMARK  status: ('A' for Active; 'I' for Inactive)
REMARK    1  A    between atoms: N_3  and  C_4
REMARK    2  A    between atoms: C_4  and  C_5
REMARK    3  A    between atoms: C_7  and  C_8
REMARK    4  A    between atoms: C_9  and  C_10
REMARK    5  A    between atoms: C_31  and  C_32
REMARK    6  A    between atoms: C_32  and  O_33
REMARK                            x       y       z     vdW  Elec       q    Type
REMARK                         _______ _______ _______ _____ _____    ______ ____
ROOT
ATOM      1  C   UNL     1       0.719  12.556  19.267  0.00  0.00    +0.000 A 
ATOM      2  C   UNL     1      -0.537  12.978  18.826  0.00  0.00    +0.000 A 
ATOM      3  N   UNL     1      -0.420  14.331  18.596  0.00  0.00    +0.000 N 
ATOM      4  C   UNL     1       0.852  14.779  18.848  0.00  0.00    +0.000 A 
ATOM      5  C   UNL     1       1.390  16.062  18.698  0.00  0.00    +0.000 A 
ATOM      6  F   UNL     1       0.630  17.075  18.263  0.00  0.00    +0.000 F 
ATOM      7  C   UNL     1       2.729  16.273  18.989  0.00  0.00    +0.000 A 
ATOM      8  C   UNL     1       3.500  15.209  19.416  0.00  0.00    +0.000 A 
ATOM      9  F   UNL     1       4.797  15.407  19.689  0.00  0.00    +0.000 F 
ATOM     10  C   UNL     1       2.969  13.922  19.560  0.00  0.00    +0.000 A 
ATOM     11  C   UNL     1       1.604  13.686  19.279  0.00  0.00    +0.000 A 
ATOM     12  H   UNL     1      -1.157  14.924  18.236  0.00  0.00    +0.000 HD
ENDROOT
BRANCH   2  13
ATOM     13  C   UNL     1      -1.811  12.287  18.556  0.00  0.00    +0.000 A 
ATOM     14  C   UNL     1      -2.900  12.423  19.440  0.00  0.00    +0.000 A 
ATOM     15  C   UNL     1      -4.131  11.818  19.162  0.00  0.00    +0.000 A 
ATOM     16  C   UNL     1      -4.275  11.053  18.013  0.00  0.00    +0.000 A 
ATOM     17  F   UNL     1      -5.452  10.475  17.746  0.00  0.00    +0.000 F 
ATOM     18  C   UNL     1      -3.218  10.895  17.131  0.00  0.00    +0.000 A 
ATOM     19  C   UNL     1      -2.000  11.526  17.396  0.00  0.00    +0.000 A 
ENDBRANCH   2  13
BRANCH   1  22
ATOM     20  C   UNL     1       0.849   9.002  19.225  0.00  0.00    +0.000 C 
ATOM     21  C   UNL     1       0.026  10.070  19.996  0.00  0.00    +0.000 C 
ATOM     22  C   UNL     1       1.086  11.107  19.584  0.00  0.00    +0.000 C 
ATOM     23  C   UNL     1       1.393  10.190  18.370  0.00  0.00    +0.000 C 
BRANCH  20  24
ATOM     24  C   UNL     1       1.840   8.210  20.070  0.00  0.00    +0.000 C 
BRANCH  24  27
ATOM     25  O   UNL     1       1.754   5.586  20.877  0.00  0.00    +0.000 OA
ATOM     26  C   UNL     1       2.220   5.825  19.767  0.00  0.00    +0.000 C 
ATOM     27  N   UNL     1       2.301   7.097  19.263  0.00  0.00    +0.000 N 
ATOM     28  N   UNL     1       2.733   4.848  18.947  0.00  0.00    +0.000 N 
ATOM     29  C   UNL     1       2.615   3.450  19.325  0.00  0.00    +0.000 C 
ATOM     30  C   UNL     1       3.756   2.773  18.595  0.00  0.00    +0.000 C 
ATOM     31  C   UNL     1       3.814   3.541  17.278  0.00  0.00    +0.000 C 
ATOM     32  C   UNL     1       3.444   4.988  17.668  0.00  0.00    +0.000 C 
ATOM     33  H   UNL     1       2.092   7.141  18.276  0.00  0.00    +0.000 HD
BRANCH  32  34
ATOM     34  C   UNL     1       4.690   5.890  17.720  0.00  0.00    +0.000 C 
BRANCH  34  35
ATOM     35  O   UNL     1       4.446   7.135  17.068  0.00  0.00    +0.000 OA
ATOM     36  H   UNL     1       5.302   7.580  16.941  0.00  0.00    +0.000 HD
ENDBRANCH  34  35
ENDBRANCH  32  34
ENDBRANCH  24  27
ENDBRANCH  20  24
ENDBRANCH   1  22
TORSDOF 6
ENDMDL
MODEL 4
REMARK VINA RESULT:      -8.0      1.169      5.002
REMARK  Name = 
REMARK  6 active torsions:
REMARK  status: ('A' for Active; 'I' for Inactive)
REMARK    1  A    between atoms: N_3  and  C_4
REMARK    2  A    between atoms: C_4  and  C_5
REMARK    3  A    between atoms: C_7  and  C_8
REMARK    4  A    between atoms: C_9  and  C_10
REMARK    5  A    between atoms: C_31  and  C_32
REMARK    6  A    between atoms: C_32  and  O_33
REMARK                            x       y       z     vdW  Elec       q    Type
REMARK                         _______ _______ _______ _____ _____    ______ ____
ROOT
ATOM      1  C   UNL     1      -1.501  12.014  21.117  0.00  0.00    +0.000 A 
ATOM      2  C   UNL     1      -2.354  12.194  20.025  0.00  0.00    +0.000 A 
ATOM      3  N   UNL     1      -3.088  13.326  20.305  0.00  0.00    +0.000 N 
ATOM      4  C   UNL     1      -2.726  13.880  21.506  0.00  0.00    +0.000 A 
ATOM      5  C   UNL     1      -3.194  15.044  22.127  0.00  0.00    +0.000 A 
ATOM      6  F   UNL     1      -4.143  15.791  21.550  0.00  0.00    +0.000 F 
ATOM      7  C   UNL     1      -2.649  15.429  23.342  0.00  0.00    +0.000 A 
ATOM      8  C   UNL     1      -1.654  14.655  23.909  0.00  0.00    +0.000 A 
ATOM      9  F   UNL     1      -1.119  15.029  25.080  0.00  0.00    +0.000 F 
ATOM     10  C   UNL     1      -1.178  13.495  23.289  0.00  0.00    +0.000 A 
ATOM     11  C   UNL     1      -1.725  13.077  22.055  0.00  0.00    +0.000 A 
ATOM     12  H   UNL     1      -3.776  13.738  19.687  0.00  0.00    +0.000 HD
ENDROOT
BRANCH   2  13
ATOM     13  C   UNL     1      -2.547  11.481  18.750  0.00  0.00    +0.000 A 
ATOM     14  C   UNL     1      -1.798  11.835  17.611  0.00  0.00    +0.000 A 
ATOM     15  C   UNL     1      -1.934  11.126  16.412  0.00  0.00    +0.000 A 
ATOM     16  C   UNL     1      -2.837  10.075  16.336  0.00  0.00    +0.000 A 
ATOM     17  F   UNL     1      -2.967   9.395  15.190  0.00  0.00    +0.000 F 
ATOM     18  C   UNL     1      -3.593   9.711  17.438  0.00  0.00    +0.000 A 
ATOM     19  C   UNL     1      -3.433  10.401  18.643  0.00  0.00    +0.000 A 
ENDBRANCH   2  13
BRANCH   1  22
ATOM     20  C   UNL     1       0.086   8.833  21.197  0.00  0.00    +0.000 C 
ATOM     21  C   UNL     1      -0.556   9.775  22.251  0.00  0.00    +0.000 C 
ATOM     22  C   UNL     1      -0.446  10.914  21.221  0.00  0.00    +0.000 C 
ATOM     23  C   UNL     1      -0.482   9.816  20.126  0.00  0.00    +0.000 C 
BRANCH  20  24
ATOM     24  C   UNL     1       1.599   8.675  21.301  0.00  0.00    +0.000 C 
BRANCH  24  27
ATOM     25  O   UNL     1       2.403   8.100  18.739  0.00  0.00    +0.000 OA
ATOM     26  C   UNL     1       2.310   7.166  19.530  0.00  0.00    +0.000 C 
ATOM     27  N   UNL     1       1.927   7.343  20.833  0.00  0.00    +0.000 N 
ATOM     28  N   UNL     1       2.546   5.859  19.172  0.00  0.00    +0.000 N 
ATOM     29  C   UNL     1       3.054   5.552  17.846  0.00  0.00    +0.000 C 
ATOM     30  C   UNL     1       2.607   4.126  17.601  0.00  0.00    +0.000 C 
ATOM     31  C   UNL     1       2.728   3.494  18.984  0.00  0.00    +0.000 C 
ATOM     32  C   UNL     1       2.342   4.631  19.954  0.00  0.00    +0.000 C 
ATOM     33  H   UNL     1       2.439   6.755  21.476  0.00  0.00    +0.000 HD
BRANCH  32  34
ATOM     34  C   UNL     1       0.914   4.443  20.497  0.00  0.00    +0.000 C 
BRANCH  34  35
ATOM     35  O   UNL     1       0.664   3.074  20.812  0.00  0.00    +0.000 OA
ATOM     36  H   UNL     1      -0.262   2.880  20.587  0.00  0.00    +0.000 HD
ENDBRANCH  34  35
ENDBRANCH  32  34
ENDBRANCH  24  27
ENDBRANCH  20  24
ENDBRANCH   1  22
TORSDOF 6
ENDMDL
MODEL 5
REMARK VINA RESULT:      -8.0      4.717      9.514
REMARK  Name = 
REMARK  6 active torsions:
REMARK  status: ('A' for Active; 'I' for Inactive)
REMARK    1  A    between atoms: N_3  and  C_4
REMARK    2  A    between atoms: C_4  and  C_5
REMARK    3  A    between atoms: C_7  and  C_8
REMARK    4  A    between atoms: C_9  and  C_10
REMARK    5  A    between atoms: C_31  and  C_32
REMARK    6  A    between atoms: C_32  and  O_33
REMARK                            x       y       z     vdW  Elec       q    Type
REMARK                         _______ _______ _______ _____ _____    ______ ____
ROOT
ATOM      1  C   UNL     1       3.493   5.545  18.718  0.00  0.00    +0.000 A 
ATOM      2  C   UNL     1       4.835   5.316  18.404  0.00  0.00    +0.000 A 
ATOM      3  N   UNL     1       4.941   3.962  18.175  0.00  0.00    +0.000 N 
ATOM      4  C   UNL     1       3.732   3.329  18.307  0.00  0.00    +0.000 A 
ATOM      5  C   UNL     1       3.406   1.982  18.118  0.00  0.00    +0.000 A 
ATOM      6  F   UNL     1       4.346   1.095  17.766  0.00  0.00    +0.000 F 
ATOM      7  C   UNL     1       2.092   1.573  18.280  0.00  0.00    +0.000 A 
ATOM      8  C   UNL     1       1.134   2.509  18.622  0.00  0.00    +0.000 A 
ATOM      9  F   UNL     1      -0.140   2.119  18.771  0.00  0.00    +0.000 F 
ATOM     10  C   UNL     1       1.453   3.859  18.805  0.00  0.00    +0.000 A 
ATOM     11  C   UNL     1       2.788   4.296  18.655  0.00  0.00    +0.000 A 
ATOM     12  H   UNL     1       5.790   3.486  17.893  0.00  0.00    +0.000 HD
ENDROOT
BRANCH   2  13
ATOM     13  C   UNL     1       6.013   6.189  18.252  0.00  0.00    +0.000 A 
ATOM     14  C   UNL     1       5.984   7.281  17.363  0.00  0.00    +0.000 A 
ATOM     15  C   UNL     1       7.077   8.149  17.255  0.00  0.00    +0.000 A 
ATOM     16  C   UNL     1       8.214   7.917  18.015  0.00  0.00    +0.000 A 
ATOM     17  F   UNL     1       9.260   8.747  17.914  0.00  0.00    +0.000 F 
ATOM     18  C   UNL     1       8.273   6.845  18.891  0.00  0.00    +0.000 A 
ATOM     19  C   UNL     1       7.169   5.998  19.019  0.00  0.00    +0.000 A 
ENDBRANCH   2  13
BRANCH   1  22
ATOM     20  C   UNL     1       1.177   8.165  19.363  0.00  0.00    +0.000 C 
ATOM     21  C   UNL     1       1.785   7.514  18.090  0.00  0.00    +0.000 C 
ATOM     22  C   UNL     1       2.888   6.922  18.986  0.00  0.00    +0.000 C 
ATOM     23  C   UNL     1       1.875   7.016  20.157  0.00  0.00    +0.000 C 
BRANCH  20  24
ATOM     24  C   UNL     1       1.619   9.599  19.634  0.00  0.00    +0.000 C 
BRANCH  24  27
ATOM     25  O   UNL     1       1.503  12.282  20.207  0.00  0.00    +0.000 OA
ATOM     26  C   UNL     1       0.657  11.554  20.718  0.00  0.00    +0.000 C 
ATOM     27  N   UNL     1       0.618  10.203  20.491  0.00  0.00    +0.000 N 
ATOM     28  N   UNL     1      -0.302  12.019  21.587  0.00  0.00    +0.000 N 
ATOM     29  C   UNL     1      -0.427  13.446  21.830  0.00  0.00    +0.000 C 
ATOM     30  C   UNL     1      -1.070  13.531  23.199  0.00  0.00    +0.000 C 
ATOM     31  C   UNL     1      -2.025  12.342  23.196  0.00  0.00    +0.000 C 
ATOM     32  C   UNL     1      -1.282  11.263  22.380  0.00  0.00    +0.000 C 
ATOM     33  H   UNL     1      -0.324   9.848  20.401  0.00  0.00    +0.000 HD
BRANCH  32  34
ATOM     34  C   UNL     1      -0.675  10.187  23.297  0.00  0.00    +0.000 C 
BRANCH  34  35
ATOM     35  O   UNL     1      -0.786   8.892  22.708  0.00  0.00    +0.000 OA
ATOM     36  H   UNL     1      -0.238   8.881  21.905  0.00  0.00    +0.000 HD
ENDBRANCH  34  35
ENDBRANCH  32  34
ENDBRANCH  24  27
ENDBRANCH  20  24
ENDBRANCH   1  22
TORSDOF 6
ENDMDL
MODEL 6
REMARK VINA RESULT:      -7.9      8.221     11.796
REMARK  Name = 
REMARK  6 active torsions:
REMARK  status: ('A' for Active; 'I' for Inactive)
REMARK    1  A    between atoms: N_3  and  C_4
REMARK    2  A    between atoms: C_4  and  C_5
REMARK    3  A    between atoms: C_7  and  C_8
REMARK    4  A    between atoms: C_9  and  C_10
REMARK    5  A    between atoms: C_31  and  C_32
REMARK    6  A    between atoms: C_32  and  O_33
REMARK                            x       y       z     vdW  Elec       q    Type
REMARK                         _______ _______ _______ _____ _____    ______ ____
ROOT
ATOM      1  C   UNL     1       5.508   5.369  17.070  0.00  0.00    +0.000 A 
ATOM      2  C   UNL     1       5.387   4.510  15.975  0.00  0.00    +0.000 A 
ATOM      3  N   UNL     1       4.398   3.612  16.311  0.00  0.00    +0.000 N 
ATOM      4  C   UNL     1       3.875   3.874  17.551  0.00  0.00    +0.000 A 
ATOM      5  C   UNL     1       2.836   3.231  18.234  0.00  0.00    +0.000 A 
ATOM      6  F   UNL     1       2.203   2.186  17.687  0.00  0.00    +0.000 F 
ATOM      7  C   UNL     1       2.453   3.699  19.481  0.00  0.00    +0.000 A 
ATOM      8  C   UNL     1       3.106   4.793  20.018  0.00  0.00    +0.000 A 
ATOM      9  F   UNL     1       2.732   5.254  21.220  0.00  0.00    +0.000 F 
ATOM     10  C   UNL     1       4.139   5.444  19.336  0.00  0.00    +0.000 A 
ATOM     11  C   UNL     1       4.553   4.978  18.068  0.00  0.00    +0.000 A 
ATOM     12  H   UNL     1       4.054   2.875  15.707  0.00  0.00    +0.000 HD
ENDROOT
BRANCH   2  13
ATOM     13  C   UNL     1       6.037   4.438  14.655  0.00  0.00    +0.000 A 
ATOM     14  C   UNL     1       5.476   3.662  13.622  0.00  0.00    +0.000 A 
ATOM     15  C   UNL     1       6.055   3.634  12.348  0.00  0.00    +0.000 A 
ATOM     16  C   UNL     1       7.212   4.361  12.105  0.00  0.00    +0.000 A 
ATOM     17  F   UNL     1       7.766   4.335  10.886  0.00  0.00    +0.000 F 
ATOM     18  C   UNL     1       7.791   5.125  13.105  0.00  0.00    +0.000 A 
ATOM     19  C   UNL     1       7.193   5.175  14.367  0.00  0.00    +0.000 A 
ENDBRANCH   2  13
BRANCH   1  22
ATOM     20  C   UNL     1       7.496   8.069  18.257  0.00  0.00    +0.000 C 
ATOM     21  C   UNL     1       6.025   7.901  17.787  0.00  0.00    +0.000 C 
ATOM     22  C   UNL     1       6.443   6.576  17.126  0.00  0.00    +0.000 C 
ATOM     23  C   UNL     1       7.592   6.513  18.167  0.00  0.00    +0.000 C 
BRANCH  20  24
ATOM     24  C   UNL     1       8.382   8.899  17.335  0.00  0.00    +0.000 C 
BRANCH  24  27
ATOM     25  O   UNL     1       7.737  11.568  17.260  0.00  0.00    +0.000 OA
ATOM     26  C   UNL     1       8.628  11.219  18.028  0.00  0.00    +0.000 C 
ATOM     27  N   UNL     1       9.022   9.912  18.151  0.00  0.00    +0.000 N 
ATOM     28  N   UNL     1       9.334  12.108  18.805  0.00  0.00    +0.000 N 
ATOM     29  C   UNL     1       8.945  13.507  18.838  0.00  0.00    +0.000 C 
ATOM     30  C   UNL     1      10.215  14.233  19.230  0.00  0.00    +0.000 C 
ATOM     31  C   UNL     1      10.867  13.263  20.210  0.00  0.00    +0.000 C 
ATOM     32  C   UNL     1      10.508  11.868  19.656  0.00  0.00    +0.000 C 
ATOM     33  H   UNL     1       9.231   9.654  19.105  0.00  0.00    +0.000 HD
BRANCH  32  34
ATOM     34  C   UNL     1      11.706  11.226  18.936  0.00  0.00    +0.000 C 
BRANCH  34  35
ATOM     35  O   UNL     1      11.777  11.659  17.578  0.00  0.00    +0.000 OA
ATOM     36  H   UNL     1      12.311  12.473  17.551  0.00  0.00    +0.000 HD
ENDBRANCH  34  35
ENDBRANCH  32  34
ENDBRANCH  24  27
ENDBRANCH  20  24
ENDBRANCH   1  22
TORSDOF 6
ENDMDL
MODEL 7
REMARK VINA RESULT:      -7.9      3.552      5.131
REMARK  Name = 
REMARK  6 active torsions:
REMARK  status: ('A' for Active; 'I' for Inactive)
REMARK    1  A    between atoms: N_3  and  C_4
REMARK    2  A    between atoms: C_4  and  C_5
REMARK    3  A    between atoms: C_7  and  C_8
REMARK    4  A    between atoms: C_9  and  C_10
REMARK    5  A    between atoms: C_31  and  C_32
REMARK    6  A    between atoms: C_32  and  O_33
REMARK                            x       y       z     vdW  Elec       q    Type
REMARK                         _______ _______ _______ _____ _____    ______ ____
ROOT
ATOM      1  C   UNL     1      -0.717  12.293  21.878  0.00  0.00    +0.000 A 
ATOM      2  C   UNL     1      -0.058  13.456  21.474  0.00  0.00    +0.000 A 
ATOM      3  N   UNL     1      -0.734  14.497  22.072  0.00  0.00    +0.000 N 
ATOM      4  C   UNL     1      -1.770  14.048  22.850  0.00  0.00    +0.000 A 
ATOM      5  C   UNL     1      -2.662  14.772  23.648  0.00  0.00    +0.000 A 
ATOM      6  F   UNL     1      -2.584  16.106  23.723  0.00  0.00    +0.000 F 
ATOM      7  C   UNL     1      -3.622  14.090  24.381  0.00  0.00    +0.000 A 
ATOM      8  C   UNL     1      -3.671  12.711  24.306  0.00  0.00    +0.000 A 
ATOM      9  F   UNL     1      -4.591  12.048  25.019  0.00  0.00    +0.000 F 
ATOM     10  C   UNL     1      -2.777  11.982  23.515  0.00  0.00    +0.000 A 
ATOM     11  C   UNL     1      -1.796  12.657  22.752  0.00  0.00    +0.000 A 
ATOM     12  H   UNL     1      -0.477  15.474  21.997  0.00  0.00    +0.000 HD
ENDROOT
BRANCH   2  13
ATOM     13  C   UNL     1       1.130  13.722  20.643  0.00  0.00    +0.000 A 
ATOM     14  C   UNL     1       1.034  13.725  19.237  0.00  0.00    +0.000 A 
ATOM     15  C   UNL     1       2.143  14.034  18.442  0.00  0.00    +0.000 A 
ATOM     16  C   UNL     1       3.360  14.317  19.044  0.00  0.00    +0.000 A 
ATOM     17  F   UNL     1       4.422  14.613  18.283  0.00  0.00    +0.000 F 
ATOM     18  C   UNL     1       3.486  14.312  20.423  0.00  0.00    +0.000 A 
ATOM     19  C   UNL     1       2.369  14.033  21.215  0.00  0.00    +0.000 A 
ENDBRANCH   2  13
BRANCH   1  22
ATOM     20  C   UNL     1       1.114   9.249  21.696  0.00  0.00    +0.000 C 
ATOM     21  C   UNL     1       1.104  10.583  20.900  0.00  0.00    +0.000 C 
ATOM     22  C   UNL     1      -0.278  10.876  21.513  0.00  0.00    +0.000 C 
ATOM     23  C   UNL     1       0.140   9.956  22.691  0.00  0.00    +0.000 C 
BRANCH  20  24
ATOM     24  C   UNL     1       0.604   8.033  20.931  0.00  0.00    +0.000 C 
BRANCH  24  27
ATOM     25  O   UNL     1       1.736   8.261  18.439  0.00  0.00    +0.000 OA
ATOM     26  C   UNL     1       2.244   7.466  19.224  0.00  0.00    +0.000 C 
ATOM     27  N   UNL     1       1.765   7.281  20.495  0.00  0.00    +0.000 N 
ATOM     28  N   UNL     1       3.313   6.667  18.892  0.00  0.00    +0.000 N 
ATOM     29  C   UNL     1       3.973   6.839  17.609  0.00  0.00    +0.000 C 
ATOM     30  C   UNL     1       4.608   5.492  17.337  0.00  0.00    +0.000 C 
ATOM     31  C   UNL     1       5.039   5.037  18.728  0.00  0.00    +0.000 C 
ATOM     32  C   UNL     1       3.936   5.581  19.661  0.00  0.00    +0.000 C 
ATOM     33  H   UNL     1       2.500   7.155  21.176  0.00  0.00    +0.000 HD
BRANCH  32  34
ATOM     34  C   UNL     1       2.970   4.464  20.097  0.00  0.00    +0.000 C 
BRANCH  34  35
ATOM     35  O   UNL     1       2.476   4.702  21.414  0.00  0.00    +0.000 OA
ATOM     36  H   UNL     1       1.806   4.024  21.609  0.00  0.00    +0.000 HD
ENDBRANCH  34  35
ENDBRANCH  32  34
ENDBRANCH  24  27
ENDBRANCH  20  24
ENDBRANCH   1  22
TORSDOF 6
ENDMDL
MODEL 8
REMARK VINA RESULT:      -7.9      3.304      5.195
REMARK  Name = 
REMARK  6 active torsions:
REMARK  status: ('A' for Active; 'I' for Inactive)
REMARK    1  A    between atoms: N_3  and  C_4
REMARK    2  A    between atoms: C_4  and  C_5
REMARK    3  A    between atoms: C_7  and  C_8
REMARK    4  A    between atoms: C_9  and  C_10
REMARK    5  A    between atoms: C_31  and  C_32
REMARK    6  A    between atoms: C_32  and  O_33
REMARK                            x       y       z     vdW  Elec       q    Type
REMARK                         _______ _______ _______ _____ _____    ______ ____
ROOT
ATOM      1  C   UNL     1      -0.205  12.021  21.614  0.00  0.00    +0.000 A 
ATOM      2  C   UNL     1       0.304  13.180  21.022  0.00  0.00    +0.000 A 
ATOM      3  N   UNL     1      -0.543  14.198  21.400  0.00  0.00    +0.000 N 
ATOM      4  C   UNL     1      -1.547  13.745  22.218  0.00  0.00    +0.000 A 
ATOM      5  C   UNL     1      -2.574  14.457  22.846  0.00  0.00    +0.000 A 
ATOM      6  F   UNL     1      -2.690  15.781  22.677  0.00  0.00    +0.000 F 
ATOM      7  C   UNL     1      -3.466  13.781  23.664  0.00  0.00    +0.000 A 
ATOM      8  C   UNL     1      -3.316  12.419  23.841  0.00  0.00    +0.000 A 
ATOM      9  F   UNL     1      -4.171  11.763  24.638  0.00  0.00    +0.000 F 
ATOM     10  C   UNL     1      -2.286  11.703  23.221  0.00  0.00    +0.000 A 
ATOM     11  C   UNL     1      -1.371  12.370  22.376  0.00  0.00    +0.000 A 
ATOM     12  H   UNL     1      -0.424  15.173  21.155  0.00  0.00    +0.000 HD
ENDROOT
BRANCH   2  13
ATOM     13  C   UNL     1       1.485  13.468  20.189  0.00  0.00    +0.000 A 
ATOM     14  C   UNL     1       1.492  13.142  18.819  0.00  0.00    +0.000 A 
ATOM     15  C   UNL     1       2.587  13.464  18.009  0.00  0.00    +0.000 A 
ATOM     16  C   UNL     1       3.691  14.092  18.567  0.00  0.00    +0.000 A 
ATOM     17  F   UNL     1       4.739  14.402  17.793  0.00  0.00    +0.000 F 
ATOM     18  C   UNL     1       3.715  14.416  19.914  0.00  0.00    +0.000 A 
ATOM     19  C   UNL     1       2.608  14.120  20.713  0.00  0.00    +0.000 A 
ENDBRANCH   2  13
BRANCH   1  22
ATOM     20  C   UNL     1       0.393   8.589  20.902  0.00  0.00    +0.000 C 
ATOM     21  C   UNL     1      -0.234   9.381  22.082  0.00  0.00    +0.000 C 
ATOM     22  C   UNL     1       0.449  10.643  21.527  0.00  0.00    +0.000 C 
ATOM     23  C   UNL     1       0.419   9.950  20.139  0.00  0.00    +0.000 C 
BRANCH  20  24
ATOM     24  C   UNL     1       1.723   7.909  21.209  0.00  0.00    +0.000 C 
BRANCH  24  27
ATOM     25  O   UNL     1       1.926   5.180  21.438  0.00  0.00    +0.000 OA
ATOM     26  C   UNL     1       2.106   5.673  20.329  0.00  0.00    +0.000 C 
ATOM     27  N   UNL     1       2.019   7.022  20.102  0.00  0.00    +0.000 N 
ATOM     28  N   UNL     1       2.444   4.925  19.226  0.00  0.00    +0.000 N 
ATOM     29  C   UNL     1       2.470   3.475  19.315  0.00  0.00    +0.000 C 
ATOM     30  C   UNL     1       3.428   3.056  18.220  0.00  0.00    +0.000 C 
ATOM     31  C   UNL     1       3.144   4.072  17.118  0.00  0.00    +0.000 C 
ATOM     32  C   UNL     1       2.826   5.375  17.880  0.00  0.00    +0.000 C 
ATOM     33  H   UNL     1       1.579   7.243  19.220  0.00  0.00    +0.000 HD
BRANCH  32  34
ATOM     34  C   UNL     1       4.015   6.352  17.840  0.00  0.00    +0.000 C 
BRANCH  34  35
ATOM     35  O   UNL     1       3.570   7.689  17.616  0.00  0.00    +0.000 OA
ATOM     36  H   UNL     1       4.334   8.281  17.726  0.00  0.00    +0.000 HD
ENDBRANCH  34  35
ENDBRANCH  32  34
ENDBRANCH  24  27
ENDBRANCH  20  24
ENDBRANCH   1  22
TORSDOF 6
ENDMDL
MODEL 9
REMARK VINA RESULT:      -7.9      4.849     10.672
REMARK  Name = 
REMARK  6 active torsions:
REMARK  status: ('A' for Active; 'I' for Inactive)
REMARK    1  A    between atoms: N_3  and  C_4
REMARK    2  A    between atoms: C_4  and  C_5
REMARK    3  A    between atoms: C_7  and  C_8
REMARK    4  A    between atoms: C_9  and  C_10
REMARK    5  A    between atoms: C_31  and  C_32
REMARK    6  A    between atoms: C_32  and  O_33
REMARK                            x       y       z     vdW  Elec       q    Type
REMARK                         _______ _______ _______ _____ _____    ______ ____
ROOT
ATOM      1  C   UNL     1       3.930   4.892  18.559  0.00  0.00    +0.000 A 
ATOM      2  C   UNL     1       4.942   4.257  17.836  0.00  0.00    +0.000 A 
ATOM      3  N   UNL     1       5.186   3.071  18.493  0.00  0.00    +0.000 N 
ATOM      4  C   UNL     1       4.364   2.916  19.580  0.00  0.00    +0.000 A 
ATOM      5  C   UNL     1       4.264   1.846  20.475  0.00  0.00    +0.000 A 
ATOM      6  F   UNL     1       5.052   0.770  20.345  0.00  0.00    +0.000 F 
ATOM      7  C   UNL     1       3.324   1.899  21.493  0.00  0.00    +0.000 A 
ATOM      8  C   UNL     1       2.507   3.009  21.596  0.00  0.00    +0.000 A 
ATOM      9  F   UNL     1       1.591   3.060  22.573  0.00  0.00    +0.000 F 
ATOM     10  C   UNL     1       2.598   4.079  20.699  0.00  0.00    +0.000 A 
ATOM     11  C   UNL     1       3.555   4.050  19.659  0.00  0.00    +0.000 A 
ATOM     12  H   UNL     1       5.850   2.368  18.193  0.00  0.00    +0.000 HD
ENDROOT
BRANCH   2  13
ATOM     13  C   UNL     1       5.680   4.587  16.603  0.00  0.00    +0.000 A 
ATOM     14  C   UNL     1       6.806   5.432  16.647  0.00  0.00    +0.000 A 
ATOM     15  C   UNL     1       7.546   5.705  15.491  0.00  0.00    +0.000 A 
ATOM     16  C   UNL     1       7.152   5.155  14.280  0.00  0.00    +0.000 A 
ATOM     17  F   UNL     1       7.859   5.415  13.173  0.00  0.00    +0.000 F 
ATOM     18  C   UNL     1       6.043   4.328  14.205  0.00  0.00    +0.000 A 
ATOM     19  C   UNL     1       5.324   4.034  15.367  0.00  0.00    +0.000 A 
ENDBRANCH   2  13
BRANCH   1  22
ATOM     20  C   UNL     1       1.776   7.720  18.462  0.00  0.00    +0.000 C 
ATOM     21  C   UNL     1       1.791   6.318  17.794  0.00  0.00    +0.000 C 
ATOM     22  C   UNL     1       3.282   6.218  18.163  0.00  0.00    +0.000 C 
ATOM     23  C   UNL     1       2.980   7.211  19.316  0.00  0.00    +0.000 C 
BRANCH  20  24
ATOM     24  C   UNL     1       2.008   8.893  17.517  0.00  0.00    +0.000 C 
BRANCH  24  27
ATOM     25  O   UNL     1      -0.437  10.109  17.803  0.00  0.00    +0.000 OA
ATOM     26  C   UNL     1       0.528  10.637  18.348  0.00  0.00    +0.000 C 
ATOM     27  N   UNL     1       1.790  10.109  18.276  0.00  0.00    +0.000 N 
ATOM     28  N   UNL     1       0.438  11.818  19.045  0.00  0.00    +0.000 N 
ATOM     29  C   UNL     1      -0.863  12.425  19.276  0.00  0.00    +0.000 C 
ATOM     30  C   UNL     1      -0.554  13.894  19.473  0.00  0.00    +0.000 C 
ATOM     31  C   UNL     1       0.777  13.860  20.218  0.00  0.00    +0.000 C 
ATOM     32  C   UNL     1       1.510  12.639  19.626  0.00  0.00    +0.000 C 
ATOM     33  H   UNL     1       2.299  10.193  19.145  0.00  0.00    +0.000 HD
BRANCH  32  34
ATOM     34  C   UNL     1       2.602  13.069  18.631  0.00  0.00    +0.000 C 
BRANCH  34  35
ATOM     35  O   UNL     1       2.128  12.990  17.287  0.00  0.00    +0.000 OA
ATOM     36  H   UNL     1       1.294  13.488  17.235  0.00  0.00    +0.000 HD
ENDBRANCH  34  35
ENDBRANCH  32  34
ENDBRANCH  24  27
ENDBRANCH  20  24
ENDBRANCH   1  22
TORSDOF 6
ENDMDL
