MODEL 1
REMARK VINA RESULT:      -8.1      0.000      0.000
REMARK  Name = 
REMARK  10 active torsions:
REMARK  status: ('A' for Active; 'I' for Inactive)
REMARK    1  A    between atoms: C_1  and  C_2
REMARK    2  A    between atoms: C_2  and  C_3
REMARK    3  A    between atoms: C_2  and  C_4
REMARK    4  A    between atoms: C_2  and  C_5
REMARK    5  A    between atoms: C_5  and  N_6
REMARK    6  A    between atoms: C_5  and  N_20
REMARK    7  A    between atoms: C_7  and  C_9
REMARK    8  A    between atoms: C_9  and  C_10
REMARK    9  A    between atoms: N_22  and  C_23
REMARK   10  A    between atoms: N_25  and  C_26
REMARK                            x       y       z     vdW  Elec       q    Type
REMARK                         _______ _______ _______ _____ _____    ______ ____
ROOT
ATOM      1  C   UNL     1       0.423  10.481  20.818  0.00  0.00    +0.000 C 
ENDROOT
BRANCH   1   2
ATOM      2  N   UNL     1      -0.705  11.301  20.424  0.00  0.00    +0.000 N 
ATOM      3  C   UNL     1      -0.597  12.501  19.771  0.00  0.00    +0.000 C 
ATOM      4  N   UNL     1       0.515  13.167  19.855  0.00  0.00    +0.000 NA
ATOM      5  N   UNL     1      -1.775  12.870  19.139  0.00  0.00    +0.000 N 
ATOM      6  H   UNL     1      -1.562  11.188  20.948  0.00  0.00    +0.000 HD
ATOM      7  H   UNL     1      -1.764  13.795  18.713  0.00  0.00    +0.000 HD
BRANCH   5   8
ATOM      8  C   UNL     1      -2.598  12.008  18.335  0.00  0.00    +0.000 A 
ATOM      9  C   UNL     1      -2.071  11.331  17.227  0.00  0.00    +0.000 A 
ATOM     10  C   UNL     1      -2.864  10.486  16.456  0.00  0.00    +0.000 A 
ATOM     11  C   UNL     1      -4.209  10.323  16.769  0.00  0.00    +0.000 A 
ATOM     12  C   UNL     1      -4.785  10.969  17.840  0.00  0.00    +0.000 A 
ATOM     13  N   UNL     1      -6.088  10.757  18.051  0.00  0.00    +0.000 NA
ATOM     14  C   UNL     1      -6.674  11.368  19.095  0.00  0.00    +0.000 A 
ATOM     15  C   UNL     1      -5.996  12.206  19.959  0.00  0.00    +0.000 A 
ATOM     16  C   UNL     1      -4.641  12.432  19.727  0.00  0.00    +0.000 A 
ATOM     17  C   UNL     1      -3.985  11.836  18.638  0.00  0.00    +0.000 A 
ENDBRANCH   5   8
BRANCH   4  18
ATOM     18  C   UNL     1       0.631  14.364  19.280  0.00  0.00    +0.000 C 
ATOM     19  N   UNL     1       0.705  15.406  18.771  0.00  0.00    +0.000 NA
ENDBRANCH   4  18
ENDBRANCH   1   2
BRANCH   1  21
ATOM     20  C   UNL     1      -0.522   8.354  21.849  0.00  0.00    +0.000 C 
ATOM     21  C   UNL     1       0.175   9.703  22.147  0.00  0.00    +0.000 C 
ATOM     22  C   UNL     1      -0.715  10.483  23.134  0.00  0.00    +0.000 C 
ATOM     23  C   UNL     1       1.516   9.374  22.829  0.00  0.00    +0.000 C 
ENDBRANCH   1  21
BRANCH   1  24
ATOM     24  N   UNL     1       0.573   9.606  19.686  0.00  0.00    +0.000 N 
ATOM     25  C   UNL     1       1.472   9.858  18.670  0.00  0.00    +0.000 C 
ATOM     26  O   UNL     1       2.179  10.861  18.633  0.00  0.00    +0.000 OA
ATOM     27  H   UNL     1      -0.121   8.886  19.572  0.00  0.00    +0.000 HD
BRANCH  25  28
ATOM     28  C   UNL     1       1.546   8.773  17.620  0.00  0.00    +0.000 C 
BRANCH  28  29
ATOM     29  C   UNL     1       2.623   7.749  17.869  0.00  0.00    +0.000 A 
ATOM     30  C   UNL     1       2.437   6.728  18.813  0.00  0.00    +0.000 A 
ATOM     31  C   UNL     1       3.415   5.747  19.003  0.00  0.00    +0.000 A 
ATOM     32  C   UNL     1       4.586   5.777  18.251  0.00  0.00    +0.000 A 
ATOM     33  C   UNL     1       4.770   6.775  17.292  0.00  0.00    +0.000 A 
ATOM     34  C   UNL     1       3.799   7.761  17.107  0.00  0.00    +0.000 A 
ATOM     35  O   UNL     1       5.890   6.864  16.505  0.00  0.00    +0.000 OA
ATOM     36  C   UNL     1       6.615   5.629  16.500  0.00  0.00    +0.000 C 
ATOM     37  C   UNL     1       6.775   5.090  17.912  0.00  0.00    +0.000 C 
ATOM     38  O   UNL     1       5.502   4.787  18.493  0.00  0.00    +0.000 OA
ENDBRANCH  28  29
ENDBRANCH  25  28
ENDBRANCH   1  24
TORSDOF 7
ENDMDL
MODEL 2
REMARK VINA RESULT:      -8.0      2.161      5.148
REMARK  Name = 
REMARK  10 active torsions:
REMARK  status: ('A' for Active; 'I' for Inactive)
REMARK    1  A    between atoms: C_1  and  C_2
REMARK    2  A    between atoms: C_2  and  C_3
REMARK    3  A    between atoms: C_2  and  C_4
REMARK    4  A    between atoms: C_2  and  C_5
REMARK    5  A    between atoms: C_5  and  N_6
REMARK    6  A    between atoms: C_5  and  N_20
REMARK    7  A    between atoms: C_7  and  C_9
REMARK    8  A    between atoms: C_9  and  C_10
REMARK    9  A    between atoms: N_22  and  C_23
REMARK   10  A    between atoms: N_25  and  C_26
REMARK                            x       y       z     vdW  Elec       q    Type
REMARK                         _______ _______ _______ _____ _____    ______ ____
ROOT
ATOM      1  C   UNL     1      -1.843  11.195  18.433  0.00  0.00    +0.000 C 
ENDROOT
BRANCH   1   2
ATOM      2  N   UNL     1      -1.656  12.617  18.639  0.00  0.00    +0.000 N 
ATOM      3  C   UNL     1      -1.841  13.255  19.837  0.00  0.00    +0.000 C 
ATOM      4  N   UNL     1      -2.602  12.704  20.734  0.00  0.00    +0.000 NA
ATOM      5  N   UNL     1      -1.204  14.486  19.887  0.00  0.00    +0.000 N 
ATOM      6  H   UNL     1      -1.749  13.215  17.830  0.00  0.00    +0.000 HD
ATOM      7  H   UNL     1      -1.386  15.031  20.729  0.00  0.00    +0.000 HD
BRANCH   5   8
ATOM      8  C   UNL     1       0.142  14.749  19.456  0.00  0.00    +0.000 A 
ATOM      9  C   UNL     1       1.190  13.875  19.777  0.00  0.00    +0.000 A 
ATOM     10  C   UNL     1       2.490  14.124  19.348  0.00  0.00    +0.000 A 
ATOM     11  C   UNL     1       2.769  15.267  18.608  0.00  0.00    +0.000 A 
ATOM     12  C   UNL     1       1.783  16.166  18.269  0.00  0.00    +0.000 A 
ATOM     13  N   UNL     1       2.153  17.241  17.566  0.00  0.00    +0.000 NA
ATOM     14  C   UNL     1       1.209  18.132  17.215  0.00  0.00    +0.000 A 
ATOM     15  C   UNL     1      -0.124  17.991  17.546  0.00  0.00    +0.000 A 
ATOM     16  C   UNL     1      -0.502  16.874  18.289  0.00  0.00    +0.000 A 
ATOM     17  C   UNL     1       0.447  15.924  18.701  0.00  0.00    +0.000 A 
ENDBRANCH   5   8
BRANCH   4  18
ATOM     18  C   UNL     1      -2.848  13.328  21.886  0.00  0.00    +0.000 C 
ATOM     19  N   UNL     1      -3.037  13.871  22.896  0.00  0.00    +0.000 NA
ENDBRANCH   4  18
ENDBRANCH   1   2
BRANCH   1  21
ATOM     20  C   UNL     1      -3.501   9.421  17.666  0.00  0.00    +0.000 C 
ATOM     21  C   UNL     1      -3.009  10.871  17.448  0.00  0.00    +0.000 C 
ATOM     22  C   UNL     1      -2.592  11.009  15.970  0.00  0.00    +0.000 C 
ATOM     23  C   UNL     1      -4.208  11.798  17.721  0.00  0.00    +0.000 C 
ENDBRANCH   1  21
BRANCH   1  24
ATOM     24  N   UNL     1      -0.561  10.789  17.922  0.00  0.00    +0.000 N 
ATOM     25  C   UNL     1       0.482  10.424  18.747  0.00  0.00    +0.000 C 
ATOM     26  O   UNL     1       0.412  10.456  19.973  0.00  0.00    +0.000 OA
ATOM     27  H   UNL     1      -0.393  10.941  16.941  0.00  0.00    +0.000 HD
BRANCH  25  28
ATOM     28  C   UNL     1       1.715   9.942  18.018  0.00  0.00    +0.000 C 
BRANCH  28  29
ATOM     29  C   UNL     1       2.210   8.593  18.473  0.00  0.00    +0.000 A 
ATOM     30  C   UNL     1       1.775   8.041  19.687  0.00  0.00    +0.000 A 
ATOM     31  C   UNL     1       2.192   6.766  20.081  0.00  0.00    +0.000 A 
ATOM     32  C   UNL     1       3.047   6.031  19.264  0.00  0.00    +0.000 A 
ATOM     33  C   UNL     1       3.466   6.561  18.042  0.00  0.00    +0.000 A 
ATOM     34  C   UNL     1       3.058   7.837  17.652  0.00  0.00    +0.000 A 
ATOM     35  O   UNL     1       4.297   5.893  17.179  0.00  0.00    +0.000 OA
ATOM     36  C   UNL     1       4.337   4.494  17.481  0.00  0.00    +0.000 C 
ATOM     37  C   UNL     1       4.525   4.268  18.972  0.00  0.00    +0.000 C 
ATOM     38  O   UNL     1       3.418   4.791  19.715  0.00  0.00    +0.000 OA
ENDBRANCH  28  29
ENDBRANCH  25  28
ENDBRANCH   1  24
TORSDOF 7
ENDMDL
MODEL 3
REMARK VINA RESULT:      -8.0      0.893      1.781
REMARK  Name = 
REMARK  10 active torsions:
REMARK  status: ('A' for Active; 'I' for Inactive)
REMARK    1  A    between atoms: C_1  and  C_2
REMARK    2  A    between atoms: C_2  and  C_3
REMARK    3  A    between atoms: C_2  and  C_4
REMARK    4  A    between atoms: C_2  and  C_5
REMARK    5  A    between atoms: C_5  and  N_6
REMARK    6  A    between atoms: C_5  and  N_20
REMARK    7  A    between atoms: C_7  and  C_9
REMARK    8  A    between atoms: C_9  and  C_10
REMARK    9  A    between atoms: N_22  and  C_23
REMARK   10  A    between atoms: N_25  and  C_26
REMARK                            x       y       z     vdW  Elec       q    Type
REMARK                         _______ _______ _______ _____ _____    ______ ____
ROOT
ATOM      1  C   UNL     1       0.459  10.375  20.799  0.00  0.00    +0.000 C 
ENDROOT
BRANCH   1   2
ATOM      2  N   UNL     1      -0.685  11.205  20.478  0.00  0.00    +0.000 N 
ATOM      3  C   UNL     1      -0.599  12.464  19.945  0.00  0.00    +0.000 C 
ATOM      4  N   UNL     1       0.497  13.143  20.101  0.00  0.00    +0.000 NA
ATOM      5  N   UNL     1      -1.782  12.867  19.343  0.00  0.00    +0.000 N 
ATOM      6  H   UNL     1      -1.541  11.023  20.982  0.00  0.00    +0.000 HD
ATOM      7  H   UNL     1      -1.790  13.830  19.008  0.00  0.00    +0.000 HD
BRANCH   5   8
ATOM      8  C   UNL     1      -2.582  12.070  18.453  0.00  0.00    +0.000 A 
ATOM      9  C   UNL     1      -2.019  11.465  17.320  0.00  0.00    +0.000 A 
ATOM     10  C   UNL     1      -2.791  10.682  16.466  0.00  0.00    +0.000 A 
ATOM     11  C   UNL     1      -4.146  10.510  16.719  0.00  0.00    +0.000 A 
ATOM     12  C   UNL     1      -4.756  11.086  17.811  0.00  0.00    +0.000 A 
ATOM     13  N   UNL     1      -6.067  10.872  17.961  0.00  0.00    +0.000 NA
ATOM     14  C   UNL     1      -6.686  11.416  19.023  0.00  0.00    +0.000 A 
ATOM     15  C   UNL     1      -6.035  12.187  19.966  0.00  0.00    +0.000 A 
ATOM     16  C   UNL     1      -4.670  12.415  19.797  0.00  0.00    +0.000 A 
ATOM     17  C   UNL     1      -3.979  11.890  18.694  0.00  0.00    +0.000 A 
ENDBRANCH   5   8
BRANCH   4  18
ATOM     18  C   UNL     1       0.589  14.392  19.645  0.00  0.00    +0.000 C 
ATOM     19  N   UNL     1       0.696  15.479  19.247  0.00  0.00    +0.000 NA
ENDBRANCH   4  18
ENDBRANCH   1   2
BRANCH   1  21
ATOM     20  C   UNL     1      -0.653  10.334  23.089  0.00  0.00    +0.000 C 
ATOM     21  C   UNL     1       0.270   9.562  22.117  0.00  0.00    +0.000 C 
ATOM     22  C   UNL     1       1.602   9.294  22.845  0.00  0.00    +0.000 C 
ATOM     23  C   UNL     1      -0.418   8.217  21.817  0.00  0.00    +0.000 C 
ENDBRANCH   1  21
BRANCH   1  24
ATOM     24  N   UNL     1       0.558   9.530  19.639  0.00  0.00    +0.000 N 
ATOM     25  C   UNL     1       1.415   9.805  18.593  0.00  0.00    +0.000 C 
ATOM     26  O   UNL     1       2.124  10.806  18.553  0.00  0.00    +0.000 OA
ATOM     27  H   UNL     1      -0.144   8.816  19.535  0.00  0.00    +0.000 HD
BRANCH  25  28
ATOM     28  C   UNL     1       1.438   8.749  17.512  0.00  0.00    +0.000 C 
BRANCH  28  29
ATOM     29  C   UNL     1       2.365   7.596  17.800  0.00  0.00    +0.000 A 
ATOM     30  C   UNL     1       3.717   7.652  17.428  0.00  0.00    +0.000 A 
ATOM     31  C   UNL     1       4.588   6.605  17.745  0.00  0.00    +0.000 A 
ATOM     32  C   UNL     1       4.115   5.493  18.437  0.00  0.00    +0.000 A 
ATOM     33  C   UNL     1       2.777   5.438  18.832  0.00  0.00    +0.000 A 
ATOM     34  C   UNL     1       1.905   6.478  18.509  0.00  0.00    +0.000 A 
ATOM     35  O   UNL     1       2.241   4.383  19.526  0.00  0.00    +0.000 OA
ATOM     36  C   UNL     1       3.269   3.585  20.124  0.00  0.00    +0.000 C 
ATOM     37  C   UNL     1       4.378   3.295  19.127  0.00  0.00    +0.000 C 
ATOM     38  O   UNL     1       5.023   4.503  18.709  0.00  0.00    +0.000 OA
ENDBRANCH  28  29
ENDBRANCH  25  28
ENDBRANCH   1  24
TORSDOF 7
ENDMDL
MODEL 4
REMARK VINA RESULT:      -7.9      2.387      5.328
REMARK  Name = 
REMARK  10 active torsions:
REMARK  status: ('A' for Active; 'I' for Inactive)
REMARK    1  A    between atoms: C_1  and  C_2
REMARK    2  A    between atoms: C_2  and  C_3
REMARK    3  A    between atoms: C_2  and  C_4
REMARK    4  A    between atoms: C_2  and  C_5
REMARK    5  A    between atoms: C_5  and  N_6
REMARK    6  A    between atoms: C_5  and  N_20
REMARK    7  A    between atoms: C_7  and  C_9
REMARK    8  A    between atoms: C_9  and  C_10
REMARK    9  A    between atoms: N_22  and  C_23
REMARK   10  A    between atoms: N_25  and  C_26
REMARK                            x       y       z     vdW  Elec       q    Type
REMARK                         _______ _______ _______ _____ _____    ______ ____
ROOT
ATOM      1  C   UNL     1      -1.638  10.854  18.356  0.00  0.00    +0.000 C 
ENDROOT
BRANCH   1   2
ATOM      2  N   UNL     1      -1.532  12.294  18.493  0.00  0.00    +0.000 N 
ATOM      3  C   UNL     1      -1.845  12.986  19.633  0.00  0.00    +0.000 C 
ATOM      4  N   UNL     1      -2.653  12.449  20.496  0.00  0.00    +0.000 NA
ATOM      5  N   UNL     1      -1.269  14.248  19.662  0.00  0.00    +0.000 N 
ATOM      6  H   UNL     1      -1.584  12.841  17.645  0.00  0.00    +0.000 HD
ATOM      7  H   UNL     1      -1.545  14.829  20.453  0.00  0.00    +0.000 HD
BRANCH   5   8
ATOM      8  C   UNL     1       0.095  14.553  19.326  0.00  0.00    +0.000 A 
ATOM      9  C   UNL     1       1.136  13.673  19.655  0.00  0.00    +0.000 A 
ATOM     10  C   UNL     1       2.454  13.963  19.318  0.00  0.00    +0.000 A 
ATOM     11  C   UNL     1       2.758  15.152  18.665  0.00  0.00    +0.000 A 
ATOM     12  C   UNL     1       1.779  16.058  18.324  0.00  0.00    +0.000 A 
ATOM     13  N   UNL     1       2.173  17.178  17.709  0.00  0.00    +0.000 NA
ATOM     14  C   UNL     1       1.237  18.077  17.357  0.00  0.00    +0.000 A 
ATOM     15  C   UNL     1      -0.111  17.901  17.601  0.00  0.00    +0.000 A 
ATOM     16  C   UNL     1      -0.513  16.736  18.253  0.00  0.00    +0.000 A 
ATOM     17  C   UNL     1       0.424  15.775  18.662  0.00  0.00    +0.000 A 
ENDBRANCH   5   8
BRANCH   4  18
ATOM     18  C   UNL     1      -3.022  13.122  21.586  0.00  0.00    +0.000 C 
ATOM     19  N   UNL     1      -3.319  13.707  22.545  0.00  0.00    +0.000 NA
ENDBRANCH   4  18
ENDBRANCH   1   2
BRANCH   1  21
ATOM     20  C   UNL     1      -3.704  11.630  17.086  0.00  0.00    +0.000 C 
ATOM     21  C   UNL     1      -2.801  10.417  17.412  0.00  0.00    +0.000 C 
ATOM     22  C   UNL     1      -3.689   9.322  18.033  0.00  0.00    +0.000 C 
ATOM     23  C   UNL     1      -2.234   9.907  16.073  0.00  0.00    +0.000 C 
ENDBRANCH   1  21
BRANCH   1  24
ATOM     24  N   UNL     1      -0.344  10.501  17.837  0.00  0.00    +0.000 N 
ATOM     25  C   UNL     1       0.729  10.216  18.656  0.00  0.00    +0.000 C 
ATOM     26  O   UNL     1       0.674  10.282  19.881  0.00  0.00    +0.000 OA
ATOM     27  H   UNL     1      -0.198  10.632  16.850  0.00  0.00    +0.000 HD
BRANCH  25  28
ATOM     28  C   UNL     1       1.975   9.777  17.922  0.00  0.00    +0.000 C 
BRANCH  28  29
ATOM     29  C   UNL     1       2.387   8.356  18.207  0.00  0.00    +0.000 A 
ATOM     30  C   UNL     1       3.405   7.741  17.462  0.00  0.00    +0.000 A 
ATOM     31  C   UNL     1       3.824   6.442  17.764  0.00  0.00    +0.000 A 
ATOM     32  C   UNL     1       3.230   5.746  18.814  0.00  0.00    +0.000 A 
ATOM     33  C   UNL     1       2.233   6.358  19.576  0.00  0.00    +0.000 A 
ATOM     34  C   UNL     1       1.807   7.651  19.271  0.00  0.00    +0.000 A 
ATOM     35  O   UNL     1       1.610   5.742  20.632  0.00  0.00    +0.000 OA
ATOM     36  C   UNL     1       2.365   4.614  21.089  0.00  0.00    +0.000 C 
ATOM     37  C   UNL     1       2.809   3.752  19.919  0.00  0.00    +0.000 C 
ATOM     38  O   UNL     1       3.687   4.476  19.050  0.00  0.00    +0.000 OA
ENDBRANCH  28  29
ENDBRANCH  25  28
ENDBRANCH   1  24
TORSDOF 7
ENDMDL
MODEL 5
REMARK VINA RESULT:      -7.7      2.266      5.231
REMARK  Name = 
REMARK  10 active torsions:
REMARK  status: ('A' for Active; 'I' for Inactive)
REMARK    1  A    between atoms: C_1  and  C_2
REMARK    2  A    between atoms: C_2  and  C_3
REMARK    3  A    between atoms: C_2  and  C_4
REMARK    4  A    between atoms: C_2  and  C_5
REMARK    5  A    between atoms: C_5  and  N_6
REMARK    6  A    between atoms: C_5  and  N_20
REMARK    7  A    between atoms: C_7  and  C_9
REMARK    8  A    between atoms: C_9  and  C_10
REMARK    9  A    between atoms: N_22  and  C_23
REMARK   10  A    between atoms: N_25  and  C_26
REMARK                            x       y       z     vdW  Elec       q    Type
REMARK                         _______ _______ _______ _____ _____    ______ ____
ROOT
ATOM      1  C   UNL     1      -1.478  10.564  18.516  0.00  0.00    +0.000 C 
ENDROOT
BRANCH   1   2
ATOM      2  N   UNL     1      -1.218  11.947  18.861  0.00  0.00    +0.000 N 
ATOM      3  C   UNL     1      -1.056  12.406  20.142  0.00  0.00    +0.000 C 
ATOM      4  N   UNL     1      -1.551  11.718  21.126  0.00  0.00    +0.000 NA
ATOM      5  N   UNL     1      -0.410  13.633  20.188  0.00  0.00    +0.000 N 
ATOM      6  H   UNL     1      -1.520  12.650  18.201  0.00  0.00    +0.000 HD
ATOM      7  H   UNL     1      -0.345  14.051  21.115  0.00  0.00    +0.000 HD
BRANCH   5   8
ATOM      8  C   UNL     1       0.770  13.985  19.446  0.00  0.00    +0.000 A 
ATOM      9  C   UNL     1       1.816  13.068  19.271  0.00  0.00    +0.000 A 
ATOM     10  C   UNL     1       2.952  13.405  18.541  0.00  0.00    +0.000 A 
ATOM     11  C   UNL     1       3.071  14.677  17.992  0.00  0.00    +0.000 A 
ATOM     12  C   UNL     1       2.080  15.622  18.137  0.00  0.00    +0.000 A 
ATOM     13  N   UNL     1       2.294  16.820  17.583  0.00  0.00    +0.000 NA
ATOM     14  C   UNL     1       1.340  17.759  17.703  0.00  0.00    +0.000 A 
ATOM     15  C   UNL     1       0.150  17.547  18.372  0.00  0.00    +0.000 A 
ATOM     16  C   UNL     1      -0.061  16.300  18.958  0.00  0.00    +0.000 A 
ATOM     17  C   UNL     1       0.912  15.291  18.882  0.00  0.00    +0.000 A 
ENDBRANCH   5   8
BRANCH   4  18
ATOM     18  C   UNL     1      -1.461  12.169  22.377  0.00  0.00    +0.000 C 
ATOM     19  N   UNL     1      -1.383  12.587  23.459  0.00  0.00    +0.000 NA
ENDBRANCH   4  18
ENDBRANCH   1   2
BRANCH   1  21
ATOM     20  C   UNL     1      -2.205   9.973  16.148  0.00  0.00    +0.000 C 
ATOM     21  C   UNL     1      -2.694  10.395  17.554  0.00  0.00    +0.000 C 
ATOM     22  C   UNL     1      -3.512  11.692  17.398  0.00  0.00    +0.000 C 
ATOM     23  C   UNL     1      -3.621   9.274  18.061  0.00  0.00    +0.000 C 
ENDBRANCH   1  21
BRANCH   1  24
ATOM     24  N   UNL     1      -0.236  10.162  17.911  0.00  0.00    +0.000 N 
ATOM     25  C   UNL     1       0.852   9.755  18.655  0.00  0.00    +0.000 C 
ATOM     26  O   UNL     1       0.860   9.744  19.882  0.00  0.00    +0.000 OA
ATOM     27  H   UNL     1      -0.129  10.347  16.927  0.00  0.00    +0.000 HD
BRANCH  25  28
ATOM     28  C   UNL     1       2.029   9.285  17.831  0.00  0.00    +0.000 C 
BRANCH  28  29
ATOM     29  C   UNL     1       2.524   7.909  18.196  0.00  0.00    +0.000 A 
ATOM     30  C   UNL     1       3.671   7.375  17.590  0.00  0.00    +0.000 A 
ATOM     31  C   UNL     1       4.159   6.121  17.969  0.00  0.00    +0.000 A 
ATOM     32  C   UNL     1       3.505   5.390  18.958  0.00  0.00    +0.000 A 
ATOM     33  C   UNL     1       2.376   5.922  19.583  0.00  0.00    +0.000 A 
ATOM     34  C   UNL     1       1.882   7.170  19.200  0.00  0.00    +0.000 A 
ATOM     35  O   UNL     1       1.686   5.269  20.572  0.00  0.00    +0.000 OA
ATOM     36  C   UNL     1       2.474   4.217  21.140  0.00  0.00    +0.000 C 
ATOM     37  C   UNL     1       3.125   3.381  20.052  0.00  0.00    +0.000 C 
ATOM     38  O   UNL     1       4.036   4.167  19.275  0.00  0.00    +0.000 OA
ENDBRANCH  28  29
ENDBRANCH  25  28
ENDBRANCH   1  24
TORSDOF 7
ENDMDL
MODEL 6
REMARK VINA RESULT:      -7.5      3.874      8.763
REMARK  Name = 
REMARK  10 active torsions:
REMARK  status: ('A' for Active; 'I' for Inactive)
REMARK    1  A    between atoms: C_1  and  C_2
REMARK    2  A    between atoms: C_2  and  C_3
REMARK    3  A    between atoms: C_2  and  C_4
REMARK    4  A    between atoms: C_2  and  C_5
REMARK    5  A    between atoms: C_5  and  N_6
REMARK    6  A    between atoms: C_5  and  N_20
REMARK    7  A    between atoms: C_7  and  C_9
REMARK    8  A    between atoms: C_9  and  C_10
REMARK    9  A    between atoms: N_22  and  C_23
REMARK   10  A    between atoms: N_25  and  C_26
REMARK                            x       y       z     vdW  Elec       q    Type
REMARK                         _______ _______ _______ _____ _____    ______ ____
ROOT
ATOM      1  C   UNL     1      -3.011  11.896  18.380  0.00  0.00    +0.000 C 
ENDROOT
BRANCH   1   2
ATOM      2  N   UNL     1      -1.596  11.583  18.352  0.00  0.00    +0.000 N 
ATOM      3  C   UNL     1      -0.604  12.467  18.688  0.00  0.00    +0.000 C 
ATOM      4  N   UNL     1      -0.847  13.741  18.631  0.00  0.00    +0.000 NA
ATOM      5  N   UNL     1       0.591  11.832  18.992  0.00  0.00    +0.000 N 
ATOM      6  H   UNL     1      -1.301  10.841  17.734  0.00  0.00    +0.000 HD
ATOM      7  H   UNL     1       1.379  12.455  19.165  0.00  0.00    +0.000 HD
BRANCH   5   8
ATOM      8  C   UNL     1       0.733  10.675  19.833  0.00  0.00    +0.000 A 
ATOM      9  C   UNL     1       0.254  10.674  21.151  0.00  0.00    +0.000 A 
ATOM     10  C   UNL     1       0.380   9.550  21.961  0.00  0.00    +0.000 A 
ATOM     11  C   UNL     1       1.010   8.411  21.473  0.00  0.00    +0.000 A 
ATOM     12  C   UNL     1       1.508   8.355  20.190  0.00  0.00    +0.000 A 
ATOM     13  N   UNL     1       2.108   7.219  19.818  0.00  0.00    +0.000 NA
ATOM     14  C   UNL     1       2.596   7.135  18.568  0.00  0.00    +0.000 A 
ATOM     15  C   UNL     1       2.509   8.163  17.650  0.00  0.00    +0.000 A 
ATOM     16  C   UNL     1       1.893   9.348  18.049  0.00  0.00    +0.000 A 
ATOM     17  C   UNL     1       1.386   9.498  19.349  0.00  0.00    +0.000 A 
ENDBRANCH   5   8
BRANCH   4  18
ATOM     18  C   UNL     1       0.115  14.625  18.895  0.00  0.00    +0.000 C 
ATOM     19  N   UNL     1       0.940  15.414  19.111  0.00  0.00    +0.000 NA
ENDBRANCH   4  18
ENDBRANCH   1   2
BRANCH   1  21
ATOM     20  C   UNL     1      -3.966  11.218  16.119  0.00  0.00    +0.000 C 
ATOM     21  C   UNL     1      -3.880  10.848  17.619  0.00  0.00    +0.000 C 
ATOM     22  C   UNL     1      -5.319  10.762  18.165  0.00  0.00    +0.000 C 
ATOM     23  C   UNL     1      -3.227   9.455  17.701  0.00  0.00    +0.000 C 
ENDBRANCH   1  21
BRANCH   1  24
ATOM     24  N   UNL     1      -3.289  11.922  19.791  0.00  0.00    +0.000 N 
ATOM     25  C   UNL     1      -4.115  12.867  20.365  0.00  0.00    +0.000 C 
ATOM     26  O   UNL     1      -4.640  13.775  19.727  0.00  0.00    +0.000 OA
ATOM     27  H   UNL     1      -2.725  11.329  20.377  0.00  0.00    +0.000 HD
BRANCH  25  28
ATOM     28  C   UNL     1      -4.354  12.669  21.844  0.00  0.00    +0.000 C 
BRANCH  28  29
ATOM     29  C   UNL     1      -3.356  13.373  22.727  0.00  0.00    +0.000 A 
ATOM     30  C   UNL     1      -1.986  13.079  22.637  0.00  0.00    +0.000 A 
ATOM     31  C   UNL     1      -1.056  13.772  23.418  0.00  0.00    +0.000 A 
ATOM     32  C   UNL     1      -1.486  14.764  24.295  0.00  0.00    +0.000 A 
ATOM     33  C   UNL     1      -2.844  15.080  24.375  0.00  0.00    +0.000 A 
ATOM     34  C   UNL     1      -3.775  14.383  23.603  0.00  0.00    +0.000 A 
ATOM     35  O   UNL     1      -3.342  16.051  25.206  0.00  0.00    +0.000 OA
ATOM     36  C   UNL     1      -2.305  16.936  25.644  0.00  0.00    +0.000 C 
ATOM     37  C   UNL     1      -1.088  16.154  26.108  0.00  0.00    +0.000 C 
ATOM     38  O   UNL     1      -0.520  15.398  25.032  0.00  0.00    +0.000 OA
ENDBRANCH  28  29
ENDBRANCH  25  28
ENDBRANCH   1  24
TORSDOF 7
ENDMDL
MODEL 7
REMARK VINA RESULT:      -7.4      4.670      8.512
REMARK  Name = 
REMARK  10 active torsions:
REMARK  status: ('A' for Active; 'I' for Inactive)
REMARK    1  A    between atoms: C_1  and  C_2
REMARK    2  A    between atoms: C_2  and  C_3
REMARK    3  A    between atoms: C_2  and  C_4
REMARK    4  A    between atoms: C_2  and  C_5
REMARK    5  A    between atoms: C_5  and  N_6
REMARK    6  A    between atoms: C_5  and  N_20
REMARK    7  A    between atoms: C_7  and  C_9
REMARK    8  A    between atoms: C_9  and  C_10
REMARK    9  A    between atoms: N_22  and  C_23
REMARK   10  A    between atoms: N_25  and  C_26
REMARK                            x       y       z     vdW  Elec       q    Type
REMARK                         _______ _______ _______ _____ _____    ______ ____
ROOT
ATOM      1  C   UNL     1       0.821  14.153  20.370  0.00  0.00    +0.000 C 
ENDROOT
BRANCH   1   2
ATOM      2  N   UNL     1       0.248  13.006  19.694  0.00  0.00    +0.000 N 
ATOM      3  C   UNL     1       0.151  11.754  20.244  0.00  0.00    +0.000 C 
ATOM      4  N   UNL     1       0.948  11.429  21.216  0.00  0.00    +0.000 NA
ATOM      5  N   UNL     1      -0.790  10.964  19.601  0.00  0.00    +0.000 N 
ATOM      6  H   UNL     1       0.252  13.018  18.684  0.00  0.00    +0.000 HD
ATOM      7  H   UNL     1      -0.833   9.998  19.923  0.00  0.00    +0.000 HD
BRANCH   5   8
ATOM      8  C   UNL     1      -2.113  11.378  19.223  0.00  0.00    +0.000 A 
ATOM      9  C   UNL     1      -2.915  12.126  20.097  0.00  0.00    +0.000 A 
ATOM     10  C   UNL     1      -4.191  12.538  19.726  0.00  0.00    +0.000 A 
ATOM     11  C   UNL     1      -4.698  12.189  18.480  0.00  0.00    +0.000 A 
ATOM     12  C   UNL     1      -3.960  11.449  17.583  0.00  0.00    +0.000 A 
ATOM     13  N   UNL     1      -4.540  11.153  16.415  0.00  0.00    +0.000 NA
ATOM     14  C   UNL     1      -3.840  10.438  15.517  0.00  0.00    +0.000 A 
ATOM     15  C   UNL     1      -2.552   9.994  15.742  0.00  0.00    +0.000 A 
ATOM     16  C   UNL     1      -1.958  10.296  16.966  0.00  0.00    +0.000 A 
ATOM     17  C   UNL     1      -2.652  11.020  17.948  0.00  0.00    +0.000 A 
ENDBRANCH   5   8
BRANCH   4  18
ATOM     18  C   UNL     1       0.917  10.200  21.732  0.00  0.00    +0.000 C 
ATOM     19  N   UNL     1       0.915   9.133  22.192  0.00  0.00    +0.000 NA
ENDBRANCH   4  18
ENDBRANCH   1   2
BRANCH   1  21
ATOM     20  C   UNL     1       2.560  16.000  20.155  0.00  0.00    +0.000 C 
ATOM     21  C   UNL     1       1.515  15.151  19.393  0.00  0.00    +0.000 C 
ATOM     22  C   UNL     1       0.518  16.120  18.727  0.00  0.00    +0.000 C 
ATOM     23  C   UNL     1       2.275  14.380  18.298  0.00  0.00    +0.000 C 
ENDBRANCH   1  21
BRANCH   1  24
ATOM     24  N   UNL     1      -0.326  14.727  21.022  0.00  0.00    +0.000 N 
ATOM     25  C   UNL     1      -0.299  15.142  22.337  0.00  0.00    +0.000 C 
ATOM     26  O   UNL     1       0.685  15.017  23.061  0.00  0.00    +0.000 OA
ATOM     27  H   UNL     1      -1.205  14.662  20.536  0.00  0.00    +0.000 HD
BRANCH  25  28
ATOM     28  C   UNL     1      -1.574  15.802  22.809  0.00  0.00    +0.000 C 
BRANCH  28  29
ATOM     29  C   UNL     1      -2.692  14.836  23.107  0.00  0.00    +0.000 A 
ATOM     30  C   UNL     1      -2.415  13.517  23.497  0.00  0.00    +0.000 A 
ATOM     31  C   UNL     1      -3.452  12.639  23.827  0.00  0.00    +0.000 A 
ATOM     32  C   UNL     1      -4.774  13.071  23.770  0.00  0.00    +0.000 A 
ATOM     33  C   UNL     1      -5.059  14.388  23.405  0.00  0.00    +0.000 A 
ATOM     34  C   UNL     1      -4.026  15.264  23.067  0.00  0.00    +0.000 A 
ATOM     35  O   UNL     1      -6.334  14.890  23.337  0.00  0.00    +0.000 OA
ATOM     36  C   UNL     1      -7.253  14.059  24.054  0.00  0.00    +0.000 C 
ATOM     37  C   UNL     1      -7.043  12.595  23.706  0.00  0.00    +0.000 C 
ATOM     38  O   UNL     1      -5.739  12.155  24.101  0.00  0.00    +0.000 OA
ENDBRANCH  28  29
ENDBRANCH  25  28
ENDBRANCH   1  24
TORSDOF 7
ENDMDL
MODEL 8
REMARK VINA RESULT:      -7.4      2.151      4.910
REMARK  Name = 
REMARK  10 active torsions:
REMARK  status: ('A' for Active; 'I' for Inactive)
REMARK    1  A    between atoms: C_1  and  C_2
REMARK    2  A    between atoms: C_2  and  C_3
REMARK    3  A    between atoms: C_2  and  C_4
REMARK    4  A    between atoms: C_2  and  C_5
REMARK    5  A    between atoms: C_5  and  N_6
REMARK    6  A    between atoms: C_5  and  N_20
REMARK    7  A    between atoms: C_7  and  C_9
REMARK    8  A    between atoms: C_9  and  C_10
REMARK    9  A    between atoms: N_22  and  C_23
REMARK   10  A    between atoms: N_25  and  C_26
REMARK                            x       y       z     vdW  Elec       q    Type
REMARK                         _______ _______ _______ _____ _____    ______ ____
ROOT
ATOM      1  C   UNL     1      -1.476  10.622  18.442  0.00  0.00    +0.000 C 
ENDROOT
BRANCH   1   2
ATOM      2  N   UNL     1      -1.313  12.022  18.782  0.00  0.00    +0.000 N 
ATOM      3  C   UNL     1      -1.367  12.517  20.058  0.00  0.00    +0.000 C 
ATOM      4  N   UNL     1      -1.991  11.838  20.972  0.00  0.00    +0.000 NA
ATOM      5  N   UNL     1      -0.771  13.765  20.169  0.00  0.00    +0.000 N 
ATOM      6  H   UNL     1      -1.527  12.698  18.063  0.00  0.00    +0.000 HD
ATOM      7  H   UNL     1      -0.865  14.207  21.082  0.00  0.00    +0.000 HD
BRANCH   5   8
ATOM      8  C   UNL     1       0.500  14.137  19.611  0.00  0.00    +0.000 A 
ATOM      9  C   UNL     1       1.612  13.289  19.712  0.00  0.00    +0.000 A 
ATOM     10  C   UNL     1       2.838  13.644  19.159  0.00  0.00    +0.000 A 
ATOM     11  C   UNL     1       2.981  14.867  18.515  0.00  0.00    +0.000 A 
ATOM     12  C   UNL     1       1.927  15.745  18.391  0.00  0.00    +0.000 A 
ATOM     13  N   UNL     1       2.167  16.902  17.765  0.00  0.00    +0.000 NA
ATOM     14  C   UNL     1       1.154  17.774  17.624  0.00  0.00    +0.000 A 
ATOM     15  C   UNL     1      -0.122  17.534  18.095  0.00  0.00    +0.000 A 
ATOM     16  C   UNL     1      -0.363  16.331  18.757  0.00  0.00    +0.000 A 
ATOM     17  C   UNL     1       0.665  15.395  18.951  0.00  0.00    +0.000 A 
ENDBRANCH   5   8
BRANCH   4  18
ATOM     18  C   UNL     1      -2.112  12.322  22.209  0.00  0.00    +0.000 C 
ATOM     19  N   UNL     1      -2.243  12.734  23.287  0.00  0.00    +0.000 NA
ENDBRANCH   4  18
ENDBRANCH   1   2
BRANCH   1  21
ATOM     20  C   UNL     1      -2.213   9.852  16.129  0.00  0.00    +0.000 C 
ATOM     21  C   UNL     1      -2.698  10.362  17.507  0.00  0.00    +0.000 C 
ATOM     22  C   UNL     1      -3.543  11.629  17.268  0.00  0.00    +0.000 C 
ATOM     23  C   UNL     1      -3.597   9.262  18.102  0.00  0.00    +0.000 C 
ENDBRANCH   1  21
BRANCH   1  24
ATOM     24  N   UNL     1      -0.222  10.314  17.808  0.00  0.00    +0.000 N 
ATOM     25  C   UNL     1       0.889   9.912  18.521  0.00  0.00    +0.000 C 
ATOM     26  O   UNL     1       0.905   9.826  19.746  0.00  0.00    +0.000 OA
ATOM     27  H   UNL     1      -0.129  10.564  16.837  0.00  0.00    +0.000 HD
BRANCH  25  28
ATOM     28  C   UNL     1       2.080   9.547  17.666  0.00  0.00    +0.000 C 
BRANCH  28  29
ATOM     29  C   UNL     1       2.587   8.145  17.886  0.00  0.00    +0.000 A 
ATOM     30  C   UNL     1       1.764   7.166  18.462  0.00  0.00    +0.000 A 
ATOM     31  C   UNL     1       2.218   5.853  18.615  0.00  0.00    +0.000 A 
ATOM     32  C   UNL     1       3.498   5.506  18.193  0.00  0.00    +0.000 A 
ATOM     33  C   UNL     1       4.318   6.467  17.599  0.00  0.00    +0.000 A 
ATOM     34  C   UNL     1       3.870   7.781  17.453  0.00  0.00    +0.000 A 
ATOM     35  O   UNL     1       5.586   6.200  17.148  0.00  0.00    +0.000 OA
ATOM     36  C   UNL     1       5.790   4.791  16.993  0.00  0.00    +0.000 C 
ATOM     37  C   UNL     1       5.291   4.035  18.213  0.00  0.00    +0.000 C 
ATOM     38  O   UNL     1       3.878   4.202  18.379  0.00  0.00    +0.000 OA
ENDBRANCH  28  29
ENDBRANCH  25  28
ENDBRANCH   1  24
TORSDOF 7
ENDMDL
MODEL 9
REMARK VINA RESULT:      -7.4      5.170      8.718
REMARK  Name = 
REMARK  10 active torsions:
REMARK  status: ('A' for Active; 'I' for Inactive)
REMARK    1  A    between atoms: C_1  and  C_2
REMARK    2  A    between atoms: C_2  and  C_3
REMARK    3  A    between atoms: C_2  and  C_4
REMARK    4  A    between atoms: C_2  and  C_5
REMARK    5  A    between atoms: C_5  and  N_6
REMARK    6  A    between atoms: C_5  and  N_20
REMARK    7  A    between atoms: C_7  and  C_9
REMARK    8  A    between atoms: C_9  and  C_10
REMARK    9  A    between atoms: N_22  and  C_23
REMARK   10  A    between atoms: N_25  and  C_26
REMARK                            x       y       z     vdW  Elec       q    Type
REMARK                         _______ _______ _______ _____ _____    ______ ____
ROOT
ATOM      1  C   UNL     1       0.140  14.469  20.744  0.00  0.00    +0.000 C 
ENDROOT
BRANCH   1   2
ATOM      2  N   UNL     1      -0.363  13.251  20.140  0.00  0.00    +0.000 N 
ATOM      3  C   UNL     1      -0.595  12.088  20.825  0.00  0.00    +0.000 C 
ATOM      4  N   UNL     1       0.023  11.883  21.949  0.00  0.00    +0.000 NA
ATOM      5  N   UNL     1      -1.452  11.234  20.147  0.00  0.00    +0.000 N 
ATOM      6  H   UNL     1      -0.198  13.127  19.151  0.00  0.00    +0.000 HD
ATOM      7  H   UNL     1      -1.585  10.322  20.581  0.00  0.00    +0.000 HD
BRANCH   5   8
ATOM      8  C   UNL     1      -2.682  11.617  19.508  0.00  0.00    +0.000 A 
ATOM      9  C   UNL     1      -3.638  12.390  20.182  0.00  0.00    +0.000 A 
ATOM     10  C   UNL     1      -4.822  12.772  19.558  0.00  0.00    +0.000 A 
ATOM     11  C   UNL     1      -5.081  12.366  18.254  0.00  0.00    +0.000 A 
ATOM     12  C   UNL     1      -4.183  11.600  17.545  0.00  0.00    +0.000 A 
ATOM     13  N   UNL     1      -4.529  11.250  16.302  0.00  0.00    +0.000 NA
ATOM     14  C   UNL     1      -3.668  10.508  15.584  0.00  0.00    +0.000 A 
ATOM     15  C   UNL     1      -2.444  10.089  16.068  0.00  0.00    +0.000 A 
ATOM     16  C   UNL     1      -2.095  10.447  17.369  0.00  0.00    +0.000 A 
ATOM     17  C   UNL     1      -2.967  11.202  18.170  0.00  0.00    +0.000 A 
ENDBRANCH   5   8
BRANCH   4  18
ATOM     18  C   UNL     1      -0.137  10.736  22.609  0.00  0.00    +0.000 C 
ATOM     19  N   UNL     1      -0.277   9.750  23.207  0.00  0.00    +0.000 NA
ENDBRANCH   4  18
ENDBRANCH   1   2
BRANCH   1  21
ATOM     20  C   UNL     1      -0.417  15.737  18.608  0.00  0.00    +0.000 C 
ATOM     21  C   UNL     1       0.658  15.500  19.695  0.00  0.00    +0.000 C 
ATOM     22  C   UNL     1       1.946  15.032  18.988  0.00  0.00    +0.000 C 
ATOM     23  C   UNL     1       0.921  16.859  20.371  0.00  0.00    +0.000 C 
ENDBRANCH   1  21
BRANCH   1  24
ATOM     24  N   UNL     1      -1.008  14.947  21.467  0.00  0.00    +0.000 N 
ATOM     25  C   UNL     1      -0.947  15.312  22.796  0.00  0.00    +0.000 C 
ATOM     26  O   UNL     1       0.075  15.219  23.471  0.00  0.00    +0.000 OA
ATOM     27  H   UNL     1      -1.903  14.849  21.016  0.00  0.00    +0.000 HD
BRANCH  25  28
ATOM     28  C   UNL     1      -2.236  15.875  23.348  0.00  0.00    +0.000 C 
BRANCH  28  29
ATOM     29  C   UNL     1      -3.343  14.862  23.478  0.00  0.00    +0.000 A 
ATOM     30  C   UNL     1      -3.155  13.684  24.217  0.00  0.00    +0.000 A 
ATOM     31  C   UNL     1      -4.202  12.771  24.382  0.00  0.00    +0.000 A 
ATOM     32  C   UNL     1      -5.445  13.028  23.810  0.00  0.00    +0.000 A 
ATOM     33  C   UNL     1      -5.649  14.207  23.092  0.00  0.00    +0.000 A 
ATOM     34  C   UNL     1      -4.603  15.116  22.919  0.00  0.00    +0.000 A 
ATOM     35  O   UNL     1      -6.847  14.535  22.509  0.00  0.00    +0.000 OA
ATOM     36  C   UNL     1      -7.916  13.757  23.059  0.00  0.00    +0.000 C 
ATOM     37  C   UNL     1      -7.534  12.288  23.129  0.00  0.00    +0.000 C 
ATOM     38  O   UNL     1      -6.422  12.087  24.008  0.00  0.00    +0.000 OA
ENDBRANCH  28  29
ENDBRANCH  25  28
ENDBRANCH   1  24
TORSDOF 7
ENDMDL
