MODEL 1
REMARK VINA RESULT:      -8.0      0.000      0.000
REMARK  Name = 
REMARK  13 active torsions:
REMARK  status: ('A' for Active; 'I' for Inactive)
REMARK    1  A    between atoms: C_1  and  C_2
REMARK    2  A    between atoms: C_2  and  C_3
REMARK    3  A    between atoms: C_2  and  C_4
REMARK    4  A    between atoms: C_12  and  C_13
REMARK    5  A    between atoms: N_15  and  C_16
REMARK    6  A    between atoms: C_16  and  C_17
REMARK    7  A    between atoms: C_17  and  N_18
REMARK    8  A    between atoms: N_18  and  C_19
REMARK    9  A    between atoms: N_18  and  C_22
REMARK   10  A    between atoms: C_19  and  C_20
REMARK   11  A    between atoms: C_19  and  C_21
REMARK   12  A    between atoms: C_22  and  C_23
REMARK   13  A    between atoms: C_22  and  C_24
REMARK                            x       y       z     vdW  Elec       q    Type
REMARK                         _______ _______ _______ _____ _____    ______ ____
ROOT
ATOM      1  C   UNL     1      -2.167  12.787  22.662  0.00  0.00    +0.000 A 
ATOM      2  C   UNL     1      -2.081  13.439  21.425  0.00  0.00    +0.000 A 
ATOM      3  C   UNL     1      -1.357  12.876  20.365  0.00  0.00    +0.000 A 
ATOM      4  C   UNL     1      -0.691  11.660  20.524  0.00  0.00    +0.000 A 
ATOM      5  N   UNL     1       0.054  11.148  19.451  0.00  0.00    +0.000 NA
ATOM      6  C   UNL     1       0.661  10.015  19.622  0.00  0.00    +0.000 A 
ATOM      7  C   UNL     1       1.449   9.457  18.492  0.00  0.00    +0.000 A 
ATOM      8  C   UNL     1       2.060   8.276  18.630  0.00  0.00    +0.000 A 
ATOM      9  C   UNL     1       1.969   7.518  19.862  0.00  0.00    +0.000 A 
ATOM     10  C   UNL     1       1.262   8.032  20.883  0.00  0.00    +0.000 A 
ATOM     11  N   UNL     1       0.622   9.263  20.797  0.00  0.00    +0.000 N 
ATOM     12  C   UNL     1      -0.078   9.727  21.908  0.00  0.00    +0.000 A 
ATOM     13  O   UNL     1      -0.133   9.144  22.989  0.00  0.00    +0.000 OA
ATOM     14  C   UNL     1      -0.782  11.010  21.746  0.00  0.00    +0.000 A 
ATOM     15  C   UNL     1      -1.510  11.557  22.809  0.00  0.00    +0.000 A 
ENDROOT
BRANCH   9  16
ATOM     16  C   UNL     1       2.579   6.151  19.914  0.00  0.00    +0.000 C 
ATOM     17  O   UNL     1       1.919   5.207  20.338  0.00  0.00    +0.000 OA
ATOM     18  N   UNL     1       3.863   6.003  19.442  0.00  0.00    +0.000 N 
ATOM     19  H   UNL     1       4.355   6.751  18.972  0.00  0.00    +0.000 HD
BRANCH  18  20
ATOM     20  C   UNL     1       4.419   4.668  19.382  0.00  0.00    +0.000 C 
BRANCH  20  21
ATOM     21  C   UNL     1       5.622   4.482  18.444  0.00  0.00    +0.000 C 
BRANCH  21  22
ATOM     22  N   UNL     1       6.181   5.590  17.619  0.00  0.00    +0.000 NA
BRANCH  22  23
ATOM     23  C   UNL     1       7.567   6.012  18.026  0.00  0.00    +0.000 C 
ATOM     24  C   UNL     1       7.825   7.522  17.829  0.00  0.00    +0.000 C 
ATOM     25  C   UNL     1       7.930   5.720  19.494  0.00  0.00    +0.000 C 
ENDBRANCH  22  23
BRANCH  22  26
ATOM     26  C   UNL     1       6.114   5.216  16.156  0.00  0.00    +0.000 C 
ATOM     27  C   UNL     1       5.732   3.750  15.874  0.00  0.00    +0.000 C 
ATOM     28  C   UNL     1       5.210   6.138  15.310  0.00  0.00    +0.000 C 
ENDBRANCH  22  26
ENDBRANCH  21  22
ENDBRANCH  20  21
ENDBRANCH  18  20
ENDBRANCH   9  16
BRANCH   1  30
ATOM     29  C   UNL     1      -3.251  14.836  23.576  0.00  0.00    +0.000 C 
ATOM     30  C   UNL     1      -2.867  13.383  23.871  0.00  0.00    +0.000 C 
ATOM     31  C   UNL     1      -4.085  12.591  24.351  0.00  0.00    +0.000 C 
ENDBRANCH   1  30
TORSDOF 7
ENDMDL
MODEL 2
REMARK VINA RESULT:      -8.0      0.872      1.156
REMARK  Name = 
REMARK  13 active torsions:
REMARK  status: ('A' for Active; 'I' for Inactive)
REMARK    1  A    between atoms: C_1  and  C_2
REMARK    2  A    between atoms: C_2  and  C_3
REMARK    3  A    between atoms: C_2  and  C_4
REMARK    4  A    between atoms: C_12  and  C_13
REMARK    5  A    between atoms: N_15  and  C_16
REMARK    6  A    between atoms: C_16  and  C_17
REMARK    7  A    between atoms: C_17  and  N_18
REMARK    8  A    between atoms: N_18  and  C_19
REMARK    9  A    between atoms: N_18  and  C_22
REMARK   10  A    between atoms: C_19  and  C_20
REMARK   11  A    between atoms: C_19  and  C_21
REMARK   12  A    between atoms: C_22  and  C_23
REMARK   13  A    between atoms: C_22  and  C_24
REMARK                            x       y       z     vdW  Elec       q    Type
REMARK                         _______ _______ _______ _____ _____    ______ ____
ROOT
ATOM      1  C   UNL     1      -1.837  12.937  21.908  0.00  0.00    +0.000 A 
ATOM      2  C   UNL     1      -1.607  13.672  20.736  0.00  0.00    +0.000 A 
ATOM      3  C   UNL     1      -0.829  13.142  19.697  0.00  0.00    +0.000 A 
ATOM      4  C   UNL     1      -0.252  11.877  19.813  0.00  0.00    +0.000 A 
ATOM      5  N   UNL     1       0.550  11.398  18.767  0.00  0.00    +0.000 NA
ATOM      6  C   UNL     1       1.074  10.219  18.897  0.00  0.00    +0.000 A 
ATOM      7  C   UNL     1       1.921   9.695  17.794  0.00  0.00    +0.000 A 
ATOM      8  C   UNL     1       2.448   8.470  17.887  0.00  0.00    +0.000 A 
ATOM      9  C   UNL     1       2.208   7.632  19.045  0.00  0.00    +0.000 A 
ATOM     10  C   UNL     1       1.448   8.114  20.043  0.00  0.00    +0.000 A 
ATOM     11  N   UNL     1       0.891   9.387  20.002  0.00  0.00    +0.000 N 
ATOM     12  C   UNL     1       0.127   9.812  21.086  0.00  0.00    +0.000 A 
ATOM     13  O   UNL     1      -0.055   9.157  22.110  0.00  0.00    +0.000 OA
ATOM     14  C   UNL     1      -0.485  11.146  20.970  0.00  0.00    +0.000 A 
ATOM     15  C   UNL     1      -1.268  11.660  22.010  0.00  0.00    +0.000 A 
ENDROOT
BRANCH   9  16
ATOM     16  C   UNL     1       2.731   6.228  19.039  0.00  0.00    +0.000 C 
ATOM     17  O   UNL     1       2.120   5.355  18.432  0.00  0.00    +0.000 OA
ATOM     18  N   UNL     1       3.916   5.981  19.695  0.00  0.00    +0.000 N 
ATOM     19  H   UNL     1       4.484   6.724  20.080  0.00  0.00    +0.000 HD
BRANCH  18  20
ATOM     20  C   UNL     1       4.487   4.655  19.598  0.00  0.00    +0.000 C 
BRANCH  20  21
ATOM     21  C   UNL     1       5.602   4.478  18.555  0.00  0.00    +0.000 C 
BRANCH  21  22
ATOM     22  N   UNL     1       5.990   5.552  17.599  0.00  0.00    +0.000 NA
BRANCH  22  23
ATOM     23  C   UNL     1       7.387   6.073  17.802  0.00  0.00    +0.000 C 
ATOM     24  C   UNL     1       7.506   7.598  17.580  0.00  0.00    +0.000 C 
ATOM     25  C   UNL     1       7.980   5.813  19.200  0.00  0.00    +0.000 C 
ENDBRANCH  22  23
BRANCH  22  26
ATOM     26  C   UNL     1       5.770   5.072  16.182  0.00  0.00    +0.000 C 
ATOM     27  C   UNL     1       7.055   4.742  15.398  0.00  0.00    +0.000 C 
ATOM     28  C   UNL     1       4.794   3.882  16.063  0.00  0.00    +0.000 C 
ENDBRANCH  22  26
ENDBRANCH  21  22
ENDBRANCH  20  21
ENDBRANCH  18  20
ENDBRANCH   9  16
BRANCH   1  30
ATOM     29  C   UNL     1      -3.412  12.364  23.752  0.00  0.00    +0.000 C 
ATOM     30  C   UNL     1      -2.602  13.487  23.098  0.00  0.00    +0.000 C 
ATOM     31  C   UNL     1      -1.732  14.198  24.137  0.00  0.00    +0.000 C 
ENDBRANCH   1  30
TORSDOF 7
ENDMDL
MODEL 3
REMARK VINA RESULT:      -7.7      2.600     10.634
REMARK  Name = 
REMARK  13 active torsions:
REMARK  status: ('A' for Active; 'I' for Inactive)
REMARK    1  A    between atoms: C_1  and  C_2
REMARK    2  A    between atoms: C_2  and  C_3
REMARK    3  A    between atoms: C_2  and  C_4
REMARK    4  A    between atoms: C_12  and  C_13
REMARK    5  A    between atoms: N_15  and  C_16
REMARK    6  A    between atoms: C_16  and  C_17
REMARK    7  A    between atoms: C_17  and  N_18
REMARK    8  A    between atoms: N_18  and  C_19
REMARK    9  A    between atoms: N_18  and  C_22
REMARK   10  A    between atoms: C_19  and  C_20
REMARK   11  A    between atoms: C_19  and  C_21
REMARK   12  A    between atoms: C_22  and  C_23
REMARK   13  A    between atoms: C_22  and  C_24
REMARK                            x       y       z     vdW  Elec       q    Type
REMARK                         _______ _______ _______ _____ _____    ______ ____
ROOT
ATOM      1  C   UNL     1       4.055   5.731  17.542  0.00  0.00    +0.000 A 
ATOM      2  C   UNL     1       3.940   4.986  18.724  0.00  0.00    +0.000 A 
ATOM      3  C   UNL     1       3.159   5.449  19.792  0.00  0.00    +0.000 A 
ATOM      4  C   UNL     1       2.491   6.671  19.708  0.00  0.00    +0.000 A 
ATOM      5  N   UNL     1       1.750   7.117  20.813  0.00  0.00    +0.000 NA
ATOM      6  C   UNL     1       1.136   8.254  20.710  0.00  0.00    +0.000 A 
ATOM      7  C   UNL     1       0.341   8.737  21.870  0.00  0.00    +0.000 A 
ATOM      8  C   UNL     1      -0.328   9.891  21.781  0.00  0.00    +0.000 A 
ATOM      9  C   UNL     1      -0.300  10.687  20.570  0.00  0.00    +0.000 A 
ATOM     10  C   UNL     1       0.427  10.250  19.528  0.00  0.00    +0.000 A 
ATOM     11  N   UNL     1       1.153   9.066  19.575  0.00  0.00    +0.000 N 
ATOM     12  C   UNL     1       1.890   8.694  18.454  0.00  0.00    +0.000 A 
ATOM     13  O   UNL     1       1.986   9.366  17.429  0.00  0.00    +0.000 OA
ATOM     14  C   UNL     1       2.598   7.406  18.536  0.00  0.00    +0.000 A 
ATOM     15  C   UNL     1       3.366   6.950  17.458  0.00  0.00    +0.000 A 
ENDROOT
BRANCH   9  16
ATOM     16  C   UNL     1      -1.161  11.911  20.493  0.00  0.00    +0.000 C 
ATOM     17  O   UNL     1      -1.188  12.570  19.458  0.00  0.00    +0.000 OA
ATOM     18  N   UNL     1      -1.927  12.228  21.591  0.00  0.00    +0.000 N 
ATOM     19  H   UNL     1      -2.004  11.613  22.391  0.00  0.00    +0.000 HD
BRANCH  18  20
ATOM     20  C   UNL     1      -2.846  13.341  21.485  0.00  0.00    +0.000 C 
BRANCH  20  21
ATOM     21  C   UNL     1      -4.283  12.988  21.067  0.00  0.00    +0.000 C 
BRANCH  21  22
ATOM     22  N   UNL     1      -5.322  12.551  22.041  0.00  0.00    +0.000 NA
BRANCH  22  23
ATOM     23  C   UNL     1      -5.239  13.248  23.372  0.00  0.00    +0.000 C 
ATOM     24  C   UNL     1      -6.614  13.715  23.900  0.00  0.00    +0.000 C 
ATOM     25  C   UNL     1      -4.626  12.408  24.508  0.00  0.00    +0.000 C 
ENDBRANCH  22  23
BRANCH  22  26
ATOM     26  C   UNL     1      -6.692  12.692  21.417  0.00  0.00    +0.000 C 
ATOM     27  C   UNL     1      -6.764  13.647  20.211  0.00  0.00    +0.000 C 
ATOM     28  C   UNL     1      -7.350  11.350  21.031  0.00  0.00    +0.000 C 
ENDBRANCH  22  26
ENDBRANCH  21  22
ENDBRANCH  20  21
ENDBRANCH  18  20
ENDBRANCH   9  16
BRANCH   1  30
ATOM     29  C   UNL     1       5.253   6.545  15.514  0.00  0.00    +0.000 C 
ATOM     30  C   UNL     1       4.948   5.322  16.384  0.00  0.00    +0.000 C 
ATOM     31  C   UNL     1       6.242   4.621  16.799  0.00  0.00    +0.000 C 
ENDBRANCH   1  30
TORSDOF 7
ENDMDL
MODEL 4
REMARK VINA RESULT:      -7.5      0.785      1.986
REMARK  Name = 
REMARK  13 active torsions:
REMARK  status: ('A' for Active; 'I' for Inactive)
REMARK    1  A    between atoms: C_1  and  C_2
REMARK    2  A    between atoms: C_2  and  C_3
REMARK    3  A    between atoms: C_2  and  C_4
REMARK    4  A    between atoms: C_12  and  C_13
REMARK    5  A    between atoms: N_15  and  C_16
REMARK    6  A    between atoms: C_16  and  C_17
REMARK    7  A    between atoms: C_17  and  N_18
REMARK    8  A    between atoms: N_18  and  C_19
REMARK    9  A    between atoms: N_18  and  C_22
REMARK   10  A    between atoms: C_19  and  C_20
REMARK   11  A    between atoms: C_19  and  C_21
REMARK   12  A    between atoms: C_22  and  C_23
REMARK   13  A    between atoms: C_22  and  C_24
REMARK                            x       y       z     vdW  Elec       q    Type
REMARK                         _______ _______ _______ _____ _____    ______ ____
ROOT
ATOM      1  C   UNL     1      -2.072  12.737  21.603  0.00  0.00    +0.000 A 
ATOM      2  C   UNL     1      -2.044  13.222  20.288  0.00  0.00    +0.000 A 
ATOM      3  C   UNL     1      -1.308  12.560  19.295  0.00  0.00    +0.000 A 
ATOM      4  C   UNL     1      -0.575  11.413  19.597  0.00  0.00    +0.000 A 
ATOM      5  N   UNL     1       0.179  10.801  18.584  0.00  0.00    +0.000 NA
ATOM      6  C   UNL     1       0.850   9.734  18.889  0.00  0.00    +0.000 A 
ATOM      7  C   UNL     1       1.647   9.072  17.823  0.00  0.00    +0.000 A 
ATOM      8  C   UNL     1       2.325   7.953  18.102  0.00  0.00    +0.000 A 
ATOM      9  C   UNL     1       2.297   7.364  19.425  0.00  0.00    +0.000 A 
ATOM     10  C   UNL     1       1.581   7.972  20.387  0.00  0.00    +0.000 A 
ATOM     11  N   UNL     1       0.873   9.145  20.153  0.00  0.00    +0.000 N 
ATOM     12  C   UNL     1       0.168   9.716  21.210  0.00  0.00    +0.000 A 
ATOM     13  O   UNL     1       0.164   9.282  22.359  0.00  0.00    +0.000 OA
ATOM     14  C   UNL     1      -0.608  10.928  20.897  0.00  0.00    +0.000 A 
ATOM     15  C   UNL     1      -1.346  11.573  21.896  0.00  0.00    +0.000 A 
ENDROOT
BRANCH   9  16
ATOM     16  C   UNL     1       2.982   6.050  19.644  0.00  0.00    +0.000 C 
ATOM     17  O   UNL     1       2.523   5.253  20.456  0.00  0.00    +0.000 OA
ATOM     18  N   UNL     1       4.096   5.772  18.884  0.00  0.00    +0.000 N 
ATOM     19  H   UNL     1       4.394   6.370  18.125  0.00  0.00    +0.000 HD
BRANCH  18  20
ATOM     20  C   UNL     1       4.696   4.461  19.005  0.00  0.00    +0.000 C 
BRANCH  20  21
ATOM     21  C   UNL     1       5.583   4.016  17.831  0.00  0.00    +0.000 C 
BRANCH  21  22
ATOM     22  N   UNL     1       6.677   4.863  17.281  0.00  0.00    +0.000 NA
BRANCH  22  23
ATOM     23  C   UNL     1       6.437   5.326  15.869  0.00  0.00    +0.000 C 
ATOM     24  C   UNL     1       6.189   4.163  14.882  0.00  0.00    +0.000 C 
ATOM     25  C   UNL     1       5.240   6.278  15.692  0.00  0.00    +0.000 C 
ENDBRANCH  22  23
BRANCH  22  26
ATOM     26  C   UNL     1       6.938   6.023  18.215  0.00  0.00    +0.000 C 
ATOM     27  C   UNL     1       7.961   5.744  19.333  0.00  0.00    +0.000 C 
ATOM     28  C   UNL     1       7.327   7.334  17.500  0.00  0.00    +0.000 C 
ENDBRANCH  22  26
ENDBRANCH  21  22
ENDBRANCH  20  21
ENDBRANCH  18  20
ENDBRANCH   9  16
BRANCH   1  30
ATOM     29  C   UNL     1      -3.343  12.422  23.724  0.00  0.00    +0.000 C 
ATOM     30  C   UNL     1      -2.783  13.452  22.738  0.00  0.00    +0.000 C 
ATOM     31  C   UNL     1      -1.926  14.487  23.470  0.00  0.00    +0.000 C 
ENDBRANCH   1  30
TORSDOF 7
ENDMDL
MODEL 5
REMARK VINA RESULT:      -7.4      2.453     10.898
REMARK  Name = 
REMARK  13 active torsions:
REMARK  status: ('A' for Active; 'I' for Inactive)
REMARK    1  A    between atoms: C_1  and  C_2
REMARK    2  A    between atoms: C_2  and  C_3
REMARK    3  A    between atoms: C_2  and  C_4
REMARK    4  A    between atoms: C_12  and  C_13
REMARK    5  A    between atoms: N_15  and  C_16
REMARK    6  A    between atoms: C_16  and  C_17
REMARK    7  A    between atoms: C_17  and  N_18
REMARK    8  A    between atoms: N_18  and  C_19
REMARK    9  A    between atoms: N_18  and  C_22
REMARK   10  A    between atoms: C_19  and  C_20
REMARK   11  A    between atoms: C_19  and  C_21
REMARK   12  A    between atoms: C_22  and  C_23
REMARK   13  A    between atoms: C_22  and  C_24
REMARK                            x       y       z     vdW  Elec       q    Type
REMARK                         _______ _______ _______ _____ _____    ______ ____
ROOT
ATOM      1  C   UNL     1       4.392   5.829  17.500  0.00  0.00    +0.000 A 
ATOM      2  C   UNL     1       4.250   5.078  18.675  0.00  0.00    +0.000 A 
ATOM      3  C   UNL     1       3.392   5.502  19.699  0.00  0.00    +0.000 A 
ATOM      4  C   UNL     1       2.670   6.690  19.577  0.00  0.00    +0.000 A 
ATOM      5  N   UNL     1       1.850   7.099  20.640  0.00  0.00    +0.000 NA
ATOM      6  C   UNL     1       1.188   8.205  20.502  0.00  0.00    +0.000 A 
ATOM      7  C   UNL     1       0.310   8.648  21.617  0.00  0.00    +0.000 A 
ATOM      8  C   UNL     1      -0.408   9.768  21.490  0.00  0.00    +0.000 A 
ATOM      9  C   UNL     1      -0.354  10.566  20.282  0.00  0.00    +0.000 A 
ATOM     10  C   UNL     1       0.448  10.166  19.280  0.00  0.00    +0.000 A 
ATOM     11  N   UNL     1       1.227   9.018  19.369  0.00  0.00    +0.000 N 
ATOM     12  C   UNL     1       2.040   8.683  18.289  0.00  0.00    +0.000 A 
ATOM     13  O   UNL     1       2.159   9.360  17.270  0.00  0.00    +0.000 OA
ATOM     14  C   UNL     1       2.804   7.430  18.411  0.00  0.00    +0.000 A 
ATOM     15  C   UNL     1       3.651   7.013  17.377  0.00  0.00    +0.000 A 
ENDROOT
BRANCH   9  16
ATOM     16  C   UNL     1      -1.268  11.747  20.156  0.00  0.00    +0.000 C 
ATOM     17  O   UNL     1      -1.464  12.249  19.054  0.00  0.00    +0.000 OA
ATOM     18  N   UNL     1      -1.889  12.202  21.297  0.00  0.00    +0.000 N 
ATOM     19  H   UNL     1      -1.830  11.708  22.177  0.00  0.00    +0.000 HD
BRANCH  18  20
ATOM     20  C   UNL     1      -2.860  13.268  21.167  0.00  0.00    +0.000 C 
BRANCH  20  21
ATOM     21  C   UNL     1      -4.226  13.016  21.825  0.00  0.00    +0.000 C 
BRANCH  21  22
ATOM     22  N   UNL     1      -4.914  14.032  22.670  0.00  0.00    +0.000 NA
BRANCH  22  23
ATOM     23  C   UNL     1      -6.409  14.051  22.502  0.00  0.00    +0.000 C 
ATOM     24  C   UNL     1      -7.011  12.649  22.255  0.00  0.00    +0.000 C 
ATOM     25  C   UNL     1      -7.190  14.628  23.697  0.00  0.00    +0.000 C 
ENDBRANCH  22  23
BRANCH  22  26
ATOM     26  C   UNL     1      -4.513  13.845  24.115  0.00  0.00    +0.000 C 
ATOM     27  C   UNL     1      -4.146  12.401  24.509  0.00  0.00    +0.000 C 
ATOM     28  C   UNL     1      -3.388  14.791  24.585  0.00  0.00    +0.000 C 
ENDBRANCH  22  26
ENDBRANCH  21  22
ENDBRANCH  20  21
ENDBRANCH  18  20
ENDBRANCH   9  16
BRANCH   1  30
ATOM     29  C   UNL     1       6.762   5.982  16.745  0.00  0.00    +0.000 C 
ATOM     30  C   UNL     1       5.364   5.465  16.392  0.00  0.00    +0.000 C 
ATOM     31  C   UNL     1       5.410   3.974  16.055  0.00  0.00    +0.000 C 
ENDBRANCH   1  30
TORSDOF 7
ENDMDL
MODEL 6
REMARK VINA RESULT:      -7.4      2.781     10.825
REMARK  Name = 
REMARK  13 active torsions:
REMARK  status: ('A' for Active; 'I' for Inactive)
REMARK    1  A    between atoms: C_1  and  C_2
REMARK    2  A    between atoms: C_2  and  C_3
REMARK    3  A    between atoms: C_2  and  C_4
REMARK    4  A    between atoms: C_12  and  C_13
REMARK    5  A    between atoms: N_15  and  C_16
REMARK    6  A    between atoms: C_16  and  C_17
REMARK    7  A    between atoms: C_17  and  N_18
REMARK    8  A    between atoms: N_18  and  C_19
REMARK    9  A    between atoms: N_18  and  C_22
REMARK   10  A    between atoms: C_19  and  C_20
REMARK   11  A    between atoms: C_19  and  C_21
REMARK   12  A    between atoms: C_22  and  C_23
REMARK   13  A    between atoms: C_22  and  C_24
REMARK                            x       y       z     vdW  Elec       q    Type
REMARK                         _______ _______ _______ _____ _____    ______ ____
ROOT
ATOM      1  C   UNL     1       4.062   5.976  17.571  0.00  0.00    +0.000 A 
ATOM      2  C   UNL     1       3.887   5.208  18.731  0.00  0.00    +0.000 A 
ATOM      3  C   UNL     1       3.067   5.660  19.775  0.00  0.00    +0.000 A 
ATOM      4  C   UNL     1       2.420   6.893  19.689  0.00  0.00    +0.000 A 
ATOM      5  N   UNL     1       1.638   7.326  20.770  0.00  0.00    +0.000 NA
ATOM      6  C   UNL     1       1.044   8.474  20.666  0.00  0.00    +0.000 A 
ATOM      7  C   UNL     1       0.207   8.943  21.802  0.00  0.00    +0.000 A 
ATOM      8  C   UNL     1      -0.441  10.109  21.709  0.00  0.00    +0.000 A 
ATOM      9  C   UNL     1      -0.352  10.930  20.519  0.00  0.00    +0.000 A 
ATOM     10  C   UNL     1       0.413  10.505  19.499  0.00  0.00    +0.000 A 
ATOM     11  N   UNL     1       1.121   9.309  19.551  0.00  0.00    +0.000 N 
ATOM     12  C   UNL     1       1.900   8.951  18.454  0.00  0.00    +0.000 A 
ATOM     13  O   UNL     1       2.049   9.643  17.450  0.00  0.00    +0.000 OA
ATOM     14  C   UNL     1       2.586   7.651  18.538  0.00  0.00    +0.000 A 
ATOM     15  C   UNL     1       3.394   7.206  17.485  0.00  0.00    +0.000 A 
ENDROOT
BRANCH   9  16
ATOM     16  C   UNL     1      -1.192  12.167  20.431  0.00  0.00    +0.000 C 
ATOM     17  O   UNL     1      -0.840  13.090  19.703  0.00  0.00    +0.000 OA
ATOM     18  N   UNL     1      -2.362  12.202  21.156  0.00  0.00    +0.000 N 
ATOM     19  H   UNL     1      -2.715  11.392  21.649  0.00  0.00    +0.000 HD
BRANCH  18  20
ATOM     20  C   UNL     1      -3.235  13.344  20.989  0.00  0.00    +0.000 C 
BRANCH  20  21
ATOM     21  C   UNL     1      -4.201  13.627  22.151  0.00  0.00    +0.000 C 
BRANCH  21  22
ATOM     22  N   UNL     1      -5.592  13.095  22.192  0.00  0.00    +0.000 NA
BRANCH  22  23
ATOM     23  C   UNL     1      -6.538  13.931  23.011  0.00  0.00    +0.000 C 
ATOM     24  C   UNL     1      -7.274  13.121  24.102  0.00  0.00    +0.000 C 
ATOM     25  C   UNL     1      -5.887  15.117  23.747  0.00  0.00    +0.000 C 
ENDBRANCH  22  23
BRANCH  22  26
ATOM     26  C   UNL     1      -6.098  12.893  20.782  0.00  0.00    +0.000 C 
ATOM     27  C   UNL     1      -6.780  11.536  20.522  0.00  0.00    +0.000 C 
ATOM     28  C   UNL     1      -7.022  14.021  20.275  0.00  0.00    +0.000 C 
ENDBRANCH  22  26
ENDBRANCH  21  22
ENDBRANCH  20  21
ENDBRANCH  18  20
ENDBRANCH   9  16
BRANCH   1  30
ATOM     29  C   UNL     1       6.370   6.223  16.664  0.00  0.00    +0.000 C 
ATOM     30  C   UNL     1       4.998   5.579  16.443  0.00  0.00    +0.000 C 
ATOM     31  C   UNL     1       5.138   4.070  16.239  0.00  0.00    +0.000 C 
ENDBRANCH   1  30
TORSDOF 7
ENDMDL
MODEL 7
REMARK VINA RESULT:      -7.3      2.343     10.415
REMARK  Name = 
REMARK  13 active torsions:
REMARK  status: ('A' for Active; 'I' for Inactive)
REMARK    1  A    between atoms: C_1  and  C_2
REMARK    2  A    between atoms: C_2  and  C_3
REMARK    3  A    between atoms: C_2  and  C_4
REMARK    4  A    between atoms: C_12  and  C_13
REMARK    5  A    between atoms: N_15  and  C_16
REMARK    6  A    between atoms: C_16  and  C_17
REMARK    7  A    between atoms: C_17  and  N_18
REMARK    8  A    between atoms: N_18  and  C_19
REMARK    9  A    between atoms: N_18  and  C_22
REMARK   10  A    between atoms: C_19  and  C_20
REMARK   11  A    between atoms: C_19  and  C_21
REMARK   12  A    between atoms: C_22  and  C_23
REMARK   13  A    between atoms: C_22  and  C_24
REMARK                            x       y       z     vdW  Elec       q    Type
REMARK                         _______ _______ _______ _____ _____    ______ ____
ROOT
ATOM      1  C   UNL     1       4.021   5.988  17.613  0.00  0.00    +0.000 A 
ATOM      2  C   UNL     1       3.846   5.230  18.780  0.00  0.00    +0.000 A 
ATOM      3  C   UNL     1       3.023   5.689  19.818  0.00  0.00    +0.000 A 
ATOM      4  C   UNL     1       2.371   6.919  19.719  0.00  0.00    +0.000 A 
ATOM      5  N   UNL     1       1.586   7.360  20.795  0.00  0.00    +0.000 NA
ATOM      6  C   UNL     1       0.989   8.505  20.679  0.00  0.00    +0.000 A 
ATOM      7  C   UNL     1       0.148   8.981  21.808  0.00  0.00    +0.000 A 
ATOM      8  C   UNL     1      -0.504  10.144  21.704  0.00  0.00    +0.000 A 
ATOM      9  C   UNL     1      -0.415  10.954  20.506  0.00  0.00    +0.000 A 
ATOM     10  C   UNL     1       0.354  10.522  19.491  0.00  0.00    +0.000 A 
ATOM     11  N   UNL     1       1.065   9.329  19.556  0.00  0.00    +0.000 N 
ATOM     12  C   UNL     1       1.848   8.964  18.465  0.00  0.00    +0.000 A 
ATOM     13  O   UNL     1       1.997   9.647  17.454  0.00  0.00    +0.000 OA
ATOM     14  C   UNL     1       2.538   7.667  18.562  0.00  0.00    +0.000 A 
ATOM     15  C   UNL     1       3.349   7.215  17.515  0.00  0.00    +0.000 A 
ENDROOT
BRANCH   9  16
ATOM     16  C   UNL     1      -1.259  12.188  20.406  0.00  0.00    +0.000 C 
ATOM     17  O   UNL     1      -0.754  13.288  20.611  0.00  0.00    +0.000 OA
ATOM     18  N   UNL     1      -2.578  12.036  20.045  0.00  0.00    +0.000 N 
ATOM     19  H   UNL     1      -2.957  11.147  19.748  0.00  0.00    +0.000 HD
BRANCH  18  20
ATOM     20  C   UNL     1      -3.370  13.229  19.834  0.00  0.00    +0.000 C 
BRANCH  20  21
ATOM     21  C   UNL     1      -4.407  13.549  20.923  0.00  0.00    +0.000 C 
BRANCH  21  22
ATOM     22  N   UNL     1      -4.688  12.632  22.063  0.00  0.00    +0.000 NA
BRANCH  22  23
ATOM     23  C   UNL     1      -3.959  12.994  23.329  0.00  0.00    +0.000 C 
ATOM     24  C   UNL     1      -2.867  11.972  23.716  0.00  0.00    +0.000 C 
ATOM     25  C   UNL     1      -3.251  14.362  23.302  0.00  0.00    +0.000 C 
ENDBRANCH  22  23
BRANCH  22  26
ATOM     26  C   UNL     1      -6.180  12.538  22.282  0.00  0.00    +0.000 C 
ATOM     27  C   UNL     1      -6.684  13.135  23.610  0.00  0.00    +0.000 C 
ATOM     28  C   UNL     1      -7.025  13.114  21.125  0.00  0.00    +0.000 C 
ENDBRANCH  22  26
ENDBRANCH  21  22
ENDBRANCH  20  21
ENDBRANCH  18  20
ENDBRANCH   9  16
BRANCH   1  30
ATOM     29  C   UNL     1       6.330   6.234  16.709  0.00  0.00    +0.000 C 
ATOM     30  C   UNL     1       4.961   5.584  16.491  0.00  0.00    +0.000 C 
ATOM     31  C   UNL     1       5.106   4.073  16.301  0.00  0.00    +0.000 C 
ENDBRANCH   1  30
TORSDOF 7
ENDMDL
MODEL 8
REMARK VINA RESULT:      -7.3      2.646     10.743
REMARK  Name = 
REMARK  13 active torsions:
REMARK  status: ('A' for Active; 'I' for Inactive)
REMARK    1  A    between atoms: C_1  and  C_2
REMARK    2  A    between atoms: C_2  and  C_3
REMARK    3  A    between atoms: C_2  and  C_4
REMARK    4  A    between atoms: C_12  and  C_13
REMARK    5  A    between atoms: N_15  and  C_16
REMARK    6  A    between atoms: C_16  and  C_17
REMARK    7  A    between atoms: C_17  and  N_18
REMARK    8  A    between atoms: N_18  and  C_19
REMARK    9  A    between atoms: N_18  and  C_22
REMARK   10  A    between atoms: C_19  and  C_20
REMARK   11  A    between atoms: C_19  and  C_21
REMARK   12  A    between atoms: C_22  and  C_23
REMARK   13  A    between atoms: C_22  and  C_24
REMARK                            x       y       z     vdW  Elec       q    Type
REMARK                         _______ _______ _______ _____ _____    ______ ____
ROOT
ATOM      1  C   UNL     1       3.735   5.956  17.795  0.00  0.00    +0.000 A 
ATOM      2  C   UNL     1       3.528   5.238  18.981  0.00  0.00    +0.000 A 
ATOM      3  C   UNL     1       2.745   5.770  20.015  0.00  0.00    +0.000 A 
ATOM      4  C   UNL     1       2.167   7.034  19.892  0.00  0.00    +0.000 A 
ATOM      5  N   UNL     1       1.421   7.546  20.965  0.00  0.00    +0.000 NA
ATOM      6  C   UNL     1       0.891   8.722  20.826  0.00  0.00    +0.000 A 
ATOM      7  C   UNL     1       0.092   9.275  21.951  0.00  0.00    +0.000 A 
ATOM      8  C   UNL     1      -0.491  10.471  21.824  0.00  0.00    +0.000 A 
ATOM      9  C   UNL     1      -0.368  11.245  20.605  0.00  0.00    +0.000 A 
ATOM     10  C   UNL     1       0.363  10.744  19.594  0.00  0.00    +0.000 A 
ATOM     11  N   UNL     1       1.003   9.513  19.682  0.00  0.00    +0.000 N 
ATOM     12  C   UNL     1       1.751   9.075  18.592  0.00  0.00    +0.000 A 
ATOM     13  O   UNL     1       1.928   9.723  17.563  0.00  0.00    +0.000 OA
ATOM     14  C   UNL     1       2.364   7.742  18.715  0.00  0.00    +0.000 A 
ATOM     15  C   UNL     1       3.136   7.218  17.672  0.00  0.00    +0.000 A 
ENDROOT
BRANCH   9  16
ATOM     16  C   UNL     1      -1.139  12.524  20.482  0.00  0.00    +0.000 C 
ATOM     17  O   UNL     1      -0.948  13.257  19.517  0.00  0.00    +0.000 OA
ATOM     18  N   UNL     1      -2.070  12.808  21.454  0.00  0.00    +0.000 N 
ATOM     19  H   UNL     1      -2.319  12.143  22.174  0.00  0.00    +0.000 HD
BRANCH  18  20
ATOM     20  C   UNL     1      -2.899  13.982  21.284  0.00  0.00    +0.000 C 
BRANCH  20  21
ATOM     21  C   UNL     1      -3.966  14.215  22.366  0.00  0.00    +0.000 C 
BRANCH  21  22
ATOM     22  N   UNL     1      -5.405  13.889  22.163  0.00  0.00    +0.000 NA
BRANCH  22  23
ATOM     23  C   UNL     1      -5.709  13.292  20.815  0.00  0.00    +0.000 C 
ATOM     24  C   UNL     1      -6.418  11.922  20.903  0.00  0.00    +0.000 C 
ATOM     25  C   UNL     1      -6.600  14.159  19.906  0.00  0.00    +0.000 C 
ENDBRANCH  22  23
BRANCH  22  26
ATOM     26  C   UNL     1      -5.888  13.005  23.290  0.00  0.00    +0.000 C 
ATOM     27  C   UNL     1      -4.805  12.593  24.306  0.00  0.00    +0.000 C 
ATOM     28  C   UNL     1      -7.103  13.569  24.058  0.00  0.00    +0.000 C 
ENDBRANCH  22  26
ENDBRANCH  21  22
ENDBRANCH  20  21
ENDBRANCH  18  20
ENDBRANCH   9  16
BRANCH   1  30
ATOM     29  C   UNL     1       5.834   6.413  16.532  0.00  0.00    +0.000 C 
ATOM     30  C   UNL     1       4.636   5.470  16.674  0.00  0.00    +0.000 C 
ATOM     31  C   UNL     1       5.106   4.021  16.823  0.00  0.00    +0.000 C 
ENDBRANCH   1  30
TORSDOF 7
ENDMDL
MODEL 9
REMARK VINA RESULT:      -7.3      3.072     10.132
REMARK  Name = 
REMARK  13 active torsions:
REMARK  status: ('A' for Active; 'I' for Inactive)
REMARK    1  A    between atoms: C_1  and  C_2
REMARK    2  A    between atoms: C_2  and  C_3
REMARK    3  A    between atoms: C_2  and  C_4
REMARK    4  A    between atoms: C_12  and  C_13
REMARK    5  A    between atoms: N_15  and  C_16
REMARK    6  A    between atoms: C_16  and  C_17
REMARK    7  A    between atoms: C_17  and  N_18
REMARK    8  A    between atoms: N_18  and  C_19
REMARK    9  A    between atoms: N_18  and  C_22
REMARK   10  A    between atoms: C_19  and  C_20
REMARK   11  A    between atoms: C_19  and  C_21
REMARK   12  A    between atoms: C_22  and  C_23
REMARK   13  A    between atoms: C_22  and  C_24
REMARK                            x       y       z     vdW  Elec       q    Type
REMARK                         _______ _______ _______ _____ _____    ______ ____
ROOT
ATOM      1  C   UNL     1       4.674   4.871  17.539  0.00  0.00    +0.000 A 
ATOM      2  C   UNL     1       4.382   4.182  18.725  0.00  0.00    +0.000 A 
ATOM      3  C   UNL     1       3.522   4.735  19.683  0.00  0.00    +0.000 A 
ATOM      4  C   UNL     1       2.950   5.992  19.485  0.00  0.00    +0.000 A 
ATOM      5  N   UNL     1       2.123   6.528  20.484  0.00  0.00    +0.000 NA
ATOM      6  C   UNL     1       1.601   7.697  20.276  0.00  0.00    +0.000 A 
ATOM      7  C   UNL     1       0.719   8.274  21.324  0.00  0.00    +0.000 A 
ATOM      8  C   UNL     1       0.142   9.464  21.123  0.00  0.00    +0.000 A 
ATOM      9  C   UNL     1       0.354  10.207  19.897  0.00  0.00    +0.000 A 
ATOM     10  C   UNL     1       1.160   9.684  18.957  0.00  0.00    +0.000 A 
ATOM     11  N   UNL     1       1.796   8.459  19.124  0.00  0.00    +0.000 N 
ATOM     12  C   UNL     1       2.625   7.998  18.105  0.00  0.00    +0.000 A 
ATOM     13  O   UNL     1       2.877   8.621  17.076  0.00  0.00    +0.000 OA
ATOM     14  C   UNL     1       3.232   6.672  18.308  0.00  0.00    +0.000 A 
ATOM     15  C   UNL     1       4.082   6.126  17.339  0.00  0.00    +0.000 A 
ENDROOT
BRANCH   9  16
ATOM     16  C   UNL     1      -0.410  11.478  19.684  0.00  0.00    +0.000 C 
ATOM     17  O   UNL     1      -1.528  11.604  20.173  0.00  0.00    +0.000 OA
ATOM     18  N   UNL     1       0.201  12.482  18.968  0.00  0.00    +0.000 N 
ATOM     19  H   UNL     1       1.169  12.428  18.681  0.00  0.00    +0.000 HD
BRANCH  18  20
ATOM     20  C   UNL     1      -0.482  13.754  18.856  0.00  0.00    +0.000 C 
BRANCH  20  21
ATOM     21  C   UNL     1       0.420  14.997  18.789  0.00  0.00    +0.000 C 
BRANCH  21  22
ATOM     22  N   UNL     1      -0.100  16.353  18.454  0.00  0.00    +0.000 NA
BRANCH  22  23
ATOM     23  C   UNL     1      -1.118  16.873  19.433  0.00  0.00    +0.000 C 
ATOM     24  C   UNL     1      -0.484  17.468  20.711  0.00  0.00    +0.000 C 
ATOM     25  C   UNL     1      -2.045  17.972  18.883  0.00  0.00    +0.000 C 
ENDBRANCH  22  23
BRANCH  22  26
ATOM     26  C   UNL     1       1.057  17.311  18.285  0.00  0.00    +0.000 C 
ATOM     27  C   UNL     1       2.455  16.668  18.372  0.00  0.00    +0.000 C 
ATOM     28  C   UNL     1       0.983  18.170  17.005  0.00  0.00    +0.000 C 
ENDBRANCH  22  26
ENDBRANCH  21  22
ENDBRANCH  20  21
ENDBRANCH  18  20
ENDBRANCH   9  16
BRANCH   1  30
ATOM     29  C   UNL     1       5.348   4.994  15.143  0.00  0.00    +0.000 C 
ATOM     30  C   UNL     1       5.659   4.361  16.502  0.00  0.00    +0.000 C 
ATOM     31  C   UNL     1       7.130   4.570  16.869  0.00  0.00    +0.000 C 
ENDBRANCH   1  30
TORSDOF 7
ENDMDL
