MODEL 1
REMARK VINA RESULT:      -8.0      0.000      0.000
REMARK  Name = 
REMARK  7 active torsions:
REMARK  status: ('A' for Active; 'I' for Inactive)
REMARK    1  A    between atoms: C_1  and  O_2
REMARK    2  A    between atoms: O_2  and  C_3
REMARK    3  A    between atoms: C_5  and  O_6
REMARK    4  A    between atoms: O_6  and  C_7
REMARK    5  A    between atoms: C_9  and  C_10
REMARK    6  A    between atoms: C_17  and  O_18
REMARK    7  A    between atoms: O_18  and  C_19
REMARK                            x       y       z     vdW  Elec       q    Type
REMARK                         _______ _______ _______ _____ _____    ______ ____
ROOT
ATOM      1  C   UNL     1       1.750   6.949  20.114  0.00  0.00    +0.000 C 
ATOM      2  O   UNL     1       1.546   6.128  20.998  0.00  0.00    +0.000 OA
ATOM      3  N   UNL     1       2.415   6.698  18.931  0.00  0.00    +0.000 N 
ATOM      4  C   UNL     1       2.950   5.438  18.643  0.00  0.00    +0.000 A 
ATOM      5  C   UNL     1       2.262   4.247  18.888  0.00  0.00    +0.000 A 
ATOM      6  N   UNL     1       2.793   3.023  18.632  0.00  0.00    +0.000 NA
ATOM      7  C   UNL     1       4.067   3.041  18.179  0.00  0.00    +0.000 A 
ATOM      8  C   UNL     1       4.760   4.224  17.965  0.00  0.00    +0.000 A 
ATOM      9  N   UNL     1       4.194   5.447  18.120  0.00  0.00    +0.000 NA
ATOM     10  H   UNL     1       2.921   7.464  18.503  0.00  0.00    +0.000 HD
ENDROOT
BRANCH   1  15
ATOM     11  C   UNL     1       0.951  10.587  19.487  0.00  0.00    +0.000 A 
ATOM     12  C   UNL     1       0.499  10.961  20.756  0.00  0.00    +0.000 A 
ATOM     13  C   UNL     1       0.465  10.051  21.817  0.00  0.00    +0.000 A 
ATOM     14  C   UNL     1       0.878   8.739  21.597  0.00  0.00    +0.000 A 
ATOM     15  C   UNL     1       1.345   8.361  20.332  0.00  0.00    +0.000 A 
ATOM     16  C   UNL     1       1.391   9.281  19.276  0.00  0.00    +0.000 A 
BRANCH  11  18
ATOM     17  C   UNL     1       1.087  12.916  19.007  0.00  0.00    +0.000 C 
ATOM     18  O   UNL     1       0.917  11.580  18.549  0.00  0.00    +0.000 OA
ENDBRANCH  11  18
BRANCH  13  19
ATOM     19  O   UNL     1       0.010  10.567  22.997  0.00  0.00    +0.000 OA
ATOM     20  C   UNL     1      -1.030  11.535  22.925  0.00  0.00    +0.000 C 
ENDBRANCH  13  19
ENDBRANCH   1  15
BRANCH   8  21
ATOM     21  O   UNL     1       6.083   4.126  17.571  0.00  0.00    +0.000 OA
BRANCH  21  22
ATOM     22  C   UNL     1       6.381   4.296  16.241  0.00  0.00    +0.000 A 
ATOM     23  C   UNL     1       7.374   5.226  15.938  0.00  0.00    +0.000 A 
ATOM     24  N   UNL     1       7.766   5.548  14.681  0.00  0.00    +0.000 NA
ATOM     25  C   UNL     1       7.123   4.909  13.675  0.00  0.00    +0.000 A 
ATOM     26  C   UNL     1       6.111   3.987  13.880  0.00  0.00    +0.000 A 
ATOM     27  F   UNL     1       5.511   3.397  12.837  0.00  0.00    +0.000 F 
ATOM     28  C   UNL     1       5.719   3.683  15.177  0.00  0.00    +0.000 A 
ENDBRANCH  21  22
ENDBRANCH   8  21
TORSDOF 5
ENDMDL
MODEL 2
REMARK VINA RESULT:      -7.8      5.774      7.745
REMARK  Name = 
REMARK  7 active torsions:
REMARK  status: ('A' for Active; 'I' for Inactive)
REMARK    1  A    between atoms: C_1  and  O_2
REMARK    2  A    between atoms: O_2  and  C_3
REMARK    3  A    between atoms: C_5  and  O_6
REMARK    4  A    between atoms: O_6  and  C_7
REMARK    5  A    between atoms: C_9  and  C_10
REMARK    6  A    between atoms: C_17  and  O_18
REMARK    7  A    between atoms: O_18  and  C_19
REMARK                            x       y       z     vdW  Elec       q    Type
REMARK                         _______ _______ _______ _____ _____    ______ ____
ROOT
ATOM      1  C   UNL     1       8.450   9.369  18.311  0.00  0.00    +0.000 C 
ATOM      2  O   UNL     1       7.643   9.762  17.478  0.00  0.00    +0.000 OA
ATOM      3  N   UNL     1       8.621   8.056  18.697  0.00  0.00    +0.000 N 
ATOM      4  C   UNL     1       7.840   7.025  18.161  0.00  0.00    +0.000 A 
ATOM      5  C   UNL     1       7.542   6.927  16.800  0.00  0.00    +0.000 A 
ATOM      6  N   UNL     1       6.763   5.942  16.286  0.00  0.00    +0.000 NA
ATOM      7  C   UNL     1       6.242   5.093  17.201  0.00  0.00    +0.000 A 
ATOM      8  C   UNL     1       6.514   5.210  18.558  0.00  0.00    +0.000 A 
ATOM      9  N   UNL     1       7.376   6.130  19.058  0.00  0.00    +0.000 NA
ATOM     10  H   UNL     1       8.935   7.880  19.643  0.00  0.00    +0.000 HD
ENDROOT
BRANCH   1  15
ATOM     11  C   UNL     1       9.725  11.627  21.057  0.00  0.00    +0.000 A 
ATOM     12  C   UNL     1      10.860  12.155  20.432  0.00  0.00    +0.000 A 
ATOM     13  C   UNL     1      11.207  11.799  19.126  0.00  0.00    +0.000 A 
ATOM     14  C   UNL     1      10.410  10.887  18.438  0.00  0.00    +0.000 A 
ATOM     15  C   UNL     1       9.265  10.364  19.052  0.00  0.00    +0.000 A 
ATOM     16  C   UNL     1       8.914  10.735  20.357  0.00  0.00    +0.000 A 
BRANCH  11  18
ATOM     17  C   UNL     1       8.208  11.925  22.868  0.00  0.00    +0.000 C 
ATOM     18  O   UNL     1       9.520  12.059  22.336  0.00  0.00    +0.000 OA
ENDBRANCH  11  18
BRANCH  13  19
ATOM     19  O   UNL     1      12.333  12.407  18.649  0.00  0.00    +0.000 OA
ATOM     20  C   UNL     1      12.286  13.819  18.478  0.00  0.00    +0.000 C 
ENDBRANCH  13  19
ENDBRANCH   1  15
BRANCH   8  21
ATOM     21  O   UNL     1       5.870   4.335  19.415  0.00  0.00    +0.000 OA
BRANCH  21  22
ATOM     22  C   UNL     1       4.512   4.175  19.283  0.00  0.00    +0.000 A 
ATOM     23  C   UNL     1       3.716   5.242  19.692  0.00  0.00    +0.000 A 
ATOM     24  N   UNL     1       2.360   5.241  19.670  0.00  0.00    +0.000 NA
ATOM     25  C   UNL     1       1.773   4.107  19.220  0.00  0.00    +0.000 A 
ATOM     26  C   UNL     1       2.483   2.991  18.813  0.00  0.00    +0.000 A 
ATOM     27  F   UNL     1       1.838   1.897  18.387  0.00  0.00    +0.000 F 
ATOM     28  C   UNL     1       3.870   3.012  18.857  0.00  0.00    +0.000 A 
ENDBRANCH  21  22
ENDBRANCH   8  21
TORSDOF 5
ENDMDL
MODEL 3
REMARK VINA RESULT:      -7.7      0.749      2.213
REMARK  Name = 
REMARK  7 active torsions:
REMARK  status: ('A' for Active; 'I' for Inactive)
REMARK    1  A    between atoms: C_1  and  O_2
REMARK    2  A    between atoms: O_2  and  C_3
REMARK    3  A    between atoms: C_5  and  O_6
REMARK    4  A    between atoms: O_6  and  C_7
REMARK    5  A    between atoms: C_9  and  C_10
REMARK    6  A    between atoms: C_17  and  O_18
REMARK    7  A    between atoms: O_18  and  C_19
REMARK                            x       y       z     vdW  Elec       q    Type
REMARK                         _______ _______ _______ _____ _____    ______ ____
ROOT
ATOM      1  C   UNL     1       1.501   7.504  20.387  0.00  0.00    +0.000 C 
ATOM      2  O   UNL     1       1.232   6.774  21.333  0.00  0.00    +0.000 OA
ATOM      3  N   UNL     1       2.215   7.129  19.268  0.00  0.00    +0.000 N 
ATOM      4  C   UNL     1       2.729   5.836  19.125  0.00  0.00    +0.000 A 
ATOM      5  C   UNL     1       2.000   4.688  19.444  0.00  0.00    +0.000 A 
ATOM      6  N   UNL     1       2.509   3.435  19.329  0.00  0.00    +0.000 NA
ATOM      7  C   UNL     1       3.804   3.382  18.941  0.00  0.00    +0.000 A 
ATOM      8  C   UNL     1       4.538   4.524  18.654  0.00  0.00    +0.000 A 
ATOM      9  N   UNL     1       3.997   5.768  18.667  0.00  0.00    +0.000 NA
ATOM     10  H   UNL     1       2.761   7.840  18.797  0.00  0.00    +0.000 HD
ENDROOT
BRANCH   1  15
ATOM     11  C   UNL     1       0.298  10.837  21.692  0.00  0.00    +0.000 A 
ATOM     12  C   UNL     1       0.516  11.635  20.564  0.00  0.00    +0.000 A 
ATOM     13  C   UNL     1       1.034  11.101  19.381  0.00  0.00    +0.000 A 
ATOM     14  C   UNL     1       1.353   9.746  19.332  0.00  0.00    +0.000 A 
ATOM     15  C   UNL     1       1.124   8.939  20.453  0.00  0.00    +0.000 A 
ATOM     16  C   UNL     1       0.591   9.477  21.632  0.00  0.00    +0.000 A 
BRANCH  11  18
ATOM     17  C   UNL     1      -1.567  11.278  23.106  0.00  0.00    +0.000 C 
ATOM     18  O   UNL     1      -0.202  11.501  22.777  0.00  0.00    +0.000 OA
ENDBRANCH  11  18
BRANCH  13  19
ATOM     19  O   UNL     1       1.178  12.001  18.363  0.00  0.00    +0.000 OA
ATOM     20  C   UNL     1       0.648  13.306  18.571  0.00  0.00    +0.000 C 
ENDBRANCH  13  19
ENDBRANCH   1  15
BRANCH   8  21
ATOM     21  O   UNL     1       5.875   4.361  18.338  0.00  0.00    +0.000 OA
BRANCH  21  22
ATOM     22  C   UNL     1       6.256   4.500  17.025  0.00  0.00    +0.000 A 
ATOM     23  C   UNL     1       7.146   5.532  16.740  0.00  0.00    +0.000 A 
ATOM     24  N   UNL     1       7.595   5.838  15.498  0.00  0.00    +0.000 NA
ATOM     25  C   UNL     1       7.121   5.071  14.489  0.00  0.00    +0.000 A 
ATOM     26  C   UNL     1       6.218   4.038  14.674  0.00  0.00    +0.000 A 
ATOM     27  F   UNL     1       5.782   3.323  13.628  0.00  0.00    +0.000 F 
ATOM     28  C   UNL     1       5.764   3.752  15.955  0.00  0.00    +0.000 A 
ENDBRANCH  21  22
ENDBRANCH   8  21
TORSDOF 5
ENDMDL
MODEL 4
REMARK VINA RESULT:      -7.7      5.825      7.472
REMARK  Name = 
REMARK  7 active torsions:
REMARK  status: ('A' for Active; 'I' for Inactive)
REMARK    1  A    between atoms: C_1  and  O_2
REMARK    2  A    between atoms: O_2  and  C_3
REMARK    3  A    between atoms: C_5  and  O_6
REMARK    4  A    between atoms: O_6  and  C_7
REMARK    5  A    between atoms: C_9  and  C_10
REMARK    6  A    between atoms: C_17  and  O_18
REMARK    7  A    between atoms: O_18  and  C_19
REMARK                            x       y       z     vdW  Elec       q    Type
REMARK                         _______ _______ _______ _____ _____    ______ ____
ROOT
ATOM      1  C   UNL     1       8.429   9.337  18.268  0.00  0.00    +0.000 C 
ATOM      2  O   UNL     1       7.586   9.710  17.462  0.00  0.00    +0.000 OA
ATOM      3  N   UNL     1       8.639   8.029  18.653  0.00  0.00    +0.000 N 
ATOM      4  C   UNL     1       7.860   6.982  18.150  0.00  0.00    +0.000 A 
ATOM      5  C   UNL     1       7.515   6.871  16.801  0.00  0.00    +0.000 A 
ATOM      6  N   UNL     1       6.738   5.868  16.319  0.00  0.00    +0.000 NA
ATOM      7  C   UNL     1       6.266   5.014  17.256  0.00  0.00    +0.000 A 
ATOM      8  C   UNL     1       6.584   5.143  18.601  0.00  0.00    +0.000 A 
ATOM      9  N   UNL     1       7.445   6.082  19.067  0.00  0.00    +0.000 NA
ATOM     10  H   UNL     1       8.990   7.864  19.589  0.00  0.00    +0.000 HD
ENDROOT
BRANCH   1  15
ATOM     11  C   UNL     1      11.005  12.008  18.969  0.00  0.00    +0.000 A 
ATOM     12  C   UNL     1      10.700  12.298  20.303  0.00  0.00    +0.000 A 
ATOM     13  C   UNL     1       9.679  11.627  20.982  0.00  0.00    +0.000 A 
ATOM     14  C   UNL     1       8.941  10.658  20.307  0.00  0.00    +0.000 A 
ATOM     15  C   UNL     1       9.250  10.352  18.975  0.00  0.00    +0.000 A 
ATOM     16  C   UNL     1      10.284  11.018  18.304  0.00  0.00    +0.000 A 
BRANCH  11  18
ATOM     17  C   UNL     1      12.333  13.982  19.079  0.00  0.00    +0.000 C 
ATOM     18  O   UNL     1      12.020  12.752  18.437  0.00  0.00    +0.000 OA
ENDBRANCH  11  18
BRANCH  13  19
ATOM     19  O   UNL     1       9.508  12.012  22.281  0.00  0.00    +0.000 OA
ATOM     20  C   UNL     1       8.259  12.600  22.625  0.00  0.00    +0.000 C 
ENDBRANCH  13  19
ENDBRANCH   1  15
BRANCH   8  21
ATOM     21  O   UNL     1       5.988   4.261  19.485  0.00  0.00    +0.000 OA
BRANCH  21  22
ATOM     22  C   UNL     1       4.622   4.122  19.445  0.00  0.00    +0.000 A 
ATOM     23  C   UNL     1       3.872   5.286  19.604  0.00  0.00    +0.000 A 
ATOM     24  N   UNL     1       2.518   5.329  19.632  0.00  0.00    +0.000 NA
ATOM     25  C   UNL     1       1.882   4.141  19.498  0.00  0.00    +0.000 A 
ATOM     26  C   UNL     1       2.543   2.933  19.357  0.00  0.00    +0.000 A 
ATOM     27  F   UNL     1       1.851   1.792  19.238  0.00  0.00    +0.000 F 
ATOM     28  C   UNL     1       3.931   2.914  19.344  0.00  0.00    +0.000 A 
ENDBRANCH  21  22
ENDBRANCH   8  21
TORSDOF 5
ENDMDL
MODEL 5
REMARK VINA RESULT:      -7.7      5.860      7.882
REMARK  Name = 
REMARK  7 active torsions:
REMARK  status: ('A' for Active; 'I' for Inactive)
REMARK    1  A    between atoms: C_1  and  O_2
REMARK    2  A    between atoms: O_2  and  C_3
REMARK    3  A    between atoms: C_5  and  O_6
REMARK    4  A    between atoms: O_6  and  C_7
REMARK    5  A    between atoms: C_9  and  C_10
REMARK    6  A    between atoms: C_17  and  O_18
REMARK    7  A    between atoms: O_18  and  C_19
REMARK                            x       y       z     vdW  Elec       q    Type
REMARK                         _______ _______ _______ _____ _____    ______ ____
ROOT
ATOM      1  C   UNL     1       8.430   9.385  18.338  0.00  0.00    +0.000 C 
ATOM      2  O   UNL     1       7.585   9.779  17.544  0.00  0.00    +0.000 OA
ATOM      3  N   UNL     1       8.647   8.067  18.682  0.00  0.00    +0.000 N 
ATOM      4  C   UNL     1       7.874   7.031  18.146  0.00  0.00    +0.000 A 
ATOM      5  C   UNL     1       7.531   6.961  16.793  0.00  0.00    +0.000 A 
ATOM      6  N   UNL     1       6.759   5.969  16.279  0.00  0.00    +0.000 NA
ATOM      7  C   UNL     1       6.292   5.084  17.189  0.00  0.00    +0.000 A 
ATOM      8  C   UNL     1       6.609   5.172  18.538  0.00  0.00    +0.000 A 
ATOM      9  N   UNL     1       7.465   6.101  19.033  0.00  0.00    +0.000 NA
ATOM     10  H   UNL     1       8.999   7.874  19.612  0.00  0.00    +0.000 HD
ENDROOT
BRANCH   1  15
ATOM     11  C   UNL     1       9.695  11.660  21.074  0.00  0.00    +0.000 A 
ATOM     12  C   UNL     1      10.840  12.174  20.456  0.00  0.00    +0.000 A 
ATOM     13  C   UNL     1      11.197  11.803  19.156  0.00  0.00    +0.000 A 
ATOM     14  C   UNL     1      10.400  10.889  18.470  0.00  0.00    +0.000 A 
ATOM     15  C   UNL     1       9.245  10.382  19.078  0.00  0.00    +0.000 A 
ATOM     16  C   UNL     1       8.884  10.768  20.375  0.00  0.00    +0.000 A 
BRANCH  11  18
ATOM     17  C   UNL     1       8.905  13.398  22.498  0.00  0.00    +0.000 C 
ATOM     18  O   UNL     1       9.481  12.106  22.347  0.00  0.00    +0.000 OA
ENDBRANCH  11  18
BRANCH  13  19
ATOM     19  O   UNL     1      12.333  12.397  18.684  0.00  0.00    +0.000 OA
ATOM     20  C   UNL     1      12.173  13.409  17.697  0.00  0.00    +0.000 C 
ENDBRANCH  13  19
ENDBRANCH   1  15
BRANCH   8  21
ATOM     21  O   UNL     1       6.018   4.259  19.393  0.00  0.00    +0.000 OA
BRANCH  21  22
ATOM     22  C   UNL     1       4.647   4.247  19.487  0.00  0.00    +0.000 A 
ATOM     23  C   UNL     1       4.014   3.036  19.217  0.00  0.00    +0.000 A 
ATOM     24  N   UNL     1       2.671   2.854  19.223  0.00  0.00    +0.000 NA
ATOM     25  C   UNL     1       1.923   3.946  19.509  0.00  0.00    +0.000 A 
ATOM     26  C   UNL     1       2.464   5.193  19.769  0.00  0.00    +0.000 A 
ATOM     27  F   UNL     1       1.665   6.235  20.037  0.00  0.00    +0.000 F 
ATOM     28  C   UNL     1       3.842   5.357  19.745  0.00  0.00    +0.000 A 
ENDBRANCH  21  22
ENDBRANCH   8  21
TORSDOF 5
ENDMDL
MODEL 6
REMARK VINA RESULT:      -7.6      5.776      7.411
REMARK  Name = 
REMARK  7 active torsions:
REMARK  status: ('A' for Active; 'I' for Inactive)
REMARK    1  A    between atoms: C_1  and  O_2
REMARK    2  A    between atoms: O_2  and  C_3
REMARK    3  A    between atoms: C_5  and  O_6
REMARK    4  A    between atoms: O_6  and  C_7
REMARK    5  A    between atoms: C_9  and  C_10
REMARK    6  A    between atoms: C_17  and  O_18
REMARK    7  A    between atoms: O_18  and  C_19
REMARK                            x       y       z     vdW  Elec       q    Type
REMARK                         _______ _______ _______ _____ _____    ______ ____
ROOT
ATOM      1  C   UNL     1       8.471   9.290  18.382  0.00  0.00    +0.000 C 
ATOM      2  O   UNL     1       7.694   9.692  17.525  0.00  0.00    +0.000 OA
ATOM      3  N   UNL     1       8.607   7.975  18.780  0.00  0.00    +0.000 N 
ATOM      4  C   UNL     1       7.822   6.957  18.229  0.00  0.00    +0.000 A 
ATOM      5  C   UNL     1       7.559   6.856  16.860  0.00  0.00    +0.000 A 
ATOM      6  N   UNL     1       6.776   5.882  16.330  0.00  0.00    +0.000 NA
ATOM      7  C   UNL     1       6.215   5.049  17.236  0.00  0.00    +0.000 A 
ATOM      8  C   UNL     1       6.452   5.169  18.598  0.00  0.00    +0.000 A 
ATOM      9  N   UNL     1       7.317   6.075  19.117  0.00  0.00    +0.000 NA
ATOM     10  H   UNL     1       8.893   7.799  19.735  0.00  0.00    +0.000 HD
ENDROOT
BRANCH   1  15
ATOM     11  C   UNL     1      11.182  11.756  19.291  0.00  0.00    +0.000 A 
ATOM     12  C   UNL     1      10.724  12.173  20.546  0.00  0.00    +0.000 A 
ATOM     13  C   UNL     1       9.555  11.651  21.106  0.00  0.00    +0.000 A 
ATOM     14  C   UNL     1       8.824  10.706  20.390  0.00  0.00    +0.000 A 
ATOM     15  C   UNL     1       9.284  10.274  19.140  0.00  0.00    +0.000 A 
ATOM     16  C   UNL     1      10.464  10.790  18.589  0.00  0.00    +0.000 A 
BRANCH  11  18
ATOM     17  C   UNL     1      12.233  13.706  18.415  0.00  0.00    +0.000 C 
ATOM     18  O   UNL     1      12.332  12.362  18.870  0.00  0.00    +0.000 OA
ENDBRANCH  11  18
BRANCH  13  19
ATOM     19  O   UNL     1       9.244  12.145  22.341  0.00  0.00    +0.000 OA
ATOM     20  C   UNL     1       9.208  13.561  22.484  0.00  0.00    +0.000 C 
ENDBRANCH  13  19
ENDBRANCH   1  15
BRANCH   8  21
ATOM     21  O   UNL     1       5.769   4.311  19.443  0.00  0.00    +0.000 OA
BRANCH  21  22
ATOM     22  C   UNL     1       4.533   3.858  19.050  0.00  0.00    +0.000 A 
ATOM     23  C   UNL     1       4.304   2.489  19.168  0.00  0.00    +0.000 A 
ATOM     24  N   UNL     1       3.160   1.867  18.792  0.00  0.00    +0.000 NA
ATOM     25  C   UNL     1       2.197   2.659  18.264  0.00  0.00    +0.000 A 
ATOM     26  C   UNL     1       2.344   4.025  18.089  0.00  0.00    +0.000 A 
ATOM     27  F   UNL     1       1.353   4.749  17.551  0.00  0.00    +0.000 F 
ATOM     28  C   UNL     1       3.530   4.637  18.471  0.00  0.00    +0.000 A 
ENDBRANCH  21  22
ENDBRANCH   8  21
TORSDOF 5
ENDMDL
MODEL 7
REMARK VINA RESULT:      -7.5      4.385      9.956
REMARK  Name = 
REMARK  7 active torsions:
REMARK  status: ('A' for Active; 'I' for Inactive)
REMARK    1  A    between atoms: C_1  and  O_2
REMARK    2  A    between atoms: O_2  and  C_3
REMARK    3  A    between atoms: C_5  and  O_6
REMARK    4  A    between atoms: O_6  and  C_7
REMARK    5  A    between atoms: C_9  and  C_10
REMARK    6  A    between atoms: C_17  and  O_18
REMARK    7  A    between atoms: O_18  and  C_19
REMARK                            x       y       z     vdW  Elec       q    Type
REMARK                         _______ _______ _______ _____ _____    ______ ____
ROOT
ATOM      1  C   UNL     1       2.274   8.252  18.162  0.00  0.00    +0.000 C 
ATOM      2  O   UNL     1       2.337   8.993  17.190  0.00  0.00    +0.000 OA
ATOM      3  N   UNL     1       1.529   8.490  19.299  0.00  0.00    +0.000 N 
ATOM      4  C   UNL     1       0.770   9.656  19.448  0.00  0.00    +0.000 A 
ATOM      5  C   UNL     1      -0.022  10.183  18.425  0.00  0.00    +0.000 A 
ATOM      6  N   UNL     1      -0.738  11.328  18.563  0.00  0.00    +0.000 NA
ATOM      7  C   UNL     1      -0.577  11.959  19.749  0.00  0.00    +0.000 A 
ATOM      8  C   UNL     1       0.234  11.450  20.754  0.00  0.00    +0.000 A 
ATOM      9  N   UNL     1       0.864  10.253  20.655  0.00  0.00    +0.000 NA
ATOM     10  H   UNL     1       1.869   8.109  20.174  0.00  0.00    +0.000 HD
ENDROOT
BRANCH   1  15
ATOM     11  C   UNL     1       5.075   5.813  17.477  0.00  0.00    +0.000 A 
ATOM     12  C   UNL     1       4.725   4.784  18.358  0.00  0.00    +0.000 A 
ATOM     13  C   UNL     1       3.583   4.866  19.160  0.00  0.00    +0.000 A 
ATOM     14  C   UNL     1       2.786   6.006  19.088  0.00  0.00    +0.000 A 
ATOM     15  C   UNL     1       3.122   7.033  18.198  0.00  0.00    +0.000 A 
ATOM     16  C   UNL     1       4.260   6.940  17.386  0.00  0.00    +0.000 A 
BRANCH  11  18
ATOM     17  C   UNL     1       7.154   4.664  17.302  0.00  0.00    +0.000 C 
ATOM     18  O   UNL     1       6.222   5.596  16.767  0.00  0.00    +0.000 OA
ENDBRANCH  11  18
BRANCH  13  19
ATOM     19  O   UNL     1       3.367   3.779  19.958  0.00  0.00    +0.000 OA
ATOM     20  C   UNL     1       4.276   2.691  19.832  0.00  0.00    +0.000 C 
ENDBRANCH  13  19
ENDBRANCH   1  15
BRANCH   8  21
ATOM     21  O   UNL     1       0.386  12.213  21.898  0.00  0.00    +0.000 OA
BRANCH  21  22
ATOM     22  C   UNL     1      -0.744  12.681  22.523  0.00  0.00    +0.000 A 
ATOM     23  C   UNL     1      -0.813  14.056  22.737  0.00  0.00    +0.000 A 
ATOM     24  N   UNL     1      -1.833  14.684  23.373  0.00  0.00    +0.000 NA
ATOM     25  C   UNL     1      -2.833  13.889  23.823  0.00  0.00    +0.000 A 
ATOM     26  C   UNL     1      -2.839  12.513  23.675  0.00  0.00    +0.000 A 
ATOM     27  F   UNL     1      -3.857  11.785  24.152  0.00  0.00    +0.000 F 
ATOM     28  C   UNL     1      -1.777  11.892  23.031  0.00  0.00    +0.000 A 
ENDBRANCH  21  22
ENDBRANCH   8  21
TORSDOF 5
ENDMDL
MODEL 8
REMARK VINA RESULT:      -7.5      3.529      8.903
REMARK  Name = 
REMARK  7 active torsions:
REMARK  status: ('A' for Active; 'I' for Inactive)
REMARK    1  A    between atoms: C_1  and  O_2
REMARK    2  A    between atoms: O_2  and  C_3
REMARK    3  A    between atoms: C_5  and  O_6
REMARK    4  A    between atoms: O_6  and  C_7
REMARK    5  A    between atoms: C_9  and  C_10
REMARK    6  A    between atoms: C_17  and  O_18
REMARK    7  A    between atoms: O_18  and  C_19
REMARK                            x       y       z     vdW  Elec       q    Type
REMARK                         _______ _______ _______ _____ _____    ______ ____
ROOT
ATOM      1  C   UNL     1       2.007   6.318  20.090  0.00  0.00    +0.000 C 
ATOM      2  O   UNL     1       1.118   5.870  20.804  0.00  0.00    +0.000 OA
ATOM      3  N   UNL     1       2.241   7.656  19.854  0.00  0.00    +0.000 N 
ATOM      4  C   UNL     1       1.436   8.653  20.416  0.00  0.00    +0.000 A 
ATOM      5  C   UNL     1       1.015   8.628  21.748  0.00  0.00    +0.000 A 
ATOM      6  N   UNL     1       0.212   9.582  22.285  0.00  0.00    +0.000 NA
ATOM      7  C   UNL     1      -0.203  10.531  21.415  0.00  0.00    +0.000 A 
ATOM      8  C   UNL     1       0.192  10.538  20.084  0.00  0.00    +0.000 A 
ATOM      9  N   UNL     1       1.077   9.645  19.575  0.00  0.00    +0.000 NA
ATOM     10  H   UNL     1       2.646   7.914  18.962  0.00  0.00    +0.000 HD
ENDROOT
BRANCH   1  15
ATOM     11  C   UNL     1       3.830   3.182  19.039  0.00  0.00    +0.000 A 
ATOM     12  C   UNL     1       4.401   3.621  17.840  0.00  0.00    +0.000 A 
ATOM     13  C   UNL     1       4.215   4.926  17.377  0.00  0.00    +0.000 A 
ATOM     14  C   UNL     1       3.430   5.803  18.122  0.00  0.00    +0.000 A 
ATOM     15  C   UNL     1       2.866   5.375  19.330  0.00  0.00    +0.000 A 
ATOM     16  C   UNL     1       3.068   4.069  19.797  0.00  0.00    +0.000 A 
BRANCH  11  18
ATOM     17  C   UNL     1       4.834   1.632  20.544  0.00  0.00    +0.000 C 
ATOM     18  O   UNL     1       4.091   1.879  19.356  0.00  0.00    +0.000 OA
ENDBRANCH  11  18
BRANCH  13  19
ATOM     19  O   UNL     1       4.846   5.210  16.199  0.00  0.00    +0.000 OA
ATOM     20  C   UNL     1       5.871   4.316  15.780  0.00  0.00    +0.000 C 
ENDBRANCH  13  19
ENDBRANCH   1  15
BRANCH   8  21
ATOM     21  O   UNL     1      -0.351  11.511  19.263  0.00  0.00    +0.000 OA
BRANCH  21  22
ATOM     22  C   UNL     1      -1.520  11.225  18.600  0.00  0.00    +0.000 A 
ATOM     23  C   UNL     1      -2.670  11.860  19.062  0.00  0.00    +0.000 A 
ATOM     24  N   UNL     1      -3.911  11.666  18.554  0.00  0.00    +0.000 NA
ATOM     25  C   UNL     1      -4.004  10.783  17.531  0.00  0.00    +0.000 A 
ATOM     26  C   UNL     1      -2.920  10.091  17.020  0.00  0.00    +0.000 A 
ATOM     27  F   UNL     1      -3.084   9.224  16.012  0.00  0.00    +0.000 F 
ATOM     28  C   UNL     1      -1.660  10.298  17.567  0.00  0.00    +0.000 A 
ENDBRANCH  21  22
ENDBRANCH   8  21
TORSDOF 5
ENDMDL
MODEL 9
REMARK VINA RESULT:      -7.4      4.449     10.220
REMARK  Name = 
REMARK  7 active torsions:
REMARK  status: ('A' for Active; 'I' for Inactive)
REMARK    1  A    between atoms: C_1  and  O_2
REMARK    2  A    between atoms: O_2  and  C_3
REMARK    3  A    between atoms: C_5  and  O_6
REMARK    4  A    between atoms: O_6  and  C_7
REMARK    5  A    between atoms: C_9  and  C_10
REMARK    6  A    between atoms: C_17  and  O_18
REMARK    7  A    between atoms: O_18  and  C_19
REMARK                            x       y       z     vdW  Elec       q    Type
REMARK                         _______ _______ _______ _____ _____    ______ ____
ROOT
ATOM      1  C   UNL     1       2.212   8.368  18.238  0.00  0.00    +0.000 C 
ATOM      2  O   UNL     1       2.268   9.130  17.281  0.00  0.00    +0.000 OA
ATOM      3  N   UNL     1       1.454   8.570  19.374  0.00  0.00    +0.000 N 
ATOM      4  C   UNL     1       0.673   9.718  19.540  0.00  0.00    +0.000 A 
ATOM      5  C   UNL     1      -0.121  10.251  18.522  0.00  0.00    +0.000 A 
ATOM      6  N   UNL     1      -0.859  11.380  18.677  0.00  0.00    +0.000 NA
ATOM      7  C   UNL     1      -0.719  11.990  19.876  0.00  0.00    +0.000 A 
ATOM      8  C   UNL     1       0.095  11.476  20.877  0.00  0.00    +0.000 A 
ATOM      9  N   UNL     1       0.748  10.293  20.759  0.00  0.00    +0.000 NA
ATOM     10  H   UNL     1       1.795   8.178  20.243  0.00  0.00    +0.000 HD
ENDROOT
BRANCH   1  15
ATOM     11  C   UNL     1       3.619   4.975  19.115  0.00  0.00    +0.000 A 
ATOM     12  C   UNL     1       4.672   4.902  18.197  0.00  0.00    +0.000 A 
ATOM     13  C   UNL     1       4.941   5.947  17.309  0.00  0.00    +0.000 A 
ATOM     14  C   UNL     1       4.130   7.079  17.330  0.00  0.00    +0.000 A 
ATOM     15  C   UNL     1       3.082   7.165  18.256  0.00  0.00    +0.000 A 
ATOM     16  C   UNL     1       2.826   6.120  19.154  0.00  0.00    +0.000 A 
BRANCH  11  18
ATOM     17  C   UNL     1       4.339   2.772  19.665  0.00  0.00    +0.000 C 
ATOM     18  O   UNL     1       3.473   3.873  19.910  0.00  0.00    +0.000 OA
ENDBRANCH  11  18
BRANCH  13  19
ATOM     19  O   UNL     1       6.009   5.735  16.483  0.00  0.00    +0.000 OA
ATOM     20  C   UNL     1       6.754   4.539  16.681  0.00  0.00    +0.000 C 
ENDBRANCH  13  19
ENDBRANCH   1  15
BRANCH   8  21
ATOM     21  O   UNL     1       0.224  12.218  22.038  0.00  0.00    +0.000 OA
BRANCH  21  22
ATOM     22  C   UNL     1      -0.915  12.718  22.622  0.00  0.00    +0.000 A 
ATOM     23  C   UNL     1      -1.001  14.103  22.734  0.00  0.00    +0.000 A 
ATOM     24  N   UNL     1      -2.032  14.764  23.318  0.00  0.00    +0.000 NA
ATOM     25  C   UNL     1      -3.024  13.992  23.820  0.00  0.00    +0.000 A 
ATOM     26  C   UNL     1      -3.014  12.609  23.773  0.00  0.00    +0.000 A 
ATOM     27  F   UNL     1      -4.026  11.906  24.298  0.00  0.00    +0.000 F 
ATOM     28  C   UNL     1      -1.941  11.955  23.181  0.00  0.00    +0.000 A 
ENDBRANCH  21  22
ENDBRANCH   8  21
TORSDOF 5
ENDMDL
