MODEL 1
REMARK VINA RESULT:      -6.9      0.000      0.000
REMARK  Name = 
REMARK  6 active torsions:
REMARK  status: ('A' for Active; 'I' for Inactive)
REMARK    1  A    between atoms: C_1  and  C_2
REMARK    2  A    between atoms: C_6  and  C_7
REMARK    3  A    between atoms: C_7  and  N_8
REMARK    4  A    between atoms: N_8  and  C_9
REMARK    5  A    between atoms: C_10  and  C_12
REMARK    6  A    between atoms: C_12  and  N_13
REMARK                            x       y       z     vdW  Elec       q    Type
REMARK                         _______ _______ _______ _____ _____    ______ ____
ROOT
ATOM      1  N   UNL     1       4.068   5.747  17.302  0.00  0.00    +0.000 N 
ATOM      2  C   UNL     1       3.506   7.042  17.658  0.00  0.00    +0.000 C 
ATOM      3  C   UNL     1       4.913   5.716  16.191  0.00  0.00    +0.000 C 
ATOM      4  O   UNL     1       5.136   6.735  15.522  0.00  0.00    +0.000 OA
ENDROOT
BRANCH   1   5
ATOM      5  C   UNL     1       4.194   4.794  18.398  0.00  0.00    +0.000 C 
BRANCH   5  11
ATOM      6  C   UNL     1       1.762   5.458  20.670  0.00  0.00    +0.000 C 
ATOM      7  C   UNL     1       1.910   4.311  19.724  0.00  0.00    +0.000 A 
ATOM      8  C   UNL     1       0.921   3.260  19.675  0.00  0.00    +0.000 A 
ATOM      9  C   UNL     1       1.209   2.283  18.757  0.00  0.00    +0.000 A 
ATOM     10  S   UNL     1       2.663   2.595  17.944  0.00  0.00    +0.000 S 
ATOM     11  C   UNL     1       2.929   4.080  18.802  0.00  0.00    +0.000 A 
ENDBRANCH   5  11
ENDBRANCH   1   5
BRANCH   3  12
ATOM     12  C   UNL     1       5.611   4.399  15.811  0.00  0.00    +0.000 C 
BRANCH  12  13
ATOM     13  N   UNL     1       6.060   4.322  14.414  0.00  0.00    +0.000 N 
ATOM     14  C   UNL     1       5.359   3.557  13.503  0.00  0.00    +0.000 A 
ATOM     15  C   UNL     1       5.774   3.432  12.242  0.00  0.00    +0.000 A 
ATOM     16  C   UNL     1       6.989   4.184  11.924  0.00  0.00    +0.000 A 
ATOM     17  N   UNL     1       7.678   4.888  12.754  0.00  0.00    +0.000 NA
ATOM     18  C   UNL     1       7.258   4.954  14.064  0.00  0.00    +0.000 A 
ATOM     19  O   UNL     1       7.920   5.575  14.892  0.00  0.00    +0.000 OA
ENDBRANCH  12  13
ENDBRANCH   3  12
TORSDOF 4
ENDMDL
MODEL 2
REMARK VINA RESULT:      -6.9      1.516      1.821
REMARK  Name = 
REMARK  6 active torsions:
REMARK  status: ('A' for Active; 'I' for Inactive)
REMARK    1  A    between atoms: C_1  and  C_2
REMARK    2  A    between atoms: C_6  and  C_7
REMARK    3  A    between atoms: C_7  and  N_8
REMARK    4  A    between atoms: N_8  and  C_9
REMARK    5  A    between atoms: C_10  and  C_12
REMARK    6  A    between atoms: C_12  and  N_13
REMARK                            x       y       z     vdW  Elec       q    Type
REMARK                         _______ _______ _______ _____ _____    ______ ____
ROOT
ATOM      1  N   UNL     1       3.108   6.443  18.489  0.00  0.00    +0.000 N 
ATOM      2  C   UNL     1       2.229   7.602  18.540  0.00  0.00    +0.000 C 
ATOM      3  C   UNL     1       4.220   6.537  17.649  0.00  0.00    +0.000 C 
ATOM      4  O   UNL     1       4.420   7.543  16.955  0.00  0.00    +0.000 OA
ENDROOT
BRANCH   1   5
ATOM      5  C   UNL     1       3.105   5.599  19.677  0.00  0.00    +0.000 C 
BRANCH   5  11
ATOM      6  C   UNL     1       2.172   3.260  21.954  0.00  0.00    +0.000 C 
ATOM      7  C   UNL     1       1.875   3.355  20.492  0.00  0.00    +0.000 A 
ATOM      8  C   UNL     1       1.068   2.355  19.835  0.00  0.00    +0.000 A 
ATOM      9  C   UNL     1       0.893   2.590  18.495  0.00  0.00    +0.000 A 
ATOM     10  S   UNL     1       1.692   3.998  17.995  0.00  0.00    +0.000 S 
ATOM     11  C   UNL     1       2.278   4.341  19.593  0.00  0.00    +0.000 A 
ENDBRANCH   5  11
ENDBRANCH   1   5
BRANCH   3  12
ATOM     12  C   UNL     1       5.237   5.384  17.613  0.00  0.00    +0.000 C 
BRANCH  12  13
ATOM     13  N   UNL     1       5.819   5.119  16.290  0.00  0.00    +0.000 N 
ATOM     14  C   UNL     1       5.198   4.240  15.425  0.00  0.00    +0.000 A 
ATOM     15  C   UNL     1       5.731   3.945  14.239  0.00  0.00    +0.000 A 
ATOM     16  C   UNL     1       6.983   4.644  13.944  0.00  0.00    +0.000 A 
ATOM     17  N   UNL     1       7.599   5.452  14.737  0.00  0.00    +0.000 NA
ATOM     18  C   UNL     1       7.056   5.694  15.979  0.00  0.00    +0.000 A 
ATOM     19  O   UNL     1       7.644   6.419  16.777  0.00  0.00    +0.000 OA
ENDBRANCH  12  13
ENDBRANCH   3  12
TORSDOF 4
ENDMDL
MODEL 3
REMARK VINA RESULT:      -6.8      1.440      1.797
REMARK  Name = 
REMARK  6 active torsions:
REMARK  status: ('A' for Active; 'I' for Inactive)
REMARK    1  A    between atoms: C_1  and  C_2
REMARK    2  A    between atoms: C_6  and  C_7
REMARK    3  A    between atoms: C_7  and  N_8
REMARK    4  A    between atoms: N_8  and  C_9
REMARK    5  A    between atoms: C_10  and  C_12
REMARK    6  A    between atoms: C_12  and  N_13
REMARK                            x       y       z     vdW  Elec       q    Type
REMARK                         _______ _______ _______ _____ _____    ______ ____
ROOT
ATOM      1  N   UNL     1       3.730   5.889  18.170  0.00  0.00    +0.000 N 
ATOM      2  C   UNL     1       2.931   7.081  18.418  0.00  0.00    +0.000 C 
ATOM      3  C   UNL     1       4.555   5.913  17.043  0.00  0.00    +0.000 C 
ATOM      4  O   UNL     1       4.571   6.885  16.276  0.00  0.00    +0.000 OA
ENDROOT
BRANCH   1   5
ATOM      5  C   UNL     1       4.049   5.090  19.346  0.00  0.00    +0.000 C 
BRANCH   5  11
ATOM      6  C   UNL     1       3.223   2.091  17.987  0.00  0.00    +0.000 C 
ATOM      7  C   UNL     1       2.672   2.789  19.188  0.00  0.00    +0.000 A 
ATOM      8  C   UNL     1       1.623   2.188  19.977  0.00  0.00    +0.000 A 
ATOM      9  C   UNL     1       1.230   2.960  21.040  0.00  0.00    +0.000 A 
ATOM     10  S   UNL     1       2.095   4.416  21.112  0.00  0.00    +0.000 S 
ATOM     11  C   UNL     1       3.046   4.025  19.713  0.00  0.00    +0.000 A 
ENDBRANCH   5  11
ENDBRANCH   1   5
BRANCH   3  12
ATOM     12  C   UNL     1       5.491   4.722  16.770  0.00  0.00    +0.000 C 
BRANCH  12  13
ATOM     13  N   UNL     1       6.080   4.701  15.424  0.00  0.00    +0.000 N 
ATOM     14  C   UNL     1       5.550   3.879  14.450  0.00  0.00    +0.000 A 
ATOM     15  C   UNL     1       6.096   3.805  13.236  0.00  0.00    +0.000 A 
ATOM     16  C   UNL     1       7.258   4.673  13.037  0.00  0.00    +0.000 A 
ATOM     17  N   UNL     1       7.790   5.434  13.930  0.00  0.00    +0.000 NA
ATOM     18  C   UNL     1       7.240   5.448  15.193  0.00  0.00    +0.000 A 
ATOM     19  O   UNL     1       7.754   6.124  16.080  0.00  0.00    +0.000 OA
ENDBRANCH  12  13
ENDBRANCH   3  12
TORSDOF 4
ENDMDL
MODEL 4
REMARK VINA RESULT:      -6.6      3.733      6.586
REMARK  Name = 
REMARK  6 active torsions:
REMARK  status: ('A' for Active; 'I' for Inactive)
REMARK    1  A    between atoms: C_1  and  C_2
REMARK    2  A    between atoms: C_6  and  C_7
REMARK    3  A    between atoms: C_7  and  N_8
REMARK    4  A    between atoms: N_8  and  C_9
REMARK    5  A    between atoms: C_10  and  C_12
REMARK    6  A    between atoms: C_12  and  N_13
REMARK                            x       y       z     vdW  Elec       q    Type
REMARK                         _______ _______ _______ _____ _____    ______ ____
ROOT
ATOM      1  N   UNL     1       3.309   3.616  18.445  0.00  0.00    +0.000 N 
ATOM      2  C   UNL     1       2.833   2.418  17.768  0.00  0.00    +0.000 C 
ATOM      3  C   UNL     1       2.355   4.365  19.136  0.00  0.00    +0.000 C 
ATOM      4  O   UNL     1       1.159   4.044  19.135  0.00  0.00    +0.000 OA
ENDROOT
BRANCH   1   5
ATOM      5  C   UNL     1       4.713   3.600  18.835  0.00  0.00    +0.000 C 
BRANCH   5  11
ATOM      6  C   UNL     1       5.291   4.123  15.531  0.00  0.00    +0.000 C 
ATOM      7  C   UNL     1       5.893   4.781  16.731  0.00  0.00    +0.000 A 
ATOM      8  C   UNL     1       6.883   5.821  16.585  0.00  0.00    +0.000 A 
ATOM      9  C   UNL     1       7.334   6.315  17.782  0.00  0.00    +0.000 A 
ATOM     10  S   UNL     1       6.594   5.545  19.099  0.00  0.00    +0.000 S 
ATOM     11  C   UNL     1       5.621   4.535  18.076  0.00  0.00    +0.000 A 
ENDBRANCH   5  11
ENDBRANCH   1   5
BRANCH   3  12
ATOM     12  C   UNL     1       2.804   5.594  19.945  0.00  0.00    +0.000 C 
BRANCH  12  13
ATOM     13  N   UNL     1       2.442   6.887  19.349  0.00  0.00    +0.000 N 
ATOM     14  C   UNL     1       2.927   7.236  18.104  0.00  0.00    +0.000 A 
ATOM     15  C   UNL     1       2.653   8.423  17.563  0.00  0.00    +0.000 A 
ATOM     16  C   UNL     1       1.793   9.280  18.381  0.00  0.00    +0.000 A 
ATOM     17  N   UNL     1       1.342   8.995  19.553  0.00  0.00    +0.000 NA
ATOM     18  C   UNL     1       1.688   7.785  20.113  0.00  0.00    +0.000 A 
ATOM     19  O   UNL     1       1.316   7.504  21.249  0.00  0.00    +0.000 OA
ENDBRANCH  12  13
ENDBRANCH   3  12
TORSDOF 4
ENDMDL
MODEL 5
REMARK VINA RESULT:      -6.6      2.491      3.707
REMARK  Name = 
REMARK  6 active torsions:
REMARK  status: ('A' for Active; 'I' for Inactive)
REMARK    1  A    between atoms: C_1  and  C_2
REMARK    2  A    between atoms: C_6  and  C_7
REMARK    3  A    between atoms: C_7  and  N_8
REMARK    4  A    between atoms: N_8  and  C_9
REMARK    5  A    between atoms: C_10  and  C_12
REMARK    6  A    between atoms: C_12  and  N_13
REMARK                            x       y       z     vdW  Elec       q    Type
REMARK                         _______ _______ _______ _____ _____    ______ ____
ROOT
ATOM      1  N   UNL     1       2.860   4.461  19.431  0.00  0.00    +0.000 N 
ATOM      2  C   UNL     1       1.419   4.288  19.317  0.00  0.00    +0.000 C 
ATOM      3  C   UNL     1       3.650   3.747  18.528  0.00  0.00    +0.000 C 
ATOM      4  O   UNL     1       3.146   2.975  17.701  0.00  0.00    +0.000 OA
ENDROOT
BRANCH   1   5
ATOM      5  C   UNL     1       3.297   5.725  20.010  0.00  0.00    +0.000 C 
BRANCH   5  11
ATOM      6  C   UNL     1       1.124   8.048  21.198  0.00  0.00    +0.000 C 
ATOM      7  C   UNL     1       1.791   7.945  19.864  0.00  0.00    +0.000 A 
ATOM      8  C   UNL     1       1.555   8.935  18.841  0.00  0.00    +0.000 A 
ATOM      9  C   UNL     1       2.241   8.691  17.678  0.00  0.00    +0.000 A 
ATOM     10  S   UNL     1       3.169   7.277  17.782  0.00  0.00    +0.000 S 
ATOM     11  C   UNL     1       2.683   6.970  19.420  0.00  0.00    +0.000 A 
ENDBRANCH   5  11
ENDBRANCH   1   5
BRANCH   3  12
ATOM     12  C   UNL     1       5.175   3.950  18.536  0.00  0.00    +0.000 C 
BRANCH  12  13
ATOM     13  N   UNL     1       5.757   4.278  17.227  0.00  0.00    +0.000 N 
ATOM     14  C   UNL     1       4.961   4.295  16.100  0.00  0.00    +0.000 A 
ATOM     15  C   UNL     1       5.475   4.541  14.894  0.00  0.00    +0.000 A 
ATOM     16  C   UNL     1       6.914   4.810  14.890  0.00  0.00    +0.000 A 
ATOM     17  N   UNL     1       7.688   4.781  15.918  0.00  0.00    +0.000 NA
ATOM     18  C   UNL     1       7.142   4.467  17.143  0.00  0.00    +0.000 A 
ATOM     19  O   UNL     1       7.861   4.381  18.135  0.00  0.00    +0.000 OA
ENDBRANCH  12  13
ENDBRANCH   3  12
TORSDOF 4
ENDMDL
MODEL 6
REMARK VINA RESULT:      -6.6      2.580      3.803
REMARK  Name = 
REMARK  6 active torsions:
REMARK  status: ('A' for Active; 'I' for Inactive)
REMARK    1  A    between atoms: C_1  and  C_2
REMARK    2  A    between atoms: C_6  and  C_7
REMARK    3  A    between atoms: C_7  and  N_8
REMARK    4  A    between atoms: N_8  and  C_9
REMARK    5  A    between atoms: C_10  and  C_12
REMARK    6  A    between atoms: C_12  and  N_13
REMARK                            x       y       z     vdW  Elec       q    Type
REMARK                         _______ _______ _______ _____ _____    ______ ____
ROOT
ATOM      1  N   UNL     1       2.682   4.544  18.569  0.00  0.00    +0.000 N 
ATOM      2  C   UNL     1       1.341   3.992  18.449  0.00  0.00    +0.000 C 
ATOM      3  C   UNL     1       3.740   3.634  18.523  0.00  0.00    +0.000 C 
ATOM      4  O   UNL     1       3.539   2.416  18.427  0.00  0.00    +0.000 OA
ENDROOT
BRANCH   1   5
ATOM      5  C   UNL     1       2.832   5.929  18.137  0.00  0.00    +0.000 C 
BRANCH   5  11
ATOM      6  C   UNL     1       1.988   9.189  17.715  0.00  0.00    +0.000 C 
ATOM      7  C   UNL     1       1.884   8.315  18.923  0.00  0.00    +0.000 A 
ATOM      8  C   UNL     1       1.350   8.826  20.162  0.00  0.00    +0.000 A 
ATOM      9  C   UNL     1       1.327   7.897  21.171  0.00  0.00    +0.000 A 
ATOM     10  S   UNL     1       1.947   6.404  20.662  0.00  0.00    +0.000 S 
ATOM     11  C   UNL     1       2.242   6.974  19.050  0.00  0.00    +0.000 A 
ENDBRANCH   5  11
ENDBRANCH   1   5
BRANCH   3  12
ATOM     12  C   UNL     1       5.186   4.158  18.557  0.00  0.00    +0.000 C 
BRANCH  12  13
ATOM     13  N   UNL     1       5.799   4.352  17.235  0.00  0.00    +0.000 N 
ATOM     14  C   UNL     1       5.027   4.263  16.095  0.00  0.00    +0.000 A 
ATOM     15  C   UNL     1       5.569   4.386  14.882  0.00  0.00    +0.000 A 
ATOM     16  C   UNL     1       7.010   4.643  14.883  0.00  0.00    +0.000 A 
ATOM     17  N   UNL     1       7.762   4.710  15.926  0.00  0.00    +0.000 NA
ATOM     18  C   UNL     1       7.187   4.522  17.163  0.00  0.00    +0.000 A 
ATOM     19  O   UNL     1       7.884   4.528  18.174  0.00  0.00    +0.000 OA
ENDBRANCH  12  13
ENDBRANCH   3  12
TORSDOF 4
ENDMDL
MODEL 7
REMARK VINA RESULT:      -6.6      1.740      2.069
REMARK  Name = 
REMARK  6 active torsions:
REMARK  status: ('A' for Active; 'I' for Inactive)
REMARK    1  A    between atoms: C_1  and  C_2
REMARK    2  A    between atoms: C_6  and  C_7
REMARK    3  A    between atoms: C_7  and  N_8
REMARK    4  A    between atoms: N_8  and  C_9
REMARK    5  A    between atoms: C_10  and  C_12
REMARK    6  A    between atoms: C_12  and  N_13
REMARK                            x       y       z     vdW  Elec       q    Type
REMARK                         _______ _______ _______ _____ _____    ______ ____
ROOT
ATOM      1  N   UNL     1       3.183   5.194  17.696  0.00  0.00    +0.000 N 
ATOM      2  C   UNL     1       2.299   6.242  18.186  0.00  0.00    +0.000 C 
ATOM      3  C   UNL     1       4.547   5.493  17.657  0.00  0.00    +0.000 C 
ATOM      4  O   UNL     1       4.971   6.609  17.985  0.00  0.00    +0.000 OA
ENDROOT
BRANCH   1   5
ATOM      5  C   UNL     1       2.693   3.831  17.860  0.00  0.00    +0.000 C 
BRANCH   5  11
ATOM      6  C   UNL     1       4.744   2.320  20.104  0.00  0.00    +0.000 C 
ATOM      7  C   UNL     1       3.315   2.738  20.234  0.00  0.00    +0.000 A 
ATOM      8  C   UNL     1       2.590   2.522  21.462  0.00  0.00    +0.000 A 
ATOM      9  C   UNL     1       1.291   2.960  21.414  0.00  0.00    +0.000 A 
ATOM     10  S   UNL     1       0.911   3.629  19.903  0.00  0.00    +0.000 S 
ATOM     11  C   UNL     1       2.510   3.362  19.282  0.00  0.00    +0.000 A 
ENDBRANCH   5  11
ENDBRANCH   1   5
BRANCH   3  12
ATOM     12  C   UNL     1       5.545   4.402  17.232  0.00  0.00    +0.000 C 
BRANCH  12  13
ATOM     13  N   UNL     1       6.048   4.533  15.858  0.00  0.00    +0.000 N 
ATOM     14  C   UNL     1       5.497   3.776  14.843  0.00  0.00    +0.000 A 
ATOM     15  C   UNL     1       5.969   3.840  13.598  0.00  0.00    +0.000 A 
ATOM     16  C   UNL     1       7.074   4.782  13.414  0.00  0.00    +0.000 A 
ATOM     17  N   UNL     1       7.626   5.485  14.342  0.00  0.00    +0.000 NA
ATOM     18  C   UNL     1       7.156   5.357  15.630  0.00  0.00    +0.000 A 
ATOM     19  O   UNL     1       7.693   5.975  16.545  0.00  0.00    +0.000 OA
ENDBRANCH  12  13
ENDBRANCH   3  12
TORSDOF 4
ENDMDL
MODEL 8
REMARK VINA RESULT:      -6.6      2.500      3.799
REMARK  Name = 
REMARK  6 active torsions:
REMARK  status: ('A' for Active; 'I' for Inactive)
REMARK    1  A    between atoms: C_1  and  C_2
REMARK    2  A    between atoms: C_6  and  C_7
REMARK    3  A    between atoms: C_7  and  N_8
REMARK    4  A    between atoms: N_8  and  C_9
REMARK    5  A    between atoms: C_10  and  C_12
REMARK    6  A    between atoms: C_12  and  N_13
REMARK                            x       y       z     vdW  Elec       q    Type
REMARK                         _______ _______ _______ _____ _____    ______ ____
ROOT
ATOM      1  N   UNL     1       3.305   3.899  19.328  0.00  0.00    +0.000 N 
ATOM      2  C   UNL     1       2.562   2.696  19.675  0.00  0.00    +0.000 C 
ATOM      3  C   UNL     1       4.697   3.789  19.299  0.00  0.00    +0.000 C 
ATOM      4  O   UNL     1       5.265   2.729  19.594  0.00  0.00    +0.000 OA
ENDROOT
BRANCH   1   5
ATOM      5  C   UNL     1       2.587   4.865  18.506  0.00  0.00    +0.000 C 
BRANCH   5  11
ATOM      6  C   UNL     1       2.830   8.119  17.568  0.00  0.00    +0.000 C 
ATOM      7  C   UNL     1       2.313   7.517  18.834  0.00  0.00    +0.000 A 
ATOM      8  C   UNL     1       1.805   8.351  19.896  0.00  0.00    +0.000 A 
ATOM      9  C   UNL     1       1.373   7.642  20.988  0.00  0.00    +0.000 A 
ATOM     10  S   UNL     1       1.572   5.973  20.771  0.00  0.00    +0.000 S 
ATOM     11  C   UNL     1       2.229   6.168  19.176  0.00  0.00    +0.000 A 
ENDBRANCH   5  11
ENDBRANCH   1   5
BRANCH   3  12
ATOM     12  C   UNL     1       5.539   4.997  18.855  0.00  0.00    +0.000 C 
BRANCH  12  13
ATOM     13  N   UNL     1       6.008   4.940  17.464  0.00  0.00    +0.000 N 
ATOM     14  C   UNL     1       5.482   4.007  16.594  0.00  0.00    +0.000 A 
ATOM     15  C   UNL     1       5.927   3.902  15.341  0.00  0.00    +0.000 A 
ATOM     16  C   UNL     1       6.973   4.862  14.985  0.00  0.00    +0.000 A 
ATOM     17  N   UNL     1       7.500   5.729  15.777  0.00  0.00    +0.000 NA
ATOM     18  C   UNL     1       7.063   5.777  17.082  0.00  0.00    +0.000 A 
ATOM     19  O   UNL     1       7.580   6.558  17.877  0.00  0.00    +0.000 OA
ENDBRANCH  12  13
ENDBRANCH   3  12
TORSDOF 4
ENDMDL
MODEL 9
REMARK VINA RESULT:      -6.5      2.530      3.907
REMARK  Name = 
REMARK  6 active torsions:
REMARK  status: ('A' for Active; 'I' for Inactive)
REMARK    1  A    between atoms: C_1  and  C_2
REMARK    2  A    between atoms: C_6  and  C_7
REMARK    3  A    between atoms: C_7  and  N_8
REMARK    4  A    between atoms: N_8  and  C_9
REMARK    5  A    between atoms: C_10  and  C_12
REMARK    6  A    between atoms: C_12  and  N_13
REMARK                            x       y       z     vdW  Elec       q    Type
REMARK                         _______ _______ _______ _____ _____    ______ ____
ROOT
ATOM      1  N   UNL     1       2.785   4.366  19.410  0.00  0.00    +0.000 N 
ATOM      2  C   UNL     1       1.347   4.200  19.263  0.00  0.00    +0.000 C 
ATOM      3  C   UNL     1       3.591   3.680  18.498  0.00  0.00    +0.000 C 
ATOM      4  O   UNL     1       3.101   2.938  17.636  0.00  0.00    +0.000 OA
ENDROOT
BRANCH   1   5
ATOM      5  C   UNL     1       3.213   5.609  20.040  0.00  0.00    +0.000 C 
BRANCH   5  11
ATOM      6  C   UNL     1       3.713   7.166  17.065  0.00  0.00    +0.000 C 
ATOM      7  C   UNL     1       2.852   7.554  18.224  0.00  0.00    +0.000 A 
ATOM      8  C   UNL     1       2.057   8.758  18.184  0.00  0.00    +0.000 A 
ATOM      9  C   UNL     1       1.329   8.968  19.327  0.00  0.00    +0.000 A 
ATOM     10  S   UNL     1       1.584   7.742  20.468  0.00  0.00    +0.000 S 
ATOM     11  C   UNL     1       2.674   6.878  19.430  0.00  0.00    +0.000 A 
ENDBRANCH   5  11
ENDBRANCH   1   5
BRANCH   3  12
ATOM     12  C   UNL     1       5.116   3.880  18.542  0.00  0.00    +0.000 C 
BRANCH  12  13
ATOM     13  N   UNL     1       5.728   4.214  17.249  0.00  0.00    +0.000 N 
ATOM     14  C   UNL     1       4.997   4.090  16.084  0.00  0.00    +0.000 A 
ATOM     15  C   UNL     1       5.546   4.339  14.894  0.00  0.00    +0.000 A 
ATOM     16  C   UNL     1       6.944   4.769  14.947  0.00  0.00    +0.000 A 
ATOM     17  N   UNL     1       7.660   4.873  16.013  0.00  0.00    +0.000 NA
ATOM     18  C   UNL     1       7.086   4.554  17.223  0.00  0.00    +0.000 A 
ATOM     19  O   UNL     1       7.755   4.594  18.252  0.00  0.00    +0.000 OA
ENDBRANCH  12  13
ENDBRANCH   3  12
TORSDOF 4
ENDMDL
