MODEL 1
REMARK VINA RESULT:      -7.9      0.000      0.000
REMARK  Name = 
REMARK  9 active torsions:
REMARK  status: ('A' for Active; 'I' for Inactive)
REMARK    1  A    between atoms: C_1  and  C_2
REMARK    2  A    between atoms: N_4  and  C_5
REMARK    3  A    between atoms: C_8  and  C_9
REMARK    4  A    between atoms: C_10  and  C_11
REMARK    5  A    between atoms: C_14  and  N_15
REMARK    6  A    between atoms: C_19  and  S_20
REMARK    7  A    between atoms: S_20  and  O_23
REMARK    8  A    between atoms: C_24  and  S_25
REMARK    9  A    between atoms: S_25  and  O_28
REMARK                            x       y       z     vdW  Elec       q    Type
REMARK                         _______ _______ _______ _____ _____    ______ ____
ROOT
ATOM      1  C   UNL     1       5.186   4.908  15.311  0.00  0.00    +0.000 A 
ATOM      2  C   UNL     1       5.173   6.289  15.492  0.00  0.00    +0.000 A 
ATOM      3  C   UNL     1       4.579   6.872  16.619  0.00  0.00    +0.000 A 
ATOM      4  C   UNL     1       3.972   6.085  17.606  0.00  0.00    +0.000 A 
ATOM      5  C   UNL     1       3.979   4.692  17.417  0.00  0.00    +0.000 A 
ATOM      6  C   UNL     1       4.564   4.110  16.271  0.00  0.00    +0.000 A 
ENDROOT
BRANCH   1  10
ATOM      7  C   UNL     1       7.346   3.841  12.403  0.00  0.00    +0.000 C 
ATOM      8  C   UNL     1       6.987   4.662  13.614  0.00  0.00    +0.000 C 
ATOM      9  O   UNL     1       7.733   5.556  14.001  0.00  0.00    +0.000 OA
ATOM     10  N   UNL     1       5.789   4.282  14.198  0.00  0.00    +0.000 N 
ATOM     11  H   UNL     1       5.374   3.417  13.874  0.00  0.00    +0.000 HD
ENDBRANCH   1  10
BRANCH   5  12
ATOM     12  S   UNL     1       3.251   3.572  18.587  0.00  0.00    +0.000 S 
ATOM     13  O   UNL     1       3.848   3.841  19.878  0.00  0.00    +0.000 OA
ATOM     14  O   UNL     1       1.819   3.601  18.390  0.00  0.00    +0.000 OA
BRANCH  12  15
ATOM     15  O   UNL     1       3.796   2.107  18.196  0.00  0.00    +0.000 OA
ATOM     16  H   UNL     1       4.744   2.070  18.442  0.00  0.00    +0.000 HD
ENDBRANCH  12  15
ENDBRANCH   5  12
BRANCH   4  17
ATOM     17  C   UNL     1       3.344   6.783  18.740  0.00  0.00    +0.000 C 
ATOM     18  C   UNL     1       2.109   7.309  18.702  0.00  0.00    +0.000 C 
BRANCH  18  19
ATOM     19  C   UNL     1       1.616   8.168  19.795  0.00  0.00    +0.000 A 
ATOM     20  C   UNL     1       1.514   7.530  21.041  0.00  0.00    +0.000 A 
ATOM     21  C   UNL     1       0.979   8.191  22.155  0.00  0.00    +0.000 A 
ATOM     22  C   UNL     1       0.541   9.516  22.076  0.00  0.00    +0.000 A 
ATOM     23  C   UNL     1       0.650  10.163  20.841  0.00  0.00    +0.000 A 
ATOM     24  C   UNL     1       1.178   9.497  19.714  0.00  0.00    +0.000 A 
BRANCH  22  25
ATOM     25  N   UNL     1      -0.063  10.064  23.226  0.00  0.00    +0.000 NA
ATOM     26  C   UNL     1      -0.857  10.912  23.055  0.00  0.00    +0.000 C 
ATOM     27  S   UNL     1      -1.952  12.056  22.882  0.00  0.00    +0.000 S 
ENDBRANCH  22  25
BRANCH  24  28
ATOM     28  S   UNL     1       1.210  10.442  18.216  0.00  0.00    +0.000 S 
ATOM     29  O   UNL     1       1.330  11.830  18.607  0.00  0.00    +0.000 OA
ATOM     30  O   UNL     1       2.159   9.815  17.313  0.00  0.00    +0.000 OA
BRANCH  28  31
ATOM     31  O   UNL     1      -0.251  10.285  17.556  0.00  0.00    +0.000 OA
ATOM     32  H   UNL     1      -0.757  11.093  17.774  0.00  0.00    +0.000 HD
ENDBRANCH  28  31
ENDBRANCH  24  28
ENDBRANCH  18  19
ENDBRANCH   4  17
TORSDOF 8
ENDMDL
MODEL 2
REMARK VINA RESULT:      -7.8      1.040      1.166
REMARK  Name = 
REMARK  9 active torsions:
REMARK  status: ('A' for Active; 'I' for Inactive)
REMARK    1  A    between atoms: C_1  and  C_2
REMARK    2  A    between atoms: N_4  and  C_5
REMARK    3  A    between atoms: C_8  and  C_9
REMARK    4  A    between atoms: C_10  and  C_11
REMARK    5  A    between atoms: C_14  and  N_15
REMARK    6  A    between atoms: C_19  and  S_20
REMARK    7  A    between atoms: S_20  and  O_23
REMARK    8  A    between atoms: C_24  and  S_25
REMARK    9  A    between atoms: S_25  and  O_28
REMARK                            x       y       z     vdW  Elec       q    Type
REMARK                         _______ _______ _______ _____ _____    ______ ____
ROOT
ATOM      1  C   UNL     1       5.670   4.576  15.226  0.00  0.00    +0.000 A 
ATOM      2  C   UNL     1       5.466   5.946  15.376  0.00  0.00    +0.000 A 
ATOM      3  C   UNL     1       4.779   6.464  16.483  0.00  0.00    +0.000 A 
ATOM      4  C   UNL     1       4.271   5.621  17.479  0.00  0.00    +0.000 A 
ATOM      5  C   UNL     1       4.471   4.239  17.321  0.00  0.00    +0.000 A 
ATOM      6  C   UNL     1       5.149   3.719  16.194  0.00  0.00    +0.000 A 
ENDROOT
BRANCH   1  10
ATOM      7  C   UNL     1       6.798   3.022  11.974  0.00  0.00    +0.000 C 
ATOM      8  C   UNL     1       5.808   3.644  12.925  0.00  0.00    +0.000 C 
ATOM      9  O   UNL     1       4.636   3.790  12.592  0.00  0.00    +0.000 OA
ATOM     10  N   UNL     1       6.371   4.017  14.134  0.00  0.00    +0.000 N 
ATOM     11  H   UNL     1       7.382   3.996  14.197  0.00  0.00    +0.000 HD
ENDBRANCH   1  10
BRANCH   5  12
ATOM     12  S   UNL     1       3.886   3.052  18.504  0.00  0.00    +0.000 S 
ATOM     13  O   UNL     1       2.861   3.697  19.298  0.00  0.00    +0.000 OA
ATOM     14  O   UNL     1       3.635   1.815  17.798  0.00  0.00    +0.000 OA
BRANCH  12  15
ATOM     15  O   UNL     1       5.100   2.819  19.538  0.00  0.00    +0.000 OA
ATOM     16  H   UNL     1       5.276   3.675  19.983  0.00  0.00    +0.000 HD
ENDBRANCH  12  15
ENDBRANCH   5  12
BRANCH   4  17
ATOM     17  C   UNL     1       3.535   6.248  18.590  0.00  0.00    +0.000 C 
ATOM     18  C   UNL     1       2.385   6.925  18.436  0.00  0.00    +0.000 C 
BRANCH  18  19
ATOM     19  C   UNL     1       1.805   7.698  19.550  0.00  0.00    +0.000 A 
ATOM     20  C   UNL     1       1.600   6.965  20.729  0.00  0.00    +0.000 A 
ATOM     21  C   UNL     1       0.976   7.541  21.844  0.00  0.00    +0.000 A 
ATOM     22  C   UNL     1       0.549   8.872  21.835  0.00  0.00    +0.000 A 
ATOM     23  C   UNL     1       0.761   9.613  20.668  0.00  0.00    +0.000 A 
ATOM     24  C   UNL     1       1.378   9.033  19.538  0.00  0.00    +0.000 A 
BRANCH  22  25
ATOM     25  N   UNL     1      -0.147   9.332  22.971  0.00  0.00    +0.000 NA
ATOM     26  C   UNL     1      -0.692  10.367  22.876  0.00  0.00    +0.000 C 
ATOM     27  S   UNL     1      -1.462  11.760  22.799  0.00  0.00    +0.000 S 
ENDBRANCH  22  25
BRANCH  24  28
ATOM     28  S   UNL     1       1.535  10.093  18.127  0.00  0.00    +0.000 S 
ATOM     29  O   UNL     1       1.870  11.407  18.634  0.00  0.00    +0.000 OA
ATOM     30  O   UNL     1       2.365   9.414  17.149  0.00  0.00    +0.000 OA
BRANCH  28  31
ATOM     31  O   UNL     1       0.058  10.219  17.496  0.00  0.00    +0.000 OA
ATOM     32  H   UNL     1      -0.210  11.156  17.566  0.00  0.00    +0.000 HD
ENDBRANCH  28  31
ENDBRANCH  24  28
ENDBRANCH  18  19
ENDBRANCH   4  17
TORSDOF 8
ENDMDL
MODEL 3
REMARK VINA RESULT:      -7.8      2.923      8.824
REMARK  Name = 
REMARK  9 active torsions:
REMARK  status: ('A' for Active; 'I' for Inactive)
REMARK    1  A    between atoms: C_1  and  C_2
REMARK    2  A    between atoms: N_4  and  C_5
REMARK    3  A    between atoms: C_8  and  C_9
REMARK    4  A    between atoms: C_10  and  C_11
REMARK    5  A    between atoms: C_14  and  N_15
REMARK    6  A    between atoms: C_19  and  S_20
REMARK    7  A    between atoms: S_20  and  O_23
REMARK    8  A    between atoms: C_24  and  S_25
REMARK    9  A    between atoms: S_25  and  O_28
REMARK                            x       y       z     vdW  Elec       q    Type
REMARK                         _______ _______ _______ _____ _____    ______ ____
ROOT
ATOM      1  C   UNL     1       0.913   7.961  20.820  0.00  0.00    +0.000 A 
ATOM      2  C   UNL     1       1.565   8.625  19.783  0.00  0.00    +0.000 A 
ATOM      3  C   UNL     1       2.438   7.950  18.920  0.00  0.00    +0.000 A 
ATOM      4  C   UNL     1       2.689   6.580  19.069  0.00  0.00    +0.000 A 
ATOM      5  C   UNL     1       2.037   5.915  20.121  0.00  0.00    +0.000 A 
ATOM      6  C   UNL     1       1.171   6.603  21.001  0.00  0.00    +0.000 A 
ENDROOT
BRANCH   1  10
ATOM      7  C   UNL     1      -0.907  10.249  23.211  0.00  0.00    +0.000 C 
ATOM      8  C   UNL     1       0.196   9.855  22.263  0.00  0.00    +0.000 C 
ATOM      9  O   UNL     1       1.130  10.621  22.045  0.00  0.00    +0.000 OA
ATOM     10  N   UNL     1       0.013   8.602  21.701  0.00  0.00    +0.000 N 
ATOM     11  H   UNL     1      -0.889   8.163  21.839  0.00  0.00    +0.000 HD
ENDBRANCH   1  10
BRANCH   5  12
ATOM     12  S   UNL     1       2.257   4.180  20.429  0.00  0.00    +0.000 S 
ATOM     13  O   UNL     1       2.207   3.982  21.862  0.00  0.00    +0.000 OA
ATOM     14  O   UNL     1       1.382   3.460  19.531  0.00  0.00    +0.000 OA
BRANCH  12  15
ATOM     15  O   UNL     1       3.784   3.850  20.036  0.00  0.00    +0.000 OA
ATOM     16  H   UNL     1       3.874   3.977  19.068  0.00  0.00    +0.000 HD
ENDBRANCH  12  15
ENDBRANCH   5  12
BRANCH   4  17
ATOM     17  C   UNL     1       3.644   5.959  18.137  0.00  0.00    +0.000 C 
ATOM     18  C   UNL     1       4.621   6.634  17.508  0.00  0.00    +0.000 C 
BRANCH  18  19
ATOM     19  C   UNL     1       5.414   6.001  16.438  0.00  0.00    +0.000 A 
ATOM     20  C   UNL     1       4.874   6.136  15.149  0.00  0.00    +0.000 A 
ATOM     21  C   UNL     1       5.467   5.513  14.043  0.00  0.00    +0.000 A 
ATOM     22  C   UNL     1       6.629   4.748  14.173  0.00  0.00    +0.000 A 
ATOM     23  C   UNL     1       7.181   4.618  15.453  0.00  0.00    +0.000 A 
ATOM     24  C   UNL     1       6.579   5.234  16.571  0.00  0.00    +0.000 A 
BRANCH  22  25
ATOM     25  N   UNL     1       7.099   4.089  13.019  0.00  0.00    +0.000 NA
ATOM     26  C   UNL     1       6.316   3.459  12.412  0.00  0.00    +0.000 C 
ATOM     27  S   UNL     1       5.294   2.602  11.541  0.00  0.00    +0.000 S 
ENDBRANCH  22  25
BRANCH  24  28
ATOM     28  S   UNL     1       7.378   4.939  18.125  0.00  0.00    +0.000 S 
ATOM     29  O   UNL     1       7.954   6.200  18.538  0.00  0.00    +0.000 OA
ATOM     30  O   UNL     1       6.452   4.206  18.970  0.00  0.00    +0.000 OA
BRANCH  28  31
ATOM     31  O   UNL     1       8.617   3.959  17.812  0.00  0.00    +0.000 OA
ATOM     32  H   UNL     1       8.933   4.168  16.911  0.00  0.00    +0.000 HD
ENDBRANCH  28  31
ENDBRANCH  24  28
ENDBRANCH  18  19
ENDBRANCH   4  17
TORSDOF 8
ENDMDL
MODEL 4
REMARK VINA RESULT:      -7.7      2.535      9.355
REMARK  Name = 
REMARK  9 active torsions:
REMARK  status: ('A' for Active; 'I' for Inactive)
REMARK    1  A    between atoms: C_1  and  C_2
REMARK    2  A    between atoms: N_4  and  C_5
REMARK    3  A    between atoms: C_8  and  C_9
REMARK    4  A    between atoms: C_10  and  C_11
REMARK    5  A    between atoms: C_14  and  N_15
REMARK    6  A    between atoms: C_19  and  S_20
REMARK    7  A    between atoms: S_20  and  O_23
REMARK    8  A    between atoms: C_24  and  S_25
REMARK    9  A    between atoms: S_25  and  O_28
REMARK                            x       y       z     vdW  Elec       q    Type
REMARK                         _______ _______ _______ _____ _____    ______ ____
ROOT
ATOM      1  C   UNL     1      -0.526  10.635  22.354  0.00  0.00    +0.000 A 
ATOM      2  C   UNL     1       0.097   9.513  22.895  0.00  0.00    +0.000 A 
ATOM      3  C   UNL     1       0.860   8.647  22.100  0.00  0.00    +0.000 A 
ATOM      4  C   UNL     1       1.022   8.878  20.728  0.00  0.00    +0.000 A 
ATOM      5  C   UNL     1       0.385  10.005  20.183  0.00  0.00    +0.000 A 
ATOM      6  C   UNL     1      -0.398  10.866  20.985  0.00  0.00    +0.000 A 
ENDROOT
BRANCH   1  10
ATOM      7  C   UNL     1      -2.931  13.217  23.700  0.00  0.00    +0.000 C 
ATOM      8  C   UNL     1      -2.350  12.298  22.657  0.00  0.00    +0.000 C 
ATOM      9  O   UNL     1      -2.826  12.263  21.526  0.00  0.00    +0.000 OA
ATOM     10  N   UNL     1      -1.289  11.540  23.125  0.00  0.00    +0.000 N 
ATOM     11  H   UNL     1      -1.124  11.548  24.124  0.00  0.00    +0.000 HD
ENDBRANCH   1  10
BRANCH   5  12
ATOM     12  S   UNL     1       0.504  10.424  18.461  0.00  0.00    +0.000 S 
ATOM     13  O   UNL     1       1.875  10.202  18.053  0.00  0.00    +0.000 OA
ATOM     14  O   UNL     1      -0.605   9.794  17.779  0.00  0.00    +0.000 OA
BRANCH  12  15
ATOM     15  O   UNL     1       0.320  12.022  18.379  0.00  0.00    +0.000 OA
ATOM     16  H   UNL     1      -0.184  12.302  19.173  0.00  0.00    +0.000 HD
ENDBRANCH  12  15
ENDBRANCH   5  12
BRANCH   4  17
ATOM     17  C   UNL     1       1.813   7.900  19.963  0.00  0.00    +0.000 C 
ATOM     18  C   UNL     1       1.952   6.611  20.316  0.00  0.00    +0.000 C 
BRANCH  18  19
ATOM     19  C   UNL     1       2.916   5.734  19.626  0.00  0.00    +0.000 A 
ATOM     20  C   UNL     1       3.826   6.404  18.794  0.00  0.00    +0.000 A 
ATOM     21  C   UNL     1       4.746   5.699  18.006  0.00  0.00    +0.000 A 
ATOM     22  C   UNL     1       4.806   4.303  18.028  0.00  0.00    +0.000 A 
ATOM     23  C   UNL     1       3.910   3.627  18.864  0.00  0.00    +0.000 A 
ATOM     24  C   UNL     1       2.975   4.334  19.651  0.00  0.00    +0.000 A 
BRANCH  22  25
ATOM     25  N   UNL     1       5.702   3.683  17.134  0.00  0.00    +0.000 NA
ATOM     26  C   UNL     1       5.686   4.057  16.021  0.00  0.00    +0.000 C 
ATOM     27  S   UNL     1       5.716   4.534  14.502  0.00  0.00    +0.000 S 
ENDBRANCH  22  25
BRANCH  24  28
ATOM     28  S   UNL     1       1.885   3.330  20.623  0.00  0.00    +0.000 S 
ATOM     29  O   UNL     1       1.936   2.000  20.056  0.00  0.00    +0.000 OA
ATOM     30  O   UNL     1       2.180   3.579  22.023  0.00  0.00    +0.000 OA
BRANCH  28  31
ATOM     31  O   UNL     1       0.398   3.883  20.342  0.00  0.00    +0.000 OA
ATOM     32  H   UNL     1      -0.014   3.287  19.687  0.00  0.00    +0.000 HD
ENDBRANCH  28  31
ENDBRANCH  24  28
ENDBRANCH  18  19
ENDBRANCH   4  17
TORSDOF 8
ENDMDL
MODEL 5
REMARK VINA RESULT:      -7.6      2.130      9.238
REMARK  Name = 
REMARK  9 active torsions:
REMARK  status: ('A' for Active; 'I' for Inactive)
REMARK    1  A    between atoms: C_1  and  C_2
REMARK    2  A    between atoms: N_4  and  C_5
REMARK    3  A    between atoms: C_8  and  C_9
REMARK    4  A    between atoms: C_10  and  C_11
REMARK    5  A    between atoms: C_14  and  N_15
REMARK    6  A    between atoms: C_19  and  S_20
REMARK    7  A    between atoms: S_20  and  O_23
REMARK    8  A    between atoms: C_24  and  S_25
REMARK    9  A    between atoms: S_25  and  O_28
REMARK                            x       y       z     vdW  Elec       q    Type
REMARK                         _______ _______ _______ _____ _____    ______ ____
ROOT
ATOM      1  C   UNL     1      -0.265   9.807  21.908  0.00  0.00    +0.000 A 
ATOM      2  C   UNL     1       0.561   8.775  22.350  0.00  0.00    +0.000 A 
ATOM      3  C   UNL     1       1.443   8.123  21.478  0.00  0.00    +0.000 A 
ATOM      4  C   UNL     1       1.524   8.484  20.127  0.00  0.00    +0.000 A 
ATOM      5  C   UNL     1       0.683   9.518  19.682  0.00  0.00    +0.000 A 
ATOM      6  C   UNL     1      -0.217  10.162  20.561  0.00  0.00    +0.000 A 
ENDROOT
BRANCH   1  10
ATOM      7  C   UNL     1      -2.599  12.240  23.610  0.00  0.00    +0.000 C 
ATOM      8  C   UNL     1      -1.741  11.724  22.484  0.00  0.00    +0.000 C 
ATOM      9  O   UNL     1      -1.625  12.368  21.446  0.00  0.00    +0.000 OA
ATOM     10  N   UNL     1      -1.155  10.499  22.760  0.00  0.00    +0.000 N 
ATOM     11  H   UNL     1      -1.482  10.008  23.583  0.00  0.00    +0.000 HD
ENDBRANCH   1  10
BRANCH   5  12
ATOM     12  S   UNL     1       0.680  10.082  17.998  0.00  0.00    +0.000 S 
ATOM     13  O   UNL     1       1.960   9.733  17.419  0.00  0.00    +0.000 OA
ATOM     14  O   UNL     1      -0.567   9.662  17.398  0.00  0.00    +0.000 OA
BRANCH  12  15
ATOM     15  O   UNL     1       0.703  11.692  18.069  0.00  0.00    +0.000 OA
ATOM     16  H   UNL     1       1.603  11.985  17.814  0.00  0.00    +0.000 HD
ENDBRANCH  12  15
ENDBRANCH   5  12
BRANCH   4  17
ATOM     17  C   UNL     1       2.455   7.724  19.276  0.00  0.00    +0.000 C 
ATOM     18  C   UNL     1       2.227   6.469  18.853  0.00  0.00    +0.000 C 
BRANCH  18  19
ATOM     19  C   UNL     1       3.281   5.693  18.176  0.00  0.00    +0.000 A 
ATOM     20  C   UNL     1       4.368   6.454  17.717  0.00  0.00    +0.000 A 
ATOM     21  C   UNL     1       5.405   5.871  16.978  0.00  0.00    +0.000 A 
ATOM     22  C   UNL     1       5.410   4.505  16.682  0.00  0.00    +0.000 A 
ATOM     23  C   UNL     1       4.337   3.736  17.145  0.00  0.00    +0.000 A 
ATOM     24  C   UNL     1       3.285   4.323  17.881  0.00  0.00    +0.000 A 
BRANCH  22  25
ATOM     25  N   UNL     1       6.450   4.029  15.857  0.00  0.00    +0.000 NA
ATOM     26  C   UNL     1       6.219   3.941  14.709  0.00  0.00    +0.000 C 
ATOM     27  S   UNL     1       5.966   3.814  13.142  0.00  0.00    +0.000 S 
ENDBRANCH  22  25
BRANCH  24  28
ATOM     28  S   UNL     1       1.983   3.221  18.359  0.00  0.00    +0.000 S 
ATOM     29  O   UNL     1       2.046   3.108  19.800  0.00  0.00    +0.000 OA
ATOM     30  O   UNL     1       0.772   3.639  17.676  0.00  0.00    +0.000 OA
BRANCH  28  31
ATOM     31  O   UNL     1       2.384   1.774  17.776  0.00  0.00    +0.000 OA
ATOM     32  H   UNL     1       3.149   1.902  17.182  0.00  0.00    +0.000 HD
ENDBRANCH  28  31
ENDBRANCH  24  28
ENDBRANCH  18  19
ENDBRANCH   4  17
TORSDOF 8
ENDMDL
MODEL 6
REMARK VINA RESULT:      -7.5      0.891      1.178
REMARK  Name = 
REMARK  9 active torsions:
REMARK  status: ('A' for Active; 'I' for Inactive)
REMARK    1  A    between atoms: C_1  and  C_2
REMARK    2  A    between atoms: N_4  and  C_5
REMARK    3  A    between atoms: C_8  and  C_9
REMARK    4  A    between atoms: C_10  and  C_11
REMARK    5  A    between atoms: C_14  and  N_15
REMARK    6  A    between atoms: C_19  and  S_20
REMARK    7  A    between atoms: S_20  and  O_23
REMARK    8  A    between atoms: C_24  and  S_25
REMARK    9  A    between atoms: S_25  and  O_28
REMARK                            x       y       z     vdW  Elec       q    Type
REMARK                         _______ _______ _______ _____ _____    ______ ____
ROOT
ATOM      1  C   UNL     1       5.387   4.836  15.767  0.00  0.00    +0.000 A 
ATOM      2  C   UNL     1       5.478   6.186  16.101  0.00  0.00    +0.000 A 
ATOM      3  C   UNL     1       4.699   6.737  17.127  0.00  0.00    +0.000 A 
ATOM      4  C   UNL     1       3.797   5.950  17.855  0.00  0.00    +0.000 A 
ATOM      5  C   UNL     1       3.702   4.590  17.511  0.00  0.00    +0.000 A 
ATOM      6  C   UNL     1       4.477   4.042  16.463  0.00  0.00    +0.000 A 
ENDROOT
BRANCH   1  10
ATOM      7  C   UNL     1       6.766   3.241  12.634  0.00  0.00    +0.000 C 
ATOM      8  C   UNL     1       5.721   3.923  13.479  0.00  0.00    +0.000 C 
ATOM      9  O   UNL     1       4.608   4.158  13.019  0.00  0.00    +0.000 OA
ATOM     10  N   UNL     1       6.167   4.240  14.751  0.00  0.00    +0.000 N 
ATOM     11  H   UNL     1       7.160   4.145  14.928  0.00  0.00    +0.000 HD
ENDBRANCH   1  10
BRANCH   5  12
ATOM     12  S   UNL     1       2.606   3.473  18.348  0.00  0.00    +0.000 S 
ATOM     13  O   UNL     1       2.896   2.137  17.870  0.00  0.00    +0.000 OA
ATOM     14  O   UNL     1       2.638   3.800  19.757  0.00  0.00    +0.000 OA
BRANCH  12  15
ATOM     15  O   UNL     1       1.132   3.786  17.779  0.00  0.00    +0.000 OA
ATOM     16  H   UNL     1       0.495   3.253  18.300  0.00  0.00    +0.000 HD
ENDBRANCH  12  15
ENDBRANCH   5  12
BRANCH   4  17
ATOM     17  C   UNL     1       2.997   6.618  18.894  0.00  0.00    +0.000 C 
ATOM     18  C   UNL     1       2.230   7.698  18.667  0.00  0.00    +0.000 C 
BRANCH  18  19
ATOM     19  C   UNL     1       1.614   8.439  19.784  0.00  0.00    +0.000 A 
ATOM     20  C   UNL     1       1.432   7.690  20.956  0.00  0.00    +0.000 A 
ATOM     21  C   UNL     1       0.781   8.232  22.073  0.00  0.00    +0.000 A 
ATOM     22  C   UNL     1       0.302   9.544  22.071  0.00  0.00    +0.000 A 
ATOM     23  C   UNL     1       0.489  10.303  20.910  0.00  0.00    +0.000 A 
ATOM     24  C   UNL     1       1.135   9.756  19.780  0.00  0.00    +0.000 A 
BRANCH  22  25
ATOM     25  N   UNL     1      -0.418   9.968  23.206  0.00  0.00    +0.000 NA
ATOM     26  C   UNL     1      -1.103  10.913  23.079  0.00  0.00    +0.000 C 
ATOM     27  S   UNL     1      -2.058  12.183  22.959  0.00  0.00    +0.000 S 
ENDBRANCH  22  25
BRANCH  24  28
ATOM     28  S   UNL     1       1.257  10.833  18.378  0.00  0.00    +0.000 S 
ATOM     29  O   UNL     1       1.557  12.150  18.895  0.00  0.00    +0.000 OA
ATOM     30  O   UNL     1       2.103  10.185  17.391  0.00  0.00    +0.000 OA
BRANCH  28  31
ATOM     31  O   UNL     1      -0.225  10.922  17.752  0.00  0.00    +0.000 OA
ATOM     32  H   UNL     1      -0.194  10.499  16.871  0.00  0.00    +0.000 HD
ENDBRANCH  28  31
ENDBRANCH  24  28
ENDBRANCH  18  19
ENDBRANCH   4  17
TORSDOF 8
ENDMDL
MODEL 7
REMARK VINA RESULT:      -7.5      1.252      1.951
REMARK  Name = 
REMARK  9 active torsions:
REMARK  status: ('A' for Active; 'I' for Inactive)
REMARK    1  A    between atoms: C_1  and  C_2
REMARK    2  A    between atoms: N_4  and  C_5
REMARK    3  A    between atoms: C_8  and  C_9
REMARK    4  A    between atoms: C_10  and  C_11
REMARK    5  A    between atoms: C_14  and  N_15
REMARK    6  A    between atoms: C_19  and  S_20
REMARK    7  A    between atoms: S_20  and  O_23
REMARK    8  A    between atoms: C_24  and  S_25
REMARK    9  A    between atoms: S_25  and  O_28
REMARK                            x       y       z     vdW  Elec       q    Type
REMARK                         _______ _______ _______ _____ _____    ______ ____
ROOT
ATOM      1  C   UNL     1       4.608   5.005  16.771  0.00  0.00    +0.000 A 
ATOM      2  C   UNL     1       4.527   6.396  16.762  0.00  0.00    +0.000 A 
ATOM      3  C   UNL     1       3.787   7.089  17.728  0.00  0.00    +0.000 A 
ATOM      4  C   UNL     1       3.099   6.408  18.741  0.00  0.00    +0.000 A 
ATOM      5  C   UNL     1       3.175   5.004  18.742  0.00  0.00    +0.000 A 
ATOM      6  C   UNL     1       3.908   4.308  17.755  0.00  0.00    +0.000 A 
ENDROOT
BRANCH   1  10
ATOM      7  C   UNL     1       6.676   3.767  13.863  0.00  0.00    +0.000 C 
ATOM      8  C   UNL     1       6.009   4.807  14.726  0.00  0.00    +0.000 C 
ATOM      9  O   UNL     1       6.086   5.997  14.435  0.00  0.00    +0.000 OA
ATOM     10  N   UNL     1       5.357   4.270  15.824  0.00  0.00    +0.000 N 
ATOM     11  H   UNL     1       5.528   3.294  16.029  0.00  0.00    +0.000 HD
ENDBRANCH   1  10
BRANCH   5  12
ATOM     12  S   UNL     1       2.357   4.010  19.964  0.00  0.00    +0.000 S 
ATOM     13  O   UNL     1       0.939   4.041  19.673  0.00  0.00    +0.000 OA
ATOM     14  O   UNL     1       3.084   2.764  20.074  0.00  0.00    +0.000 OA
BRANCH  12  15
ATOM     15  O   UNL     1       2.495   4.812  21.354  0.00  0.00    +0.000 OA
ATOM     16  H   UNL     1       1.968   5.634  21.273  0.00  0.00    +0.000 HD
ENDBRANCH  12  15
ENDBRANCH   5  12
BRANCH   4  17
ATOM     17  C   UNL     1       2.321   7.214  19.695  0.00  0.00    +0.000 C 
ATOM     18  C   UNL     1       1.409   8.132  19.330  0.00  0.00    +0.000 C 
BRANCH  18  19
ATOM     19  C   UNL     1       0.813   9.045  20.321  0.00  0.00    +0.000 A 
ATOM     20  C   UNL     1       0.870   8.590  21.648  0.00  0.00    +0.000 A 
ATOM     21  C   UNL     1       0.268   9.307  22.690  0.00  0.00    +0.000 A 
ATOM     22  C   UNL     1      -0.399  10.513  22.455  0.00  0.00    +0.000 A 
ATOM     23  C   UNL     1      -0.451  10.980  21.138  0.00  0.00    +0.000 A 
ATOM     24  C   UNL     1       0.145  10.254  20.084  0.00  0.00    +0.000 A 
BRANCH  22  25
ATOM     25  N   UNL     1      -1.049  11.113  23.553  0.00  0.00    +0.000 NA
ATOM     26  C   UNL     1      -2.019  11.733  23.321  0.00  0.00    +0.000 C 
ATOM     27  S   UNL     1      -3.347  12.575  23.067  0.00  0.00    +0.000 S 
ENDBRANCH  22  25
BRANCH  24  28
ATOM     28  S   UNL     1      -0.045  10.961  18.470  0.00  0.00    +0.000 S 
ATOM     29  O   UNL     1      -0.875  10.047  17.715  0.00  0.00    +0.000 OA
ATOM     30  O   UNL     1      -0.398  12.360  18.635  0.00  0.00    +0.000 OA
BRANCH  28  31
ATOM     31  O   UNL     1       1.413  10.914  17.786  0.00  0.00    +0.000 OA
ATOM     32  H   UNL     1       1.641  11.827  17.524  0.00  0.00    +0.000 HD
ENDBRANCH  28  31
ENDBRANCH  24  28
ENDBRANCH  18  19
ENDBRANCH   4  17
TORSDOF 8
ENDMDL
MODEL 8
REMARK VINA RESULT:      -7.5      1.353      1.954
REMARK  Name = 
REMARK  9 active torsions:
REMARK  status: ('A' for Active; 'I' for Inactive)
REMARK    1  A    between atoms: C_1  and  C_2
REMARK    2  A    between atoms: N_4  and  C_5
REMARK    3  A    between atoms: C_8  and  C_9
REMARK    4  A    between atoms: C_10  and  C_11
REMARK    5  A    between atoms: C_14  and  N_15
REMARK    6  A    between atoms: C_19  and  S_20
REMARK    7  A    between atoms: S_20  and  O_23
REMARK    8  A    between atoms: C_24  and  S_25
REMARK    9  A    between atoms: S_25  and  O_28
REMARK                            x       y       z     vdW  Elec       q    Type
REMARK                         _______ _______ _______ _____ _____    ______ ____
ROOT
ATOM      1  C   UNL     1       4.503   5.455  16.704  0.00  0.00    +0.000 A 
ATOM      2  C   UNL     1       4.360   6.841  16.687  0.00  0.00    +0.000 A 
ATOM      3  C   UNL     1       3.632   7.511  17.679  0.00  0.00    +0.000 A 
ATOM      4  C   UNL     1       3.019   6.810  18.726  0.00  0.00    +0.000 A 
ATOM      5  C   UNL     1       3.158   5.412  18.735  0.00  0.00    +0.000 A 
ATOM      6  C   UNL     1       3.878   4.738  17.723  0.00  0.00    +0.000 A 
ENDROOT
BRANCH   1  10
ATOM      7  C   UNL     1       7.047   4.129  14.248  0.00  0.00    +0.000 C 
ATOM      8  C   UNL     1       6.546   5.023  15.353  0.00  0.00    +0.000 C 
ATOM      9  O   UNL     1       7.275   5.883  15.835  0.00  0.00    +0.000 OA
ATOM     10  N   UNL     1       5.242   4.745  15.731  0.00  0.00    +0.000 N 
ATOM     11  H   UNL     1       4.829   3.895  15.368  0.00  0.00    +0.000 HD
ENDBRANCH   1  10
BRANCH   5  12
ATOM     12  S   UNL     1       2.438   4.395  20.000  0.00  0.00    +0.000 S 
ATOM     13  O   UNL     1       1.012   4.337  19.754  0.00  0.00    +0.000 OA
ATOM     14  O   UNL     1       3.240   3.196  20.108  0.00  0.00    +0.000 OA
BRANCH  12  15
ATOM     15  O   UNL     1       2.570   5.230  21.371  0.00  0.00    +0.000 OA
ATOM     16  H   UNL     1       1.722   5.701  21.512  0.00  0.00    +0.000 HD
ENDBRANCH  12  15
ENDBRANCH   5  12
BRANCH   4  17
ATOM     17  C   UNL     1       2.248   7.592  19.707  0.00  0.00    +0.000 C 
ATOM     18  C   UNL     1       1.209   8.380  19.383  0.00  0.00    +0.000 C 
BRANCH  18  19
ATOM     19  C   UNL     1       0.608   9.289  20.377  0.00  0.00    +0.000 A 
ATOM     20  C   UNL     1       0.364   8.709  21.631  0.00  0.00    +0.000 A 
ATOM     21  C   UNL     1      -0.283   9.422  22.649  0.00  0.00    +0.000 A 
ATOM     22  C   UNL     1      -0.694  10.745  22.465  0.00  0.00    +0.000 A 
ATOM     23  C   UNL     1      -0.443  11.336  21.222  0.00  0.00    +0.000 A 
ATOM     24  C   UNL     1       0.198  10.616  20.190  0.00  0.00    +0.000 A 
BRANCH  22  25
ATOM     25  N   UNL     1      -1.416  11.347  23.516  0.00  0.00    +0.000 NA
ATOM     26  C   UNL     1      -1.568  12.510  23.457  0.00  0.00    +0.000 C 
ATOM     27  S   UNL     1      -1.817  14.083  23.422  0.00  0.00    +0.000 S 
ENDBRANCH  22  25
BRANCH  24  28
ATOM     28  S   UNL     1       0.404  11.493  18.664  0.00  0.00    +0.000 S 
ATOM     29  O   UNL     1      -0.259  12.769  18.830  0.00  0.00    +0.000 OA
ATOM     30  O   UNL     1       1.802  11.401  18.282  0.00  0.00    +0.000 OA
BRANCH  28  31
ATOM     31  O   UNL     1      -0.447  10.683  17.563  0.00  0.00    +0.000 OA
ATOM     32  H   UNL     1      -1.386  10.725  17.832  0.00  0.00    +0.000 HD
ENDBRANCH  28  31
ENDBRANCH  24  28
ENDBRANCH  18  19
ENDBRANCH   4  17
TORSDOF 8
ENDMDL
MODEL 9
REMARK VINA RESULT:      -7.5      2.629      9.367
REMARK  Name = 
REMARK  9 active torsions:
REMARK  status: ('A' for Active; 'I' for Inactive)
REMARK    1  A    between atoms: C_1  and  C_2
REMARK    2  A    between atoms: N_4  and  C_5
REMARK    3  A    between atoms: C_8  and  C_9
REMARK    4  A    between atoms: C_10  and  C_11
REMARK    5  A    between atoms: C_14  and  N_15
REMARK    6  A    between atoms: C_19  and  S_20
REMARK    7  A    between atoms: S_20  and  O_23
REMARK    8  A    between atoms: C_24  and  S_25
REMARK    9  A    between atoms: S_25  and  O_28
REMARK                            x       y       z     vdW  Elec       q    Type
REMARK                         _______ _______ _______ _____ _____    ______ ____
ROOT
ATOM      1  C   UNL     1      -0.758  10.834  22.339  0.00  0.00    +0.000 A 
ATOM      2  C   UNL     1      -0.062   9.772  22.914  0.00  0.00    +0.000 A 
ATOM      3  C   UNL     1       0.753   8.933  22.144  0.00  0.00    +0.000 A 
ATOM      4  C   UNL     1       0.898   9.129  20.764  0.00  0.00    +0.000 A 
ATOM      5  C   UNL     1       0.188  10.195  20.186  0.00  0.00    +0.000 A 
ATOM      6  C   UNL     1      -0.647  11.029  20.963  0.00  0.00    +0.000 A 
ENDROOT
BRANCH   1  10
ATOM      7  C   UNL     1      -2.393  13.744  24.105  0.00  0.00    +0.000 C 
ATOM      8  C   UNL     1      -1.394  13.082  23.192  0.00  0.00    +0.000 C 
ATOM      9  O   UNL     1      -0.537  13.749  22.621  0.00  0.00    +0.000 OA
ATOM     10  N   UNL     1      -1.576  11.713  23.084  0.00  0.00    +0.000 N 
ATOM     11  H   UNL     1      -2.429  11.330  23.472  0.00  0.00    +0.000 HD
ENDBRANCH   1  10
BRANCH   5  12
ATOM     12  S   UNL     1       0.277  10.565  18.451  0.00  0.00    +0.000 S 
ATOM     13  O   UNL     1       0.122   9.319  17.731  0.00  0.00    +0.000 OA
ATOM     14  O   UNL     1      -0.583  11.701  18.200  0.00  0.00    +0.000 OA
BRANCH  12  15
ATOM     15  O   UNL     1       1.802  11.000  18.168  0.00  0.00    +0.000 OA
ATOM     16  H   UNL     1       2.316  10.182  18.001  0.00  0.00    +0.000 HD
ENDBRANCH  12  15
ENDBRANCH   5  12
BRANCH   4  17
ATOM     17  C   UNL     1       1.749   8.180  20.028  0.00  0.00    +0.000 C 
ATOM     18  C   UNL     1       1.793   6.861  20.285  0.00  0.00    +0.000 C 
BRANCH  18  19
ATOM     19  C   UNL     1       2.809   5.999  19.653  0.00  0.00    +0.000 A 
ATOM     20  C   UNL     1       3.727   6.676  18.836  0.00  0.00    +0.000 A 
ATOM     21  C   UNL     1       4.696   5.982  18.100  0.00  0.00    +0.000 A 
ATOM     22  C   UNL     1       4.801   4.589  18.163  0.00  0.00    +0.000 A 
ATOM     23  C   UNL     1       3.897   3.907  18.985  0.00  0.00    +0.000 A 
ATOM     24  C   UNL     1       2.912   4.603  19.719  0.00  0.00    +0.000 A 
BRANCH  22  25
ATOM     25  N   UNL     1       5.748   3.976  17.318  0.00  0.00    +0.000 NA
ATOM     26  C   UNL     1       5.669   4.214  16.171  0.00  0.00    +0.000 C 
ATOM     27  S   UNL     1       5.618   4.512  14.607  0.00  0.00    +0.000 S 
ENDBRANCH  22  25
BRANCH  24  28
ATOM     28  S   UNL     1       1.821   3.590  20.679  0.00  0.00    +0.000 S 
ATOM     29  O   UNL     1       2.293   3.656  22.045  0.00  0.00    +0.000 OA
ATOM     30  O   UNL     1       0.458   3.941  20.322  0.00  0.00    +0.000 OA
BRANCH  28  31
ATOM     31  O   UNL     1       2.069   2.076  20.190  0.00  0.00    +0.000 OA
ATOM     32  H   UNL     1       2.459   1.587  20.941  0.00  0.00    +0.000 HD
ENDBRANCH  28  31
ENDBRANCH  24  28
ENDBRANCH  18  19
ENDBRANCH   4  17
TORSDOF 8
ENDMDL
