MODEL 1
REMARK VINA RESULT:      -6.9      0.000      0.000
REMARK  Name = 
REMARK  9 active torsions:
REMARK  status: ('A' for Active; 'I' for Inactive)
REMARK    1  A    between atoms: C_1  and  C_2
REMARK    2  A    between atoms: C_2  and  O_3
REMARK    3  A    between atoms: O_3  and  C_4
REMARK    4  A    between atoms: C_7  and  C_8
REMARK    5  A    between atoms: C_8  and  C_10
REMARK    6  A    between atoms: C_10  and  C_11
REMARK    7  A    between atoms: C_10  and  O_12
REMARK    8  A    between atoms: O_12  and  C_13
REMARK    9  A    between atoms: C_13  and  C_15
REMARK                            x       y       z     vdW  Elec       q    Type
REMARK                         _______ _______ _______ _____ _____    ______ ____
ROOT
ATOM      1  C   UNL     1       4.141   4.109  19.302  0.00  0.00    +0.000 C 
ATOM      2  C   UNL     1       4.256   2.789  20.060  0.00  0.00    +0.000 C 
ENDROOT
BRANCH   1   3
ATOM      3  C   UNL     1       5.527   4.610  18.859  0.00  0.00    +0.000 C 
ATOM      4  O   UNL     1       6.358   5.043  19.658  0.00  0.00    +0.000 OA
BRANCH   3   8
ATOM      5  C   UNL     1       6.445   4.471  14.655  0.00  0.00    +0.000 A 
ATOM      6  C   UNL     1       5.230   3.991  15.143  0.00  0.00    +0.000 A 
ATOM      7  C   UNL     1       4.956   4.019  16.513  0.00  0.00    +0.000 A 
ATOM      8  C   UNL     1       5.902   4.525  17.412  0.00  0.00    +0.000 A 
ATOM      9  C   UNL     1       7.146   4.947  16.927  0.00  0.00    +0.000 A 
ATOM     10  C   UNL     1       7.416   4.918  15.552  0.00  0.00    +0.000 A 
BRANCH   5  11
ATOM     11  O   UNL     1       6.578   4.442  13.295  0.00  0.00    +0.000 OA
BRANCH  11  13
ATOM     12  C   UNL     1       4.979   3.442  11.836  0.00  0.00    +0.000 C 
ATOM     13  C   UNL     1       6.238   3.211  12.654  0.00  0.00    +0.000 C 
ENDBRANCH  11  13
ENDBRANCH   5  11
ENDBRANCH   3   8
ENDBRANCH   1   3
BRANCH   1  14
ATOM     14  O   UNL     1       3.520   5.035  20.210  0.00  0.00    +0.000 OA
BRANCH  14  15
ATOM     15  C   UNL     1       2.195   5.259  19.997  0.00  0.00    +0.000 C 
ATOM     16  O   UNL     1       1.347   4.386  19.902  0.00  0.00    +0.000 OA
BRANCH  15  17
ATOM     17  C   UNL     1       1.926   6.733  19.963  0.00  0.00    +0.000 A 
ATOM     18  N   UNL     1       1.277   7.236  21.059  0.00  0.00    +0.000 NA
ATOM     19  C   UNL     1       0.953   8.542  21.030  0.00  0.00    +0.000 A 
ATOM     20 CL   UNL     1       0.125   9.108  22.419  0.00  0.00    +0.000 Cl
ATOM     21  C   UNL     1       1.228   9.391  19.973  0.00  0.00    +0.000 A 
ATOM     22  C   UNL     1       1.895   8.865  18.870  0.00  0.00    +0.000 A 
ATOM     23  C   UNL     1       2.258   7.512  18.854  0.00  0.00    +0.000 A 
ATOM     24 CL   UNL     1       3.104   6.945  17.467  0.00  0.00    +0.000 Cl
ENDBRANCH  15  17
ENDBRANCH  14  15
ENDBRANCH   1  14
TORSDOF 7
ENDMDL
MODEL 2
REMARK VINA RESULT:      -6.9      2.313      3.577
REMARK  Name = 
REMARK  9 active torsions:
REMARK  status: ('A' for Active; 'I' for Inactive)
REMARK    1  A    between atoms: C_1  and  C_2
REMARK    2  A    between atoms: C_2  and  O_3
REMARK    3  A    between atoms: O_3  and  C_4
REMARK    4  A    between atoms: C_7  and  C_8
REMARK    5  A    between atoms: C_8  and  C_10
REMARK    6  A    between atoms: C_10  and  C_11
REMARK    7  A    between atoms: C_10  and  O_12
REMARK    8  A    between atoms: O_12  and  C_13
REMARK    9  A    between atoms: C_13  and  C_15
REMARK                            x       y       z     vdW  Elec       q    Type
REMARK                         _______ _______ _______ _____ _____    ______ ____
ROOT
ATOM      1  C   UNL     1       5.570   6.016  17.139  0.00  0.00    +0.000 C 
ATOM      2  C   UNL     1       4.499   6.915  16.528  0.00  0.00    +0.000 C 
ENDROOT
BRANCH   1   3
ATOM      3  C   UNL     1       6.742   5.816  16.162  0.00  0.00    +0.000 C 
ATOM      4  O   UNL     1       7.875   6.241  16.396  0.00  0.00    +0.000 OA
BRANCH   3   8
ATOM      5  C   UNL     1       5.909   3.653  12.535  0.00  0.00    +0.000 A 
ATOM      6  C   UNL     1       5.102   3.505  13.663  0.00  0.00    +0.000 A 
ATOM      7  C   UNL     1       5.400   4.194  14.841  0.00  0.00    +0.000 A 
ATOM      8  C   UNL     1       6.516   5.037  14.905  0.00  0.00    +0.000 A 
ATOM      9  C   UNL     1       7.361   5.134  13.793  0.00  0.00    +0.000 A 
ATOM     10  C   UNL     1       7.058   4.441  12.612  0.00  0.00    +0.000 A 
BRANCH   5  11
ATOM     11  O   UNL     1       5.490   2.971  11.427  0.00  0.00    +0.000 OA
BRANCH  11  13
ATOM     12  C   UNL     1       3.592   3.870  10.297  0.00  0.00    +0.000 C 
ATOM     13  C   UNL     1       4.077   2.816  11.278  0.00  0.00    +0.000 C 
ENDBRANCH  11  13
ENDBRANCH   5  11
ENDBRANCH   3   8
ENDBRANCH   1   3
BRANCH   1  14
ATOM     14  O   UNL     1       4.920   4.767  17.432  0.00  0.00    +0.000 OA
BRANCH  14  15
ATOM     15  C   UNL     1       4.976   4.373  18.733  0.00  0.00    +0.000 C 
ATOM     16  O   UNL     1       6.006   4.148  19.349  0.00  0.00    +0.000 OA
BRANCH  15  17
ATOM     17  C   UNL     1       3.594   4.321  19.310  0.00  0.00    +0.000 A 
ATOM     18  N   UNL     1       3.114   5.509  19.790  0.00  0.00    +0.000 NA
ATOM     19  C   UNL     1       1.906   5.485  20.383  0.00  0.00    +0.000 A 
ATOM     20 CL   UNL     1       1.368   6.997  20.982  0.00  0.00    +0.000 Cl
ATOM     21  C   UNL     1       1.136   4.346  20.538  0.00  0.00    +0.000 A 
ATOM     22  C   UNL     1       1.636   3.148  20.037  0.00  0.00    +0.000 A 
ATOM     23  C   UNL     1       2.886   3.122  19.408  0.00  0.00    +0.000 A 
ATOM     24 CL   UNL     1       3.422   1.607  18.791  0.00  0.00    +0.000 Cl
ENDBRANCH  15  17
ENDBRANCH  14  15
ENDBRANCH   1  14
TORSDOF 7
ENDMDL
MODEL 3
REMARK VINA RESULT:      -6.8      2.320      3.593
REMARK  Name = 
REMARK  9 active torsions:
REMARK  status: ('A' for Active; 'I' for Inactive)
REMARK    1  A    between atoms: C_1  and  C_2
REMARK    2  A    between atoms: C_2  and  O_3
REMARK    3  A    between atoms: O_3  and  C_4
REMARK    4  A    between atoms: C_7  and  C_8
REMARK    5  A    between atoms: C_8  and  C_10
REMARK    6  A    between atoms: C_10  and  C_11
REMARK    7  A    between atoms: C_10  and  O_12
REMARK    8  A    between atoms: O_12  and  C_13
REMARK    9  A    between atoms: C_13  and  C_15
REMARK                            x       y       z     vdW  Elec       q    Type
REMARK                         _______ _______ _______ _____ _____    ______ ____
ROOT
ATOM      1  C   UNL     1       6.027   5.918  16.891  0.00  0.00    +0.000 C 
ATOM      2  C   UNL     1       5.293   6.803  15.887  0.00  0.00    +0.000 C 
ENDROOT
BRANCH   1   3
ATOM      3  C   UNL     1       6.975   4.941  16.172  0.00  0.00    +0.000 C 
ATOM      4  O   UNL     1       7.992   4.497  16.706  0.00  0.00    +0.000 OA
BRANCH   3   8
ATOM      5  C   UNL     1       5.796   3.682  12.228  0.00  0.00    +0.000 A 
ATOM      6  C   UNL     1       5.049   3.325  13.351  0.00  0.00    +0.000 A 
ATOM      7  C   UNL     1       5.458   3.719  14.627  0.00  0.00    +0.000 A 
ATOM      8  C   UNL     1       6.626   4.473  14.794  0.00  0.00    +0.000 A 
ATOM      9  C   UNL     1       7.408   4.775  13.672  0.00  0.00    +0.000 A 
ATOM     10  C   UNL     1       6.993   4.378  12.394  0.00  0.00    +0.000 A 
BRANCH   5  11
ATOM     11  O   UNL     1       5.270   3.285  11.030  0.00  0.00    +0.000 OA
BRANCH  11  13
ATOM     12  C   UNL     1       3.228   4.000  10.028  0.00  0.00    +0.000 C 
ATOM     13  C   UNL     1       3.863   3.032  11.011  0.00  0.00    +0.000 C 
ENDBRANCH  11  13
ENDBRANCH   5  11
ENDBRANCH   3   8
ENDBRANCH   1   3
BRANCH   1  14
ATOM     14  O   UNL     1       5.007   5.212  17.618  0.00  0.00    +0.000 OA
BRANCH  14  15
ATOM     15  C   UNL     1       5.134   5.237  18.973  0.00  0.00    +0.000 C 
ATOM     16  O   UNL     1       6.190   5.376  19.571  0.00  0.00    +0.000 OA
BRANCH  15  17
ATOM     17  C   UNL     1       3.784   5.138  19.613  0.00  0.00    +0.000 A 
ATOM     18  N   UNL     1       3.565   4.003  20.347  0.00  0.00    +0.000 NA
ATOM     19  C   UNL     1       2.336   3.845  20.875  0.00  0.00    +0.000 A 
ATOM     20 CL   UNL     1       2.117   2.398  21.765  0.00  0.00    +0.000 Cl
ATOM     21  C   UNL     1       1.298   4.745  20.717  0.00  0.00    +0.000 A 
ATOM     22  C   UNL     1       1.540   5.897  19.974  0.00  0.00    +0.000 A 
ATOM     23  C   UNL     1       2.803   6.109  19.408  0.00  0.00    +0.000 A 
ATOM     24 CL   UNL     1       3.031   7.570  18.527  0.00  0.00    +0.000 Cl
ENDBRANCH  15  17
ENDBRANCH  14  15
ENDBRANCH   1  14
TORSDOF 7
ENDMDL
MODEL 4
REMARK VINA RESULT:      -6.8      2.510      3.931
REMARK  Name = 
REMARK  9 active torsions:
REMARK  status: ('A' for Active; 'I' for Inactive)
REMARK    1  A    between atoms: C_1  and  C_2
REMARK    2  A    between atoms: C_2  and  O_3
REMARK    3  A    between atoms: O_3  and  C_4
REMARK    4  A    between atoms: C_7  and  C_8
REMARK    5  A    between atoms: C_8  and  C_10
REMARK    6  A    between atoms: C_10  and  C_11
REMARK    7  A    between atoms: C_10  and  O_12
REMARK    8  A    between atoms: O_12  and  C_13
REMARK    9  A    between atoms: C_13  and  C_15
REMARK                            x       y       z     vdW  Elec       q    Type
REMARK                         _______ _______ _______ _____ _____    ______ ____
ROOT
ATOM      1  C   UNL     1       6.466   5.344  18.034  0.00  0.00    +0.000 C 
ATOM      2  C   UNL     1       7.708   5.256  18.917  0.00  0.00    +0.000 C 
ENDROOT
BRANCH   1   3
ATOM      3  C   UNL     1       6.783   6.067  16.712  0.00  0.00    +0.000 C 
ATOM      4  O   UNL     1       7.196   7.227  16.678  0.00  0.00    +0.000 OA
BRANCH   3   8
ATOM      5  C   UNL     1       6.177   4.018  12.975  0.00  0.00    +0.000 A 
ATOM      6  C   UNL     1       5.246   3.920  14.009  0.00  0.00    +0.000 A 
ATOM      7  C   UNL     1       5.468   4.570  15.226  0.00  0.00    +0.000 A 
ATOM      8  C   UNL     1       6.632   5.322  15.423  0.00  0.00    +0.000 A 
ATOM      9  C   UNL     1       7.595   5.366  14.407  0.00  0.00    +0.000 A 
ATOM     10  C   UNL     1       7.367   4.714  13.188  0.00  0.00    +0.000 A 
BRANCH   5  11
ATOM     11  O   UNL     1       5.826   3.385  11.815  0.00  0.00    +0.000 OA
BRANCH  11  13
ATOM     12  C   UNL     1       3.800   3.604  10.579  0.00  0.00    +0.000 C 
ATOM     13  C   UNL     1       4.483   2.903  11.740  0.00  0.00    +0.000 C 
ENDBRANCH  11  13
ENDBRANCH   5  11
ENDBRANCH   3   8
ENDBRANCH   1   3
BRANCH   1  14
ATOM     14  O   UNL     1       5.486   6.067  18.799  0.00  0.00    +0.000 OA
BRANCH  14  15
ATOM     15  C   UNL     1       4.218   6.026  18.305  0.00  0.00    +0.000 C 
ATOM     16  O   UNL     1       3.789   6.757  17.427  0.00  0.00    +0.000 OA
BRANCH  15  17
ATOM     17  C   UNL     1       3.455   4.912  18.954  0.00  0.00    +0.000 A 
ATOM     18  N   UNL     1       3.820   3.650  18.570  0.00  0.00    +0.000 NA
ATOM     19  C   UNL     1       3.105   2.627  19.076  0.00  0.00    +0.000 A 
ATOM     20 CL   UNL     1       3.595   1.074  18.543  0.00  0.00    +0.000 Cl
ATOM     21  C   UNL     1       2.037   2.775  19.942  0.00  0.00    +0.000 A 
ATOM     22  C   UNL     1       1.684   4.065  20.328  0.00  0.00    +0.000 A 
ATOM     23  C   UNL     1       2.400   5.162  19.833  0.00  0.00    +0.000 A 
ATOM     24 CL   UNL     1       1.919   6.722  20.379  0.00  0.00    +0.000 Cl
ENDBRANCH  15  17
ENDBRANCH  14  15
ENDBRANCH   1  14
TORSDOF 7
ENDMDL
MODEL 5
REMARK VINA RESULT:      -6.8      2.269      3.321
REMARK  Name = 
REMARK  9 active torsions:
REMARK  status: ('A' for Active; 'I' for Inactive)
REMARK    1  A    between atoms: C_1  and  C_2
REMARK    2  A    between atoms: C_2  and  O_3
REMARK    3  A    between atoms: O_3  and  C_4
REMARK    4  A    between atoms: C_7  and  C_8
REMARK    5  A    between atoms: C_8  and  C_10
REMARK    6  A    between atoms: C_10  and  C_11
REMARK    7  A    between atoms: C_10  and  O_12
REMARK    8  A    between atoms: O_12  and  C_13
REMARK    9  A    between atoms: C_13  and  C_15
REMARK                            x       y       z     vdW  Elec       q    Type
REMARK                         _______ _______ _______ _____ _____    ______ ____
ROOT
ATOM      1  C   UNL     1       6.943   4.723  18.244  0.00  0.00    +0.000 C 
ATOM      2  C   UNL     1       8.274   5.166  18.846  0.00  0.00    +0.000 C 
ENDROOT
BRANCH   1   3
ATOM      3  C   UNL     1       6.556   5.614  17.050  0.00  0.00    +0.000 C 
ATOM      4  O   UNL     1       6.265   6.804  17.183  0.00  0.00    +0.000 OA
BRANCH   3   8
ATOM      5  C   UNL     1       6.441   4.009  13.057  0.00  0.00    +0.000 A 
ATOM      6  C   UNL     1       5.499   3.629  14.013  0.00  0.00    +0.000 A 
ATOM      7  C   UNL     1       5.564   4.139  15.313  0.00  0.00    +0.000 A 
ATOM      8  C   UNL     1       6.580   5.033  15.671  0.00  0.00    +0.000 A 
ATOM      9  C   UNL     1       7.562   5.363  14.729  0.00  0.00    +0.000 A 
ATOM     10  C   UNL     1       7.492   4.850  13.426  0.00  0.00    +0.000 A 
BRANCH   5  11
ATOM     11  O   UNL     1       6.245   3.488  11.809  0.00  0.00    +0.000 OA
BRANCH  11  13
ATOM     12  C   UNL     1       6.327   1.214  11.098  0.00  0.00    +0.000 C 
ATOM     13  C   UNL     1       5.469   2.290  11.740  0.00  0.00    +0.000 C 
ENDBRANCH  11  13
ENDBRANCH   5  11
ENDBRANCH   3   8
ENDBRANCH   1   3
BRANCH   1  14
ATOM     14  O   UNL     1       5.975   4.825  19.303  0.00  0.00    +0.000 OA
BRANCH  14  15
ATOM     15  C   UNL     1       5.035   3.841  19.328  0.00  0.00    +0.000 C 
ATOM     16  O   UNL     1       5.189   2.743  19.838  0.00  0.00    +0.000 OA
BRANCH  15  17
ATOM     17  C   UNL     1       3.767   4.333  18.700  0.00  0.00    +0.000 A 
ATOM     18  N   UNL     1       3.537   5.677  18.817  0.00  0.00    +0.000 NA
ATOM     19  C   UNL     1       2.371   6.142  18.329  0.00  0.00    +0.000 A 
ATOM     20 CL   UNL     1       2.132   7.827  18.522  0.00  0.00    +0.000 Cl
ATOM     21  C   UNL     1       1.405   5.353  17.732  0.00  0.00    +0.000 A 
ATOM     22  C   UNL     1       1.658   3.989  17.614  0.00  0.00    +0.000 A 
ATOM     23  C   UNL     1       2.859   3.457  18.102  0.00  0.00    +0.000 A 
ATOM     24 CL   UNL     1       3.109   1.767  17.895  0.00  0.00    +0.000 Cl
ENDBRANCH  15  17
ENDBRANCH  14  15
ENDBRANCH   1  14
TORSDOF 7
ENDMDL
MODEL 6
REMARK VINA RESULT:      -6.8      2.615      3.945
REMARK  Name = 
REMARK  9 active torsions:
REMARK  status: ('A' for Active; 'I' for Inactive)
REMARK    1  A    between atoms: C_1  and  C_2
REMARK    2  A    between atoms: C_2  and  O_3
REMARK    3  A    between atoms: O_3  and  C_4
REMARK    4  A    between atoms: C_7  and  C_8
REMARK    5  A    between atoms: C_8  and  C_10
REMARK    6  A    between atoms: C_10  and  C_11
REMARK    7  A    between atoms: C_10  and  O_12
REMARK    8  A    between atoms: O_12  and  C_13
REMARK    9  A    between atoms: C_13  and  C_15
REMARK                            x       y       z     vdW  Elec       q    Type
REMARK                         _______ _______ _______ _____ _____    ______ ____
ROOT
ATOM      1  C   UNL     1       3.583   2.303  17.828  0.00  0.00    +0.000 C 
ATOM      2  C   UNL     1       2.766   1.294  18.631  0.00  0.00    +0.000 C 
ENDROOT
BRANCH   1   3
ATOM      3  C   UNL     1       4.563   3.064  18.738  0.00  0.00    +0.000 C 
ATOM      4  O   UNL     1       4.768   2.736  19.908  0.00  0.00    +0.000 OA
BRANCH   3   8
ATOM      5  C   UNL     1       6.931   6.333  17.240  0.00  0.00    +0.000 A 
ATOM      6  C   UNL     1       6.578   6.258  18.587  0.00  0.00    +0.000 A 
ATOM      7  C   UNL     1       5.787   5.205  19.054  0.00  0.00    +0.000 A 
ATOM      8  C   UNL     1       5.336   4.215  18.173  0.00  0.00    +0.000 A 
ATOM      9  C   UNL     1       5.637   4.326  16.810  0.00  0.00    +0.000 A 
ATOM     10  C   UNL     1       6.432   5.384  16.346  0.00  0.00    +0.000 A 
BRANCH   5  11
ATOM     11  O   UNL     1       7.749   7.377  16.910  0.00  0.00    +0.000 OA
BRANCH  11  13
ATOM     12  C   UNL     1       8.615   9.052  18.368  0.00  0.00    +0.000 C 
ATOM     13  C   UNL     1       7.436   8.637  17.506  0.00  0.00    +0.000 C 
ENDBRANCH  11  13
ENDBRANCH   5  11
ENDBRANCH   3   8
ENDBRANCH   1   3
BRANCH   1  14
ATOM     14  O   UNL     1       2.630   3.198  17.229  0.00  0.00    +0.000 OA
BRANCH  14  15
ATOM     15  C   UNL     1       1.539   3.482  17.992  0.00  0.00    +0.000 C 
ATOM     16  O   UNL     1       0.544   2.781  18.073  0.00  0.00    +0.000 OA
BRANCH  15  17
ATOM     17  C   UNL     1       1.773   4.745  18.763  0.00  0.00    +0.000 A 
ATOM     18  N   UNL     1       2.080   5.845  18.009  0.00  0.00    +0.000 NA
ATOM     19  C   UNL     1       2.370   6.979  18.674  0.00  0.00    +0.000 A 
ATOM     20 CL   UNL     1       2.766   8.316  17.677  0.00  0.00    +0.000 Cl
ATOM     21  C   UNL     1       2.381   7.095  20.052  0.00  0.00    +0.000 A 
ATOM     22  C   UNL     1       2.059   5.969  20.804  0.00  0.00    +0.000 A 
ATOM     23  C   UNL     1       1.746   4.766  20.159  0.00  0.00    +0.000 A 
ATOM     24 CL   UNL     1       1.332   3.427  21.157  0.00  0.00    +0.000 Cl
ENDBRANCH  15  17
ENDBRANCH  14  15
ENDBRANCH   1  14
TORSDOF 7
ENDMDL
MODEL 7
REMARK VINA RESULT:      -6.8      3.463      7.201
REMARK  Name = 
REMARK  9 active torsions:
REMARK  status: ('A' for Active; 'I' for Inactive)
REMARK    1  A    between atoms: C_1  and  C_2
REMARK    2  A    between atoms: C_2  and  O_3
REMARK    3  A    between atoms: O_3  and  C_4
REMARK    4  A    between atoms: C_7  and  C_8
REMARK    5  A    between atoms: C_8  and  C_10
REMARK    6  A    between atoms: C_10  and  C_11
REMARK    7  A    between atoms: C_10  and  O_12
REMARK    8  A    between atoms: O_12  and  C_13
REMARK    9  A    between atoms: C_13  and  C_15
REMARK                            x       y       z     vdW  Elec       q    Type
REMARK                         _______ _______ _______ _____ _____    ______ ____
ROOT
ATOM      1  C   UNL     1       5.363   6.729  17.183  0.00  0.00    +0.000 C 
ATOM      2  C   UNL     1       6.330   7.856  17.535  0.00  0.00    +0.000 C 
ENDROOT
BRANCH   1   3
ATOM      3  C   UNL     1       3.911   7.133  17.497  0.00  0.00    +0.000 C 
ATOM      4  O   UNL     1       3.411   8.176  17.074  0.00  0.00    +0.000 OA
BRANCH   3   8
ATOM      5  C   UNL     1       1.568   4.314  19.754  0.00  0.00    +0.000 A 
ATOM      6  C   UNL     1       1.733   4.173  18.377  0.00  0.00    +0.000 A 
ATOM      7  C   UNL     1       2.476   5.110  17.653  0.00  0.00    +0.000 A 
ATOM      8  C   UNL     1       3.057   6.205  18.302  0.00  0.00    +0.000 A 
ATOM      9  C   UNL     1       2.836   6.380  19.674  0.00  0.00    +0.000 A 
ATOM     10  C   UNL     1       2.092   5.437  20.396  0.00  0.00    +0.000 A 
BRANCH   5  11
ATOM     11  O   UNL     1       0.869   3.309  20.362  0.00  0.00    +0.000 OA
BRANCH  11  13
ATOM     12  C   UNL     1       2.732   2.344  21.492  0.00  0.00    +0.000 C 
ATOM     13  C   UNL     1       1.332   2.908  21.653  0.00  0.00    +0.000 C 
ENDBRANCH  11  13
ENDBRANCH   5  11
ENDBRANCH   3   8
ENDBRANCH   1   3
BRANCH   1  14
ATOM     14  O   UNL     1       5.769   5.597  17.972  0.00  0.00    +0.000 OA
BRANCH  14  15
ATOM     15  C   UNL     1       6.875   4.942  17.525  0.00  0.00    +0.000 C 
ATOM     16  O   UNL     1       7.841   4.657  18.213  0.00  0.00    +0.000 OA
BRANCH  15  17
ATOM     17  C   UNL     1       6.697   4.568  16.085  0.00  0.00    +0.000 A 
ATOM     18  N   UNL     1       7.543   5.192  15.208  0.00  0.00    +0.000 NA
ATOM     19  C   UNL     1       7.363   4.936  13.899  0.00  0.00    +0.000 A 
ATOM     20 CL   UNL     1       8.438   5.761  12.850  0.00  0.00    +0.000 Cl
ATOM     21  C   UNL     1       6.385   4.098  13.395  0.00  0.00    +0.000 A 
ATOM     22  C   UNL     1       5.538   3.466  14.301  0.00  0.00    +0.000 A 
ATOM     23  C   UNL     1       5.688   3.696  15.674  0.00  0.00    +0.000 A 
ATOM     24 CL   UNL     1       4.620   2.857  16.730  0.00  0.00    +0.000 Cl
ENDBRANCH  15  17
ENDBRANCH  14  15
ENDBRANCH   1  14
TORSDOF 7
ENDMDL
MODEL 8
REMARK VINA RESULT:      -6.7      1.542      2.003
REMARK  Name = 
REMARK  9 active torsions:
REMARK  status: ('A' for Active; 'I' for Inactive)
REMARK    1  A    between atoms: C_1  and  C_2
REMARK    2  A    between atoms: C_2  and  O_3
REMARK    3  A    between atoms: O_3  and  C_4
REMARK    4  A    between atoms: C_7  and  C_8
REMARK    5  A    between atoms: C_8  and  C_10
REMARK    6  A    between atoms: C_10  and  C_11
REMARK    7  A    between atoms: C_10  and  O_12
REMARK    8  A    between atoms: O_12  and  C_13
REMARK    9  A    between atoms: C_13  and  C_15
REMARK                            x       y       z     vdW  Elec       q    Type
REMARK                         _______ _______ _______ _____ _____    ______ ____
ROOT
ATOM      1  C   UNL     1       2.505   4.176  18.173  0.00  0.00    +0.000 C 
ATOM      2  C   UNL     1       1.275   3.282  18.046  0.00  0.00    +0.000 C 
ENDROOT
BRANCH   1   3
ATOM      3  C   UNL     1       3.798   3.343  18.122  0.00  0.00    +0.000 C 
ATOM      4  O   UNL     1       3.925   2.284  18.740  0.00  0.00    +0.000 OA
BRANCH   3   8
ATOM      5  C   UNL     1       6.920   4.804  15.543  0.00  0.00    +0.000 A 
ATOM      6  C   UNL     1       5.729   4.304  15.019  0.00  0.00    +0.000 A 
ATOM      7  C   UNL     1       4.734   3.809  15.867  0.00  0.00    +0.000 A 
ATOM      8  C   UNL     1       4.926   3.805  17.254  0.00  0.00    +0.000 A 
ATOM      9  C   UNL     1       6.149   4.248  17.774  0.00  0.00    +0.000 A 
ATOM     10  C   UNL     1       7.142   4.744  16.919  0.00  0.00    +0.000 A 
BRANCH   5  11
ATOM     11  O   UNL     1       7.794   5.308  14.621  0.00  0.00    +0.000 OA
BRANCH  11  13
ATOM     12  C   UNL     1       8.331   5.946  12.388  0.00  0.00    +0.000 C 
ATOM     13  C   UNL     1       7.517   5.001  13.253  0.00  0.00    +0.000 C 
ENDBRANCH  11  13
ENDBRANCH   5  11
ENDBRANCH   3   8
ENDBRANCH   1   3
BRANCH   1  14
ATOM     14  O   UNL     1       2.374   4.854  19.435  0.00  0.00    +0.000 OA
BRANCH  14  15
ATOM     15  C   UNL     1       3.258   5.866  19.646  0.00  0.00    +0.000 C 
ATOM     16  O   UNL     1       4.413   5.717  20.013  0.00  0.00    +0.000 OA
BRANCH  15  17
ATOM     17  C   UNL     1       2.624   7.178  19.298  0.00  0.00    +0.000 A 
ATOM     18  N   UNL     1       1.773   7.687  20.242  0.00  0.00    +0.000 NA
ATOM     19  C   UNL     1       1.128   8.827  19.931  0.00  0.00    +0.000 A 
ATOM     20 CL   UNL     1       0.063   9.404  21.143  0.00  0.00    +0.000 Cl
ATOM     21  C   UNL     1       1.267   9.500  18.730  0.00  0.00    +0.000 A 
ATOM     22  C   UNL     1       2.141   8.972  17.785  0.00  0.00    +0.000 A 
ATOM     23  C   UNL     1       2.839   7.790  18.063  0.00  0.00    +0.000 A 
ATOM     24 CL   UNL     1       3.922   7.217  16.854  0.00  0.00    +0.000 Cl
ENDBRANCH  15  17
ENDBRANCH  14  15
ENDBRANCH   1  14
TORSDOF 7
ENDMDL
MODEL 9
REMARK VINA RESULT:      -6.7      2.736      3.734
REMARK  Name = 
REMARK  9 active torsions:
REMARK  status: ('A' for Active; 'I' for Inactive)
REMARK    1  A    between atoms: C_1  and  C_2
REMARK    2  A    between atoms: C_2  and  O_3
REMARK    3  A    between atoms: O_3  and  C_4
REMARK    4  A    between atoms: C_7  and  C_8
REMARK    5  A    between atoms: C_8  and  C_10
REMARK    6  A    between atoms: C_10  and  C_11
REMARK    7  A    between atoms: C_10  and  O_12
REMARK    8  A    between atoms: O_12  and  C_13
REMARK    9  A    between atoms: C_13  and  C_15
REMARK                            x       y       z     vdW  Elec       q    Type
REMARK                         _______ _______ _______ _____ _____    ______ ____
ROOT
ATOM      1  C   UNL     1       7.287   6.180  18.167  0.00  0.00    +0.000 C 
ATOM      2  C   UNL     1       7.577   7.417  17.321  0.00  0.00    +0.000 C 
ENDROOT
BRANCH   1   3
ATOM      3  C   UNL     1       7.668   4.895  17.409  0.00  0.00    +0.000 C 
ATOM      4  O   UNL     1       8.498   4.095  17.843  0.00  0.00    +0.000 OA
BRANCH   3   8
ATOM      5  C   UNL     1       5.834   3.894  13.645  0.00  0.00    +0.000 A 
ATOM      6  C   UNL     1       6.996   4.663  13.697  0.00  0.00    +0.000 A 
ATOM      7  C   UNL     1       7.566   5.002  14.928  0.00  0.00    +0.000 A 
ATOM      8  C   UNL     1       6.972   4.578  16.122  0.00  0.00    +0.000 A 
ATOM      9  C   UNL     1       5.771   3.861  16.069  0.00  0.00    +0.000 A 
ATOM     10  C   UNL     1       5.204   3.522  14.833  0.00  0.00    +0.000 A 
BRANCH   5  11
ATOM     11  O   UNL     1       5.400   3.582  12.387  0.00  0.00    +0.000 OA
BRANCH  11  13
ATOM     12  C   UNL     1       5.921   1.507  11.334  0.00  0.00    +0.000 C 
ATOM     13  C   UNL     1       6.353   2.950  11.529  0.00  0.00    +0.000 C 
ENDBRANCH  11  13
ENDBRANCH   5  11
ENDBRANCH   3   8
ENDBRANCH   1   3
BRANCH   1  14
ATOM     14  O   UNL     1       5.879   6.216  18.453  0.00  0.00    +0.000 OA
BRANCH  14  15
ATOM     15  C   UNL     1       5.427   5.231  19.277  0.00  0.00    +0.000 C 
ATOM     16  O   UNL     1       6.065   4.748  20.199  0.00  0.00    +0.000 OA
BRANCH  15  17
ATOM     17  C   UNL     1       4.014   4.881  18.926  0.00  0.00    +0.000 A 
ATOM     18  N   UNL     1       3.578   3.667  19.386  0.00  0.00    +0.000 NA
ATOM     19  C   UNL     1       2.338   3.287  19.025  0.00  0.00    +0.000 A 
ATOM     20 CL   UNL     1       1.857   1.752  19.615  0.00  0.00    +0.000 Cl
ATOM     21  C   UNL     1       1.494   4.035  18.226  0.00  0.00    +0.000 A 
ATOM     22  C   UNL     1       1.950   5.270  17.772  0.00  0.00    +0.000 A 
ATOM     23  C   UNL     1       3.231   5.713  18.124  0.00  0.00    +0.000 A 
ATOM     24 CL   UNL     1       3.710   7.262  17.547  0.00  0.00    +0.000 Cl
ENDBRANCH  15  17
ENDBRANCH  14  15
ENDBRANCH   1  14
TORSDOF 7
ENDMDL
