MODEL 1
REMARK VINA RESULT:      -7.5      0.000      0.000
REMARK  Name = 
REMARK  4 active torsions:
REMARK  status: ('A' for Active; 'I' for Inactive)
REMARK    1  A    between atoms: C_7  and  N_8
REMARK    2  A    between atoms: N_8  and  C_9
REMARK    3  A    between atoms: C_9  and  C_10
REMARK    4  A    between atoms: C_10  and  C_11
REMARK                            x       y       z     vdW  Elec       q    Type
REMARK                         _______ _______ _______ _____ _____    ______ ____
ROOT
ATOM      1  O   UNL     1       8.081   5.462  13.079  0.00  0.00    +0.000 OA
ATOM      2  C   UNL     1       7.394   5.157  14.052  0.00  0.00    +0.000 C 
ATOM      3  O   UNL     1       7.604   5.764  15.238  0.00  0.00    +0.000 OA
ATOM      4  C   UNL     1       6.896   5.499  16.356  0.00  0.00    +0.000 C 
ATOM      5  O   UNL     1       7.153   6.088  17.403  0.00  0.00    +0.000 OA
ATOM      6  C   UNL     1       5.813   4.486  16.256  0.00  0.00    +0.000 C 
ATOM      7  C   UNL     1       5.052   4.206  17.331  0.00  0.00    +0.000 C 
ATOM      8  C   UNL     1       5.598   3.822  15.003  0.00  0.00    +0.000 C 
ATOM      9  C   UNL     1       6.339   4.126  13.938  0.00  0.00    +0.000 C 
ATOM     10 BR   UNL     1       6.072   3.282  12.293  0.00  0.00    +0.000 Br
ENDROOT
BRANCH   7  11
ATOM     11  N   UNL     1       5.122   4.752  18.586  0.00  0.00    +0.000 N 
ATOM     12  H   UNL     1       5.976   4.543  19.117  0.00  0.00    +0.000 HD
BRANCH  11  13
ATOM     13  C   UNL     1       4.091   5.538  19.235  0.00  0.00    +0.000 C 
BRANCH  13  14
ATOM     14  C   UNL     1       3.086   6.085  18.215  0.00  0.00    +0.000 C 
BRANCH  14  15
ATOM     15  C   UNL     1       2.363   7.329  18.697  0.00  0.00    +0.000 C 
ATOM     16  C   UNL     1       2.136   8.360  17.872  0.00  0.00    +0.000 C 
ATOM     17  C   UNL     1       1.468   9.634  18.259  0.00  0.00    +0.000 C 
ATOM     18  C   UNL     1       0.981   9.756  19.699  0.00  0.00    +0.000 C 
ATOM     19  C   UNL     1       1.226   8.594  20.655  0.00  0.00    +0.000 C 
ATOM     20  C   UNL     1       1.956   7.355  20.141  0.00  0.00    +0.000 C 
ENDBRANCH  14  15
ENDBRANCH  13  14
ENDBRANCH  11  13
ENDBRANCH   7  11
TORSDOF 4
ENDMDL
MODEL 2
REMARK VINA RESULT:      -7.4      2.182      2.945
REMARK  Name = 
REMARK  4 active torsions:
REMARK  status: ('A' for Active; 'I' for Inactive)
REMARK    1  A    between atoms: C_7  and  N_8
REMARK    2  A    between atoms: N_8  and  C_9
REMARK    3  A    between atoms: C_9  and  C_10
REMARK    4  A    between atoms: C_10  and  C_11
REMARK                            x       y       z     vdW  Elec       q    Type
REMARK                         _______ _______ _______ _____ _____    ______ ____
ROOT
ATOM      1  O   UNL     1       7.654   4.876  11.991  0.00  0.00    +0.000 OA
ATOM      2  C   UNL     1       7.180   4.751  13.119  0.00  0.00    +0.000 C 
ATOM      3  O   UNL     1       7.682   5.475  14.140  0.00  0.00    +0.000 OA
ATOM      4  C   UNL     1       7.222   5.409  15.407  0.00  0.00    +0.000 C 
ATOM      5  O   UNL     1       7.737   6.093  16.287  0.00  0.00    +0.000 OA
ATOM      6  C   UNL     1       6.085   4.490  15.676  0.00  0.00    +0.000 C 
ATOM      7  C   UNL     1       5.563   4.409  16.914  0.00  0.00    +0.000 C 
ATOM      8  C   UNL     1       5.560   3.702  14.597  0.00  0.00    +0.000 C 
ATOM      9  C   UNL     1       6.067   3.811  13.369  0.00  0.00    +0.000 C 
ATOM     10 BR   UNL     1       5.395   2.804  11.947  0.00  0.00    +0.000 Br
ENDROOT
BRANCH   7  11
ATOM     11  N   UNL     1       5.939   5.092  18.041  0.00  0.00    +0.000 N 
ATOM     12  H   UNL     1       6.944   5.284  18.132  0.00  0.00    +0.000 HD
BRANCH  11  13
ATOM     13  C   UNL     1       5.065   5.511  19.118  0.00  0.00    +0.000 C 
BRANCH  13  14
ATOM     14  C   UNL     1       3.652   5.806  18.603  0.00  0.00    +0.000 C 
BRANCH  14  15
ATOM     15  C   UNL     1       2.636   4.754  19.010  0.00  0.00    +0.000 C 
ATOM     16  C   UNL     1       2.125   3.901  18.112  0.00  0.00    +0.000 C 
ATOM     17  C   UNL     1       1.101   2.861  18.407  0.00  0.00    +0.000 C 
ATOM     18  C   UNL     1       0.624   2.742  19.851  0.00  0.00    +0.000 C 
ATOM     19  C   UNL     1       1.194   3.700  20.891  0.00  0.00    +0.000 C 
ATOM     20  C   UNL     1       2.214   4.747  20.451  0.00  0.00    +0.000 C 
ENDBRANCH  14  15
ENDBRANCH  13  14
ENDBRANCH  11  13
ENDBRANCH   7  11
TORSDOF 4
ENDMDL
MODEL 3
REMARK VINA RESULT:      -7.3      5.301      6.715
REMARK  Name = 
REMARK  4 active torsions:
REMARK  status: ('A' for Active; 'I' for Inactive)
REMARK    1  A    between atoms: C_7  and  N_8
REMARK    2  A    between atoms: N_8  and  C_9
REMARK    3  A    between atoms: C_9  and  C_10
REMARK    4  A    between atoms: C_10  and  C_11
REMARK                            x       y       z     vdW  Elec       q    Type
REMARK                         _______ _______ _______ _____ _____    ______ ____
ROOT
ATOM      1  O   UNL     1       4.785   2.900  19.629  0.00  0.00    +0.000 OA
ATOM      2  C   UNL     1       5.173   3.919  19.061  0.00  0.00    +0.000 C 
ATOM      3  O   UNL     1       6.364   4.458  19.393  0.00  0.00    +0.000 OA
ATOM      4  C   UNL     1       6.874   5.569  18.820  0.00  0.00    +0.000 C 
ATOM      5  O   UNL     1       7.962   6.007  19.182  0.00  0.00    +0.000 OA
ATOM      6  C   UNL     1       6.071   6.217  17.750  0.00  0.00    +0.000 C 
ATOM      7  C   UNL     1       6.545   7.308  17.119  0.00  0.00    +0.000 C 
ATOM      8  C   UNL     1       4.794   5.660  17.406  0.00  0.00    +0.000 C 
ATOM      9  C   UNL     1       4.346   4.564  18.018  0.00  0.00    +0.000 C 
ATOM     10 BR   UNL     1       2.692   3.813  17.583  0.00  0.00    +0.000 Br
ENDROOT
BRANCH   7  11
ATOM     11  N   UNL     1       7.737   7.954  17.320  0.00  0.00    +0.000 N 
ATOM     12  H   UNL     1       8.580   7.373  17.232  0.00  0.00    +0.000 HD
BRANCH  11  13
ATOM     13  C   UNL     1       7.904   9.345  17.691  0.00  0.00    +0.000 C 
BRANCH  13  14
ATOM     14  C   UNL     1       8.847   9.489  18.891  0.00  0.00    +0.000 C 
BRANCH  14  15
ATOM     15  C   UNL     1       9.613  10.799  18.894  0.00  0.00    +0.000 C 
ATOM     16  C   UNL     1      10.635  11.002  19.736  0.00  0.00    +0.000 C 
ATOM     17  C   UNL     1      11.423  12.261  19.838  0.00  0.00    +0.000 C 
ATOM     18  C   UNL     1      11.053  13.394  18.886  0.00  0.00    +0.000 C 
ATOM     19  C   UNL     1       9.895  13.185  17.916  0.00  0.00    +0.000 C 
ATOM     20  C   UNL     1       9.143  11.857  17.937  0.00  0.00    +0.000 C 
ENDBRANCH  14  15
ENDBRANCH  13  14
ENDBRANCH  11  13
ENDBRANCH   7  11
TORSDOF 4
ENDMDL
MODEL 4
REMARK VINA RESULT:      -7.2      0.508      1.255
REMARK  Name = 
REMARK  4 active torsions:
REMARK  status: ('A' for Active; 'I' for Inactive)
REMARK    1  A    between atoms: C_7  and  N_8
REMARK    2  A    between atoms: N_8  and  C_9
REMARK    3  A    between atoms: C_9  and  C_10
REMARK    4  A    between atoms: C_10  and  C_11
REMARK                            x       y       z     vdW  Elec       q    Type
REMARK                         _______ _______ _______ _____ _____    ______ ____
ROOT
ATOM      1  O   UNL     1       8.050   5.568  13.505  0.00  0.00    +0.000 OA
ATOM      2  C   UNL     1       7.345   5.271  14.467  0.00  0.00    +0.000 C 
ATOM      3  O   UNL     1       7.561   5.857  15.662  0.00  0.00    +0.000 OA
ATOM      4  C   UNL     1       6.835   5.598  16.770  0.00  0.00    +0.000 C 
ATOM      5  O   UNL     1       7.098   6.166  17.827  0.00  0.00    +0.000 OA
ATOM      6  C   UNL     1       5.724   4.618  16.647  0.00  0.00    +0.000 C 
ATOM      7  C   UNL     1       4.946   4.346  17.711  0.00  0.00    +0.000 C 
ATOM      8  C   UNL     1       5.503   3.976  15.383  0.00  0.00    +0.000 C 
ATOM      9  C   UNL     1       6.263   4.272  14.330  0.00  0.00    +0.000 C 
ATOM     10 BR   UNL     1       5.988   3.457  12.671  0.00  0.00    +0.000 Br
ENDROOT
BRANCH   7  11
ATOM     11  N   UNL     1       5.018   4.874  18.974  0.00  0.00    +0.000 N 
ATOM     12  H   UNL     1       5.964   4.973  19.362  0.00  0.00    +0.000 HD
BRANCH  11  13
ATOM     13  C   UNL     1       3.895   5.246  19.811  0.00  0.00    +0.000 C 
BRANCH  13  14
ATOM     14  C   UNL     1       2.657   5.568  18.967  0.00  0.00    +0.000 C 
BRANCH  14  15
ATOM     15  C   UNL     1       2.208   7.012  19.091  0.00  0.00    +0.000 C 
ATOM     16  C   UNL     1       1.729   7.492  20.247  0.00  0.00    +0.000 C 
ATOM     17  C   UNL     1       1.234   8.880  20.457  0.00  0.00    +0.000 C 
ATOM     18  C   UNL     1       1.308   9.834  19.270  0.00  0.00    +0.000 C 
ATOM     19  C   UNL     1       1.853   9.312  17.945  0.00  0.00    +0.000 C 
ATOM     20  C   UNL     1       2.296   7.854  17.851  0.00  0.00    +0.000 C 
ENDBRANCH  14  15
ENDBRANCH  13  14
ENDBRANCH  11  13
ENDBRANCH   7  11
TORSDOF 4
ENDMDL
MODEL 5
REMARK VINA RESULT:      -7.2      1.432      2.171
REMARK  Name = 
REMARK  4 active torsions:
REMARK  status: ('A' for Active; 'I' for Inactive)
REMARK    1  A    between atoms: C_7  and  N_8
REMARK    2  A    between atoms: N_8  and  C_9
REMARK    3  A    between atoms: C_9  and  C_10
REMARK    4  A    between atoms: C_10  and  C_11
REMARK                            x       y       z     vdW  Elec       q    Type
REMARK                         _______ _______ _______ _____ _____    ______ ____
ROOT
ATOM      1  O   UNL     1       7.652   5.764  15.933  0.00  0.00    +0.000 OA
ATOM      2  C   UNL     1       6.671   5.267  16.484  0.00  0.00    +0.000 C 
ATOM      3  O   UNL     1       6.428   5.533  17.783  0.00  0.00    +0.000 OA
ATOM      4  C   UNL     1       5.374   5.039  18.468  0.00  0.00    +0.000 C 
ATOM      5  O   UNL     1       5.223   5.318  19.654  0.00  0.00    +0.000 OA
ATOM      6  C   UNL     1       4.427   4.164  17.729  0.00  0.00    +0.000 C 
ATOM      7  C   UNL     1       3.340   3.670  18.352  0.00  0.00    +0.000 C 
ATOM      8  C   UNL     1       4.692   3.862  16.351  0.00  0.00    +0.000 C 
ATOM      9  C   UNL     1       5.757   4.377  15.737  0.00  0.00    +0.000 C 
ATOM     10 BR   UNL     1       6.119   4.007  13.942  0.00  0.00    +0.000 Br
ENDROOT
BRANCH   7  11
ATOM     11  N   UNL     1       2.941   3.868  19.647  0.00  0.00    +0.000 N 
ATOM     12  H   UNL     1       3.509   3.402  20.365  0.00  0.00    +0.000 HD
BRANCH  11  13
ATOM     13  C   UNL     1       1.779   4.618  20.079  0.00  0.00    +0.000 C 
BRANCH  13  14
ATOM     14  C   UNL     1       2.188   5.913  20.791  0.00  0.00    +0.000 C 
BRANCH  14  15
ATOM     15  C   UNL     1       1.946   7.156  19.955  0.00  0.00    +0.000 C 
ATOM     16  C   UNL     1       2.369   7.230  18.685  0.00  0.00    +0.000 C 
ATOM     17  C   UNL     1       2.210   8.415  17.798  0.00  0.00    +0.000 C 
ATOM     18  C   UNL     1       1.483   9.626  18.376  0.00  0.00    +0.000 C 
ATOM     19  C   UNL     1       0.990   9.563  19.817  0.00  0.00    +0.000 C 
ATOM     20  C   UNL     1       1.249   8.299  20.633  0.00  0.00    +0.000 C 
ENDBRANCH  14  15
ENDBRANCH  13  14
ENDBRANCH  11  13
ENDBRANCH   7  11
TORSDOF 4
ENDMDL
MODEL 6
REMARK VINA RESULT:      -7.1      2.060      3.011
REMARK  Name = 
REMARK  4 active torsions:
REMARK  status: ('A' for Active; 'I' for Inactive)
REMARK    1  A    between atoms: C_7  and  N_8
REMARK    2  A    between atoms: N_8  and  C_9
REMARK    3  A    between atoms: C_9  and  C_10
REMARK    4  A    between atoms: C_10  and  C_11
REMARK                            x       y       z     vdW  Elec       q    Type
REMARK                         _______ _______ _______ _____ _____    ______ ____
ROOT
ATOM      1  O   UNL     1       7.540   6.466  16.346  0.00  0.00    +0.000 OA
ATOM      2  C   UNL     1       6.761   5.561  16.641  0.00  0.00    +0.000 C 
ATOM      3  O   UNL     1       6.305   5.456  17.905  0.00  0.00    +0.000 OA
ATOM      4  C   UNL     1       5.444   4.501  18.318  0.00  0.00    +0.000 C 
ATOM      5  O   UNL     1       5.080   4.464  19.490  0.00  0.00    +0.000 OA
ATOM      6  C   UNL     1       4.968   3.525  17.304  0.00  0.00    +0.000 C 
ATOM      7  C   UNL     1       4.082   2.572  17.651  0.00  0.00    +0.000 C 
ATOM      8  C   UNL     1       5.466   3.620  15.961  0.00  0.00    +0.000 C 
ATOM      9  C   UNL     1       6.321   4.584  15.622  0.00  0.00    +0.000 C 
ATOM     10 BR   UNL     1       6.977   4.735  13.880  0.00  0.00    +0.000 Br
ENDROOT
BRANCH   7  11
ATOM     11  N   UNL     1       3.508   2.351  18.875  0.00  0.00    +0.000 N 
ATOM     12  H   UNL     1       4.141   2.411  19.682  0.00  0.00    +0.000 HD
BRANCH  11  13
ATOM     13  C   UNL     1       2.124   1.996  19.119  0.00  0.00    +0.000 C 
BRANCH  13  14
ATOM     14  C   UNL     1       1.172   3.065  18.570  0.00  0.00    +0.000 C 
BRANCH  14  15
ATOM     15  C   UNL     1       1.555   4.474  18.983  0.00  0.00    +0.000 C 
ATOM     16  C   UNL     1       1.502   4.859  20.265  0.00  0.00    +0.000 C 
ATOM     17  C   UNL     1       1.824   6.225  20.762  0.00  0.00    +0.000 C 
ATOM     18  C   UNL     1       2.276   7.254  19.730  0.00  0.00    +0.000 C 
ATOM     19  C   UNL     1       2.346   6.838  18.265  0.00  0.00    +0.000 C 
ATOM     20  C   UNL     1       1.954   5.413  17.882  0.00  0.00    +0.000 C 
ENDBRANCH  14  15
ENDBRANCH  13  14
ENDBRANCH  11  13
ENDBRANCH   7  11
TORSDOF 4
ENDMDL
MODEL 7
REMARK VINA RESULT:      -7.1      1.960      3.148
REMARK  Name = 
REMARK  4 active torsions:
REMARK  status: ('A' for Active; 'I' for Inactive)
REMARK    1  A    between atoms: C_7  and  N_8
REMARK    2  A    between atoms: N_8  and  C_9
REMARK    3  A    between atoms: C_9  and  C_10
REMARK    4  A    between atoms: C_10  and  C_11
REMARK                            x       y       z     vdW  Elec       q    Type
REMARK                         _______ _______ _______ _____ _____    ______ ____
ROOT
ATOM      1  O   UNL     1       8.308   5.434  13.351  0.00  0.00    +0.000 OA
ATOM      2  C   UNL     1       7.409   5.229  14.164  0.00  0.00    +0.000 C 
ATOM      3  O   UNL     1       7.424   5.867  15.353  0.00  0.00    +0.000 OA
ATOM      4  C   UNL     1       6.478   5.710  16.303  0.00  0.00    +0.000 C 
ATOM      5  O   UNL     1       6.564   6.319  17.366  0.00  0.00    +0.000 OA
ATOM      6  C   UNL     1       5.352   4.788  16.002  0.00  0.00    +0.000 C 
ATOM      7  C   UNL     1       4.362   4.618  16.899  0.00  0.00    +0.000 C 
ATOM      8  C   UNL     1       5.342   4.091  14.747  0.00  0.00    +0.000 C 
ATOM      9  C   UNL     1       6.312   4.286  13.856  0.00  0.00    +0.000 C 
ATOM     10 BR   UNL     1       6.317   3.399  12.212  0.00  0.00    +0.000 Br
ENDROOT
BRANCH   7  11
ATOM     11  N   UNL     1       4.219   5.209  18.127  0.00  0.00    +0.000 N 
ATOM     12  H   UNL     1       4.496   4.636  18.933  0.00  0.00    +0.000 HD
BRANCH  11  13
ATOM     13  C   UNL     1       3.671   6.526  18.383  0.00  0.00    +0.000 C 
BRANCH  13  14
ATOM     14  C   UNL     1       2.268   6.434  18.994  0.00  0.00    +0.000 C 
BRANCH  14  15
ATOM     15  C   UNL     1       1.981   5.086  19.630  0.00  0.00    +0.000 C 
ATOM     16  C   UNL     1       2.351   4.821  20.890  0.00  0.00    +0.000 C 
ATOM     17  C   UNL     1       2.144   3.522  21.587  0.00  0.00    +0.000 C 
ATOM     18  C   UNL     1       1.429   2.420  20.811  0.00  0.00    +0.000 C 
ATOM     19  C   UNL     1       0.996   2.699  19.376  0.00  0.00    +0.000 C 
ATOM     20  C   UNL     1       1.300   4.065  18.765  0.00  0.00    +0.000 C 
ENDBRANCH  14  15
ENDBRANCH  13  14
ENDBRANCH  11  13
ENDBRANCH   7  11
TORSDOF 4
ENDMDL
MODEL 8
REMARK VINA RESULT:      -7.0      2.435      3.287
REMARK  Name = 
REMARK  4 active torsions:
REMARK  status: ('A' for Active; 'I' for Inactive)
REMARK    1  A    between atoms: C_7  and  N_8
REMARK    2  A    between atoms: N_8  and  C_9
REMARK    3  A    between atoms: C_9  and  C_10
REMARK    4  A    between atoms: C_10  and  C_11
REMARK                            x       y       z     vdW  Elec       q    Type
REMARK                         _______ _______ _______ _____ _____    ______ ____
ROOT
ATOM      1  O   UNL     1       7.581   5.755  17.424  0.00  0.00    +0.000 OA
ATOM      2  C   UNL     1       6.684   4.916  17.464  0.00  0.00    +0.000 C 
ATOM      3  O   UNL     1       6.220   4.487  18.655  0.00  0.00    +0.000 OA
ATOM      4  C   UNL     1       5.234   3.575  18.795  0.00  0.00    +0.000 C 
ATOM      5  O   UNL     1       4.871   3.227  19.916  0.00  0.00    +0.000 OA
ATOM      6  C   UNL     1       4.623   3.031  17.555  0.00  0.00    +0.000 C 
ATOM      7  C   UNL     1       3.614   2.144  17.635  0.00  0.00    +0.000 C 
ATOM      8  C   UNL     1       5.127   3.469  16.284  0.00  0.00    +0.000 C 
ATOM      9  C   UNL     1       6.108   4.367  16.216  0.00  0.00    +0.000 C 
ATOM     10 BR   UNL     1       6.774   4.960  14.575  0.00  0.00    +0.000 Br
ENDROOT
BRANCH   7  11
ATOM     11  N   UNL     1       3.017   1.635  18.758  0.00  0.00    +0.000 N 
ATOM     12  H   UNL     1       3.589   0.985  19.311  0.00  0.00    +0.000 HD
BRANCH  11  13
ATOM     13  C   UNL     1       1.659   1.890  19.195  0.00  0.00    +0.000 C 
BRANCH  13  14
ATOM     14  C   UNL     1       1.018   3.021  18.383  0.00  0.00    +0.000 C 
BRANCH  14  15
ATOM     15  C   UNL     1       1.468   4.402  18.825  0.00  0.00    +0.000 C 
ATOM     16  C   UNL     1       1.973   5.279  17.947  0.00  0.00    +0.000 C 
ATOM     17  C   UNL     1       2.472   6.640  18.288  0.00  0.00    +0.000 C 
ATOM     18  C   UNL     1       2.370   7.074  19.747  0.00  0.00    +0.000 C 
ATOM     19  C   UNL     1       1.795   6.094  20.763  0.00  0.00    +0.000 C 
ATOM     20  C   UNL     1       1.351   4.712  20.289  0.00  0.00    +0.000 C 
ENDBRANCH  14  15
ENDBRANCH  13  14
ENDBRANCH  11  13
ENDBRANCH   7  11
TORSDOF 4
ENDMDL
MODEL 9
REMARK VINA RESULT:      -7.0      1.727      2.571
REMARK  Name = 
REMARK  4 active torsions:
REMARK  status: ('A' for Active; 'I' for Inactive)
REMARK    1  A    between atoms: C_7  and  N_8
REMARK    2  A    between atoms: N_8  and  C_9
REMARK    3  A    between atoms: C_9  and  C_10
REMARK    4  A    between atoms: C_10  and  C_11
REMARK                            x       y       z     vdW  Elec       q    Type
REMARK                         _______ _______ _______ _____ _____    ______ ____
ROOT
ATOM      1  O   UNL     1       8.115   4.577  16.608  0.00  0.00    +0.000 OA
ATOM      2  C   UNL     1       6.949   4.410  16.962  0.00  0.00    +0.000 C 
ATOM      3  O   UNL     1       6.642   4.409  18.275  0.00  0.00    +0.000 OA
ATOM      4  C   UNL     1       5.392   4.241  18.755  0.00  0.00    +0.000 C 
ATOM      5  O   UNL     1       5.191   4.242  19.967  0.00  0.00    +0.000 OA
ATOM      6  C   UNL     1       4.297   4.062  17.767  0.00  0.00    +0.000 C 
ATOM      7  C   UNL     1       3.025   3.923  18.188  0.00  0.00    +0.000 C 
ATOM      8  C   UNL     1       4.621   4.041  16.369  0.00  0.00    +0.000 C 
ATOM      9  C   UNL     1       5.879   4.207  15.962  0.00  0.00    +0.000 C 
ATOM     10 BR   UNL     1       6.325   4.194  14.148  0.00  0.00    +0.000 Br
ENDROOT
BRANCH   7  11
ATOM     11  N   UNL     1       2.551   3.928  19.473  0.00  0.00    +0.000 N 
ATOM     12  H   UNL     1       2.761   3.091  20.030  0.00  0.00    +0.000 HD
BRANCH  11  13
ATOM     13  C   UNL     1       1.749   4.969  20.084  0.00  0.00    +0.000 C 
BRANCH  13  14
ATOM     14  C   UNL     1       2.603   6.194  20.433  0.00  0.00    +0.000 C 
BRANCH  14  15
ATOM     15  C   UNL     1       2.060   7.486  19.850  0.00  0.00    +0.000 C 
ATOM     16  C   UNL     1       1.273   8.295  20.572  0.00  0.00    +0.000 C 
ATOM     17  C   UNL     1       0.666   9.562  20.079  0.00  0.00    +0.000 C 
ATOM     18  C   UNL     1       0.994   9.981  18.649  0.00  0.00    +0.000 C 
ATOM     19  C   UNL     1       1.890   9.078  17.809  0.00  0.00    +0.000 C 
ATOM     20  C   UNL     1       2.420   7.785  18.423  0.00  0.00    +0.000 C 
ENDBRANCH  14  15
ENDBRANCH  13  14
ENDBRANCH  11  13
ENDBRANCH   7  11
TORSDOF 4
ENDMDL
