MODEL 1
REMARK VINA RESULT:      -8.2      0.000      0.000
REMARK  Name = 
REMARK  8 active torsions:
REMARK  status: ('A' for Active; 'I' for Inactive)
REMARK    1  A    between atoms: C_1  and  O_2
REMARK    2  A    between atoms: O_2  and  C_3
REMARK    3  A    between atoms: C_9  and  C_10
REMARK    4  A    between atoms: C_10  and  C_11
REMARK    5  A    between atoms: C_11  and  N_12
REMARK    6  A    between atoms: C_13  and  C_15
REMARK    7  A    between atoms: C_18  and  O_19
REMARK    8  A    between atoms: O_19  and  C_20
REMARK                            x       y       z     vdW  Elec       q    Type
REMARK                         _______ _______ _______ _____ _____    ______ ____
ROOT
ATOM      1  N   UNL     1       2.215   7.364  20.199  0.00  0.00    +0.000 N 
ATOM      2  C   UNL     1       2.160   5.990  20.148  0.00  0.00    +0.000 C 
ATOM      3  O   UNL     1       1.459   5.305  20.885  0.00  0.00    +0.000 OA
ATOM      4  H   UNL     1       2.607   7.861  19.411  0.00  0.00    +0.000 HD
ENDROOT
BRANCH   2   5
ATOM      5  C   UNL     1       2.991   5.343  19.105  0.00  0.00    +0.000 A 
ATOM      6  C   UNL     1       2.429   4.570  18.083  0.00  0.00    +0.000 A 
ATOM      7  C   UNL     1       3.261   4.006  17.110  0.00  0.00    +0.000 A 
ATOM      8  C   UNL     1       4.646   4.223  17.142  0.00  0.00    +0.000 A 
ATOM      9  C   UNL     1       5.199   4.968  18.180  0.00  0.00    +0.000 A 
ATOM     10  C   UNL     1       4.373   5.550  19.143  0.00  0.00    +0.000 A 
BRANCH   8  11
ATOM     11  O   UNL     1       5.335   3.612  16.141  0.00  0.00    +0.000 OA
BRANCH  11  12
ATOM     12  C   UNL     1       5.937   4.400  15.120  0.00  0.00    +0.000 C 
ATOM     13  F   UNL     1       6.040   3.785  13.926  0.00  0.00    +0.000 F 
ATOM     14  F   UNL     1       5.227   5.539  14.963  0.00  0.00    +0.000 F 
ATOM     15  F   UNL     1       7.183   4.733  15.522  0.00  0.00    +0.000 F 
ENDBRANCH  11  12
ENDBRANCH   8  11
ENDBRANCH   2   5
BRANCH   1  16
ATOM     16  C   UNL     1       1.437   8.112  21.166  0.00  0.00    +0.000 C 
BRANCH  16  17
ATOM     17  C   UNL     1       0.200   8.792  20.564  0.00  0.00    +0.000 C 
BRANCH  17  24
ATOM     18  C   UNL     1      -2.247  10.257  17.153  0.00  0.00    +0.000 A 
ATOM     19  C   UNL     1      -3.120  11.213  17.660  0.00  0.00    +0.000 A 
ATOM     20  C   UNL     1      -2.826  11.868  18.859  0.00  0.00    +0.000 A 
ATOM     21  C   UNL     1      -1.666  11.553  19.585  0.00  0.00    +0.000 A 
ATOM     22  C   UNL     1      -0.778  10.594  19.070  0.00  0.00    +0.000 A 
ATOM     23  C   UNL     1      -1.056  10.001  17.826  0.00  0.00    +0.000 A 
ATOM     24  C   UNL     1       0.451  10.142  19.842  0.00  0.00    +0.000 C 
ATOM     25  C   UNL     1       0.891  11.219  20.854  0.00  0.00    +0.000 C 
ATOM     26  C   UNL     1      -0.277  11.688  21.715  0.00  0.00    +0.000 C 
ATOM     27  C   UNL     1      -1.364  12.321  20.849  0.00  0.00    +0.000 C 
BRANCH  18  29
ATOM     28  C   UNL     1      -3.015  10.543  14.948  0.00  0.00    +0.000 C 
ATOM     29  O   UNL     1      -2.612   9.647  15.984  0.00  0.00    +0.000 OA
ENDBRANCH  18  29
ENDBRANCH  17  24
ENDBRANCH  16  17
ENDBRANCH   1  16
TORSDOF 7
ENDMDL
MODEL 2
REMARK VINA RESULT:      -8.1      5.252      9.690
REMARK  Name = 
REMARK  8 active torsions:
REMARK  status: ('A' for Active; 'I' for Inactive)
REMARK    1  A    between atoms: C_1  and  O_2
REMARK    2  A    between atoms: O_2  and  C_3
REMARK    3  A    between atoms: C_9  and  C_10
REMARK    4  A    between atoms: C_10  and  C_11
REMARK    5  A    between atoms: C_11  and  N_12
REMARK    6  A    between atoms: C_13  and  C_15
REMARK    7  A    between atoms: C_18  and  O_19
REMARK    8  A    between atoms: O_19  and  C_20
REMARK                            x       y       z     vdW  Elec       q    Type
REMARK                         _______ _______ _______ _____ _____    ______ ____
ROOT
ATOM      1  N   UNL     1       0.889   9.392  17.617  0.00  0.00    +0.000 N 
ATOM      2  C   UNL     1       0.219  10.190  18.517  0.00  0.00    +0.000 C 
ATOM      3  O   UNL     1       0.729  10.655  19.530  0.00  0.00    +0.000 OA
ATOM      4  H   UNL     1       0.490   9.263  16.697  0.00  0.00    +0.000 HD
ENDROOT
BRANCH   2   5
ATOM      5  C   UNL     1      -1.191  10.504  18.186  0.00  0.00    +0.000 A 
ATOM      6  C   UNL     1      -1.876   9.845  17.159  0.00  0.00    +0.000 A 
ATOM      7  C   UNL     1      -3.215  10.165  16.909  0.00  0.00    +0.000 A 
ATOM      8  C   UNL     1      -3.877  11.125  17.688  0.00  0.00    +0.000 A 
ATOM      9  C   UNL     1      -3.178  11.797  18.688  0.00  0.00    +0.000 A 
ATOM     10  C   UNL     1      -1.848  11.469  18.955  0.00  0.00    +0.000 A 
BRANCH   8  11
ATOM     11  O   UNL     1      -5.172  11.342  17.333  0.00  0.00    +0.000 OA
BRANCH  11  12
ATOM     12  C   UNL     1      -6.168  11.449  18.344  0.00  0.00    +0.000 C 
ATOM     13  F   UNL     1      -5.713  11.267  19.600  0.00  0.00    +0.000 F 
ATOM     14  F   UNL     1      -6.753  12.664  18.264  0.00  0.00    +0.000 F 
ATOM     15  F   UNL     1      -7.113  10.511  18.108  0.00  0.00    +0.000 F 
ENDBRANCH  11  12
ENDBRANCH   8  11
ENDBRANCH   2   5
BRANCH   1  16
ATOM     16  C   UNL     1       2.275   9.027  17.823  0.00  0.00    +0.000 C 
BRANCH  16  17
ATOM     17  C   UNL     1       2.455   7.709  18.589  0.00  0.00    +0.000 C 
BRANCH  17  24
ATOM     18  C   UNL     1       6.702   6.901  17.549  0.00  0.00    +0.000 A 
ATOM     19  C   UNL     1       7.147   5.900  18.405  0.00  0.00    +0.000 A 
ATOM     20  C   UNL     1       6.229   5.047  19.025  0.00  0.00    +0.000 A 
ATOM     21  C   UNL     1       4.849   5.204  18.822  0.00  0.00    +0.000 A 
ATOM     22  C   UNL     1       4.398   6.209  17.949  0.00  0.00    +0.000 A 
ATOM     23  C   UNL     1       5.341   7.008  17.279  0.00  0.00    +0.000 A 
ATOM     24  C   UNL     1       2.918   6.491  17.747  0.00  0.00    +0.000 C 
ATOM     25  C   UNL     1       2.070   5.249  18.088  0.00  0.00    +0.000 C 
ATOM     26  C   UNL     1       2.439   4.678  19.454  0.00  0.00    +0.000 C 
ATOM     27  C   UNL     1       3.898   4.228  19.472  0.00  0.00    +0.000 C 
BRANCH  18  29
ATOM     28  C   UNL     1       7.937   8.894  17.736  0.00  0.00    +0.000 C 
ATOM     29  O   UNL     1       7.658   7.707  16.993  0.00  0.00    +0.000 OA
ENDBRANCH  18  29
ENDBRANCH  17  24
ENDBRANCH  16  17
ENDBRANCH   1  16
TORSDOF 7
ENDMDL
MODEL 3
REMARK VINA RESULT:      -8.0      6.462      8.332
REMARK  Name = 
REMARK  8 active torsions:
REMARK  status: ('A' for Active; 'I' for Inactive)
REMARK    1  A    between atoms: C_1  and  O_2
REMARK    2  A    between atoms: O_2  and  C_3
REMARK    3  A    between atoms: C_9  and  C_10
REMARK    4  A    between atoms: C_10  and  C_11
REMARK    5  A    between atoms: C_11  and  N_12
REMARK    6  A    between atoms: C_13  and  C_15
REMARK    7  A    between atoms: C_18  and  O_19
REMARK    8  A    between atoms: O_19  and  C_20
REMARK                            x       y       z     vdW  Elec       q    Type
REMARK                         _______ _______ _______ _____ _____    ______ ____
ROOT
ATOM      1  N   UNL     1       7.313   8.406  17.918  0.00  0.00    +0.000 N 
ATOM      2  C   UNL     1       7.053   7.189  17.330  0.00  0.00    +0.000 C 
ATOM      3  O   UNL     1       7.762   6.679  16.470  0.00  0.00    +0.000 OA
ATOM      4  H   UNL     1       6.840   8.636  18.781  0.00  0.00    +0.000 HD
ENDROOT
BRANCH   2   5
ATOM      5  C   UNL     1       5.851   6.473  17.820  0.00  0.00    +0.000 A 
ATOM      6  C   UNL     1       5.932   5.455  18.777  0.00  0.00    +0.000 A 
ATOM      7  C   UNL     1       4.761   4.833  19.221  0.00  0.00    +0.000 A 
ATOM      8  C   UNL     1       3.510   5.232  18.728  0.00  0.00    +0.000 A 
ATOM      9  C   UNL     1       3.441   6.225  17.755  0.00  0.00    +0.000 A 
ATOM     10  C   UNL     1       4.605   6.863  17.321  0.00  0.00    +0.000 A 
BRANCH   8  11
ATOM     11  O   UNL     1       2.457   4.540  19.241  0.00  0.00    +0.000 OA
BRANCH  11  12
ATOM     12  C   UNL     1       1.853   4.977  20.453  0.00  0.00    +0.000 C 
ATOM     13  F   UNL     1       2.512   4.610  21.570  0.00  0.00    +0.000 F 
ATOM     14  F   UNL     1       1.742   6.323  20.434  0.00  0.00    +0.000 F 
ATOM     15  F   UNL     1       0.608   4.454  20.518  0.00  0.00    +0.000 F 
ENDBRANCH  11  12
ENDBRANCH   8  11
ENDBRANCH   2   5
BRANCH   1  16
ATOM     16  C   UNL     1       8.467   9.195  17.534  0.00  0.00    +0.000 C 
BRANCH  16  17
ATOM     17  C   UNL     1       8.888  10.220  18.595  0.00  0.00    +0.000 C 
BRANCH  17  24
ATOM     18  C   UNL     1       7.200  14.298  18.058  0.00  0.00    +0.000 A 
ATOM     19  C   UNL     1       7.619  15.058  19.145  0.00  0.00    +0.000 A 
ATOM     20  C   UNL     1       8.748  14.677  19.875  0.00  0.00    +0.000 A 
ATOM     21  C   UNL     1       9.458  13.511  19.547  0.00  0.00    +0.000 A 
ATOM     22  C   UNL     1       9.043  12.748  18.443  0.00  0.00    +0.000 A 
ATOM     23  C   UNL     1       7.948  13.188  17.678  0.00  0.00    +0.000 A 
ATOM     24  C   UNL     1       9.711  11.431  18.081  0.00  0.00    +0.000 C 
ATOM     25  C   UNL     1      11.150  11.375  18.632  0.00  0.00    +0.000 C 
ATOM     26  C   UNL     1      11.197  11.739  20.112  0.00  0.00    +0.000 C 
ATOM     27  C   UNL     1      10.701  13.166  20.332  0.00  0.00    +0.000 C 
BRANCH  18  29
ATOM     28  C   UNL     1       4.910  14.809  18.223  0.00  0.00    +0.000 C 
ATOM     29  O   UNL     1       6.076  14.724  17.404  0.00  0.00    +0.000 OA
ENDBRANCH  18  29
ENDBRANCH  17  24
ENDBRANCH  16  17
ENDBRANCH   1  16
TORSDOF 7
ENDMDL
MODEL 4
REMARK VINA RESULT:      -8.0      4.898      9.459
REMARK  Name = 
REMARK  8 active torsions:
REMARK  status: ('A' for Active; 'I' for Inactive)
REMARK    1  A    between atoms: C_1  and  O_2
REMARK    2  A    between atoms: O_2  and  C_3
REMARK    3  A    between atoms: C_9  and  C_10
REMARK    4  A    between atoms: C_10  and  C_11
REMARK    5  A    between atoms: C_11  and  N_12
REMARK    6  A    between atoms: C_13  and  C_15
REMARK    7  A    between atoms: C_18  and  O_19
REMARK    8  A    between atoms: O_19  and  C_20
REMARK                            x       y       z     vdW  Elec       q    Type
REMARK                         _______ _______ _______ _____ _____    ______ ____
ROOT
ATOM      1  N   UNL     1       0.902   9.184  18.208  0.00  0.00    +0.000 N 
ATOM      2  C   UNL     1       0.422  10.446  18.473  0.00  0.00    +0.000 C 
ATOM      3  O   UNL     1       1.122  11.379  18.850  0.00  0.00    +0.000 OA
ATOM      4  H   UNL     1       0.328   8.553  17.666  0.00  0.00    +0.000 HD
ENDROOT
BRANCH   2   5
ATOM      5  C   UNL     1      -1.028  10.653  18.244  0.00  0.00    +0.000 A 
ATOM      6  C   UNL     1      -1.758  11.621  18.943  0.00  0.00    +0.000 A 
ATOM      7  C   UNL     1      -3.119  11.789  18.666  0.00  0.00    +0.000 A 
ATOM      8  C   UNL     1      -3.750  11.009  17.687  0.00  0.00    +0.000 A 
ATOM      9  C   UNL     1      -3.022  10.028  17.018  0.00  0.00    +0.000 A 
ATOM     10  C   UNL     1      -1.660   9.868  17.276  0.00  0.00    +0.000 A 
BRANCH   8  11
ATOM     11  O   UNL     1      -5.074  11.272  17.525  0.00  0.00    +0.000 OA
BRANCH  11  12
ATOM     12  C   UNL     1      -6.000  10.859  18.523  0.00  0.00    +0.000 C 
ATOM     13  F   UNL     1      -5.912  11.538  19.684  0.00  0.00    +0.000 F 
ATOM     14  F   UNL     1      -7.257  10.982  18.041  0.00  0.00    +0.000 F 
ATOM     15  F   UNL     1      -5.778   9.553  18.791  0.00  0.00    +0.000 F 
ENDBRANCH  11  12
ENDBRANCH   8  11
ENDBRANCH   2   5
BRANCH   1  16
ATOM     16  C   UNL     1       2.304   8.862  18.379  0.00  0.00    +0.000 C 
BRANCH  16  17
ATOM     17  C   UNL     1       2.779   7.700  17.495  0.00  0.00    +0.000 C 
BRANCH  17  24
ATOM     18  C   UNL     1       1.741   3.711  19.163  0.00  0.00    +0.000 A 
ATOM     19  C   UNL     1       2.125   2.763  18.220  0.00  0.00    +0.000 A 
ATOM     20  C   UNL     1       3.096   3.078  17.264  0.00  0.00    +0.000 A 
ATOM     21  C   UNL     1       3.674   4.356  17.219  0.00  0.00    +0.000 A 
ATOM     22  C   UNL     1       3.294   5.311  18.176  0.00  0.00    +0.000 A 
ATOM     23  C   UNL     1       2.370   4.952  19.173  0.00  0.00    +0.000 A 
ATOM     24  C   UNL     1       3.814   6.738  18.135  0.00  0.00    +0.000 C 
ATOM     25  C   UNL     1       5.156   6.813  17.379  0.00  0.00    +0.000 C 
ATOM     26  C   UNL     1       5.074   6.116  16.024  0.00  0.00    +0.000 C 
ATOM     27  C   UNL     1       4.754   4.634  16.201  0.00  0.00    +0.000 C 
BRANCH  18  29
ATOM     28  C   UNL     1       1.271   2.829  21.292  0.00  0.00    +0.000 C 
ATOM     29  O   UNL     1       0.773   3.336  20.054  0.00  0.00    +0.000 OA
ENDBRANCH  18  29
ENDBRANCH  17  24
ENDBRANCH  16  17
ENDBRANCH   1  16
TORSDOF 7
ENDMDL
MODEL 5
REMARK VINA RESULT:      -8.0      0.952      1.304
REMARK  Name = 
REMARK  8 active torsions:
REMARK  status: ('A' for Active; 'I' for Inactive)
REMARK    1  A    between atoms: C_1  and  O_2
REMARK    2  A    between atoms: O_2  and  C_3
REMARK    3  A    between atoms: C_9  and  C_10
REMARK    4  A    between atoms: C_10  and  C_11
REMARK    5  A    between atoms: C_11  and  N_12
REMARK    6  A    between atoms: C_13  and  C_15
REMARK    7  A    between atoms: C_18  and  O_19
REMARK    8  A    between atoms: O_19  and  C_20
REMARK                            x       y       z     vdW  Elec       q    Type
REMARK                         _______ _______ _______ _____ _____    ______ ____
ROOT
ATOM      1  N   UNL     1       2.058   7.659  20.438  0.00  0.00    +0.000 N 
ATOM      2  C   UNL     1       2.121   6.295  20.263  0.00  0.00    +0.000 C 
ATOM      3  O   UNL     1       1.446   5.492  20.897  0.00  0.00    +0.000 OA
ATOM      4  H   UNL     1       2.444   8.256  19.719  0.00  0.00    +0.000 HD
ENDROOT
BRANCH   2   5
ATOM      5  C   UNL     1       3.053   5.815  19.214  0.00  0.00    +0.000 A 
ATOM      6  C   UNL     1       3.315   6.559  18.058  0.00  0.00    +0.000 A 
ATOM      7  C   UNL     1       4.224   6.067  17.115  0.00  0.00    +0.000 A 
ATOM      8  C   UNL     1       4.883   4.848  17.327  0.00  0.00    +0.000 A 
ATOM      9  C   UNL     1       4.593   4.101  18.466  0.00  0.00    +0.000 A 
ATOM     10  C   UNL     1       3.701   4.594  19.420  0.00  0.00    +0.000 A 
BRANCH   8  11
ATOM     11  O   UNL     1       5.734   4.487  16.329  0.00  0.00    +0.000 OA
BRANCH  11  12
ATOM     12  C   UNL     1       7.056   5.012  16.310  0.00  0.00    +0.000 C 
ATOM     13  F   UNL     1       7.175   6.250  16.829  0.00  0.00    +0.000 F 
ATOM     14  F   UNL     1       7.875   4.176  16.985  0.00  0.00    +0.000 F 
ATOM     15  F   UNL     1       7.473   5.062  15.025  0.00  0.00    +0.000 F 
ENDBRANCH  11  12
ENDBRANCH   8  11
ENDBRANCH   2   5
BRANCH   1  16
ATOM     16  C   UNL     1       1.176   8.251  21.422  0.00  0.00    +0.000 C 
BRANCH  16  17
ATOM     17  C   UNL     1      -0.027   8.979  20.808  0.00  0.00    +0.000 C 
BRANCH  17  24
ATOM     18  C   UNL     1      -2.235  10.239  17.159  0.00  0.00    +0.000 A 
ATOM     19  C   UNL     1      -3.117  11.242  17.544  0.00  0.00    +0.000 A 
ATOM     20  C   UNL     1      -2.881  11.975  18.711  0.00  0.00    +0.000 A 
ATOM     21  C   UNL     1      -1.774  11.693  19.527  0.00  0.00    +0.000 A 
ATOM     22  C   UNL     1      -0.877  10.686  19.134  0.00  0.00    +0.000 A 
ATOM     23  C   UNL     1      -1.093  10.011  17.921  0.00  0.00    +0.000 A 
ATOM     24  C   UNL     1       0.294  10.270  20.010  0.00  0.00    +0.000 C 
ATOM     25  C   UNL     1       0.695  11.408  20.970  0.00  0.00    +0.000 C 
ATOM     26  C   UNL     1      -0.513  11.956  21.723  0.00  0.00    +0.000 C 
ATOM     27  C   UNL     1      -1.532  12.544  20.750  0.00  0.00    +0.000 C 
BRANCH  18  29
ATOM     28  C   UNL     1      -2.981  10.373  14.933  0.00  0.00    +0.000 C 
ATOM     29  O   UNL     1      -2.542   9.553  16.016  0.00  0.00    +0.000 OA
ENDBRANCH  18  29
ENDBRANCH  17  24
ENDBRANCH  16  17
ENDBRANCH   1  16
TORSDOF 7
ENDMDL
MODEL 6
REMARK VINA RESULT:      -8.0      2.575      3.124
REMARK  Name = 
REMARK  8 active torsions:
REMARK  status: ('A' for Active; 'I' for Inactive)
REMARK    1  A    between atoms: C_1  and  O_2
REMARK    2  A    between atoms: O_2  and  C_3
REMARK    3  A    between atoms: C_9  and  C_10
REMARK    4  A    between atoms: C_10  and  C_11
REMARK    5  A    between atoms: C_11  and  N_12
REMARK    6  A    between atoms: C_13  and  C_15
REMARK    7  A    between atoms: C_18  and  O_19
REMARK    8  A    between atoms: O_19  and  C_20
REMARK                            x       y       z     vdW  Elec       q    Type
REMARK                         _______ _______ _______ _____ _____    ______ ____
ROOT
ATOM      1  N   UNL     1       1.438   8.862  19.591  0.00  0.00    +0.000 N 
ATOM      2  C   UNL     1       2.080   8.341  18.491  0.00  0.00    +0.000 C 
ATOM      3  O   UNL     1       2.294   8.971  17.461  0.00  0.00    +0.000 OA
ATOM      4  H   UNL     1       1.525   8.378  20.475  0.00  0.00    +0.000 HD
ENDROOT
BRANCH   2   5
ATOM      5  C   UNL     1       2.552   6.941  18.614  0.00  0.00    +0.000 A 
ATOM      6  C   UNL     1       3.488   6.393  17.731  0.00  0.00    +0.000 A 
ATOM      7  C   UNL     1       3.916   5.074  17.912  0.00  0.00    +0.000 A 
ATOM      8  C   UNL     1       3.428   4.305  18.978  0.00  0.00    +0.000 A 
ATOM      9  C   UNL     1       2.474   4.848  19.834  0.00  0.00    +0.000 A 
ATOM     10  C   UNL     1       2.056   6.170  19.670  0.00  0.00    +0.000 A 
BRANCH   8  11
ATOM     11  O   UNL     1       3.923   3.039  19.033  0.00  0.00    +0.000 OA
BRANCH  11  12
ATOM     12  C   UNL     1       3.153   1.961  18.515  0.00  0.00    +0.000 C 
ATOM     13  F   UNL     1       3.858   0.841  18.261  0.00  0.00    +0.000 F 
ATOM     14  F   UNL     1       2.163   1.665  19.385  0.00  0.00    +0.000 F 
ATOM     15  F   UNL     1       2.587   2.364  17.355  0.00  0.00    +0.000 F 
ENDBRANCH  11  12
ENDBRANCH   8  11
ENDBRANCH   2   5
BRANCH   1  16
ATOM     16  C   UNL     1       0.943  10.223  19.598  0.00  0.00    +0.000 C 
BRANCH  16  17
ATOM     17  C   UNL     1      -0.546  10.337  19.246  0.00  0.00    +0.000 C 
BRANCH  17  24
ATOM     18  C   UNL     1      -3.895  11.002  16.397  0.00  0.00    +0.000 A 
ATOM     19  C   UNL     1      -5.008  11.353  17.153  0.00  0.00    +0.000 A 
ATOM     20  C   UNL     1      -4.847  11.877  18.439  0.00  0.00    +0.000 A 
ATOM     21  C   UNL     1      -3.569  12.029  19.000  0.00  0.00    +0.000 A 
ATOM     22  C   UNL     1      -2.443  11.684  18.234  0.00  0.00    +0.000 A 
ATOM     23  C   UNL     1      -2.624  11.227  16.917  0.00  0.00    +0.000 A 
ATOM     24  C   UNL     1      -1.036  11.742  18.806  0.00  0.00    +0.000 C 
ATOM     25  C   UNL     1      -0.962  12.730  19.987  0.00  0.00    +0.000 C 
ATOM     26  C   UNL     1      -2.064  12.465  21.007  0.00  0.00    +0.000 C 
ATOM     27  C   UNL     1      -3.441  12.646  20.372  0.00  0.00    +0.000 C 
BRANCH  18  29
ATOM     28  C   UNL     1      -2.961  10.077  14.447  0.00  0.00    +0.000 C 
ATOM     29  O   UNL     1      -4.133  10.479  15.155  0.00  0.00    +0.000 OA
ENDBRANCH  18  29
ENDBRANCH  17  24
ENDBRANCH  16  17
ENDBRANCH   1  16
TORSDOF 7
ENDMDL
MODEL 7
REMARK VINA RESULT:      -8.0      0.953      1.103
REMARK  Name = 
REMARK  8 active torsions:
REMARK  status: ('A' for Active; 'I' for Inactive)
REMARK    1  A    between atoms: C_1  and  O_2
REMARK    2  A    between atoms: O_2  and  C_3
REMARK    3  A    between atoms: C_9  and  C_10
REMARK    4  A    between atoms: C_10  and  C_11
REMARK    5  A    between atoms: C_11  and  N_12
REMARK    6  A    between atoms: C_13  and  C_15
REMARK    7  A    between atoms: C_18  and  O_19
REMARK    8  A    between atoms: O_19  and  C_20
REMARK                            x       y       z     vdW  Elec       q    Type
REMARK                         _______ _______ _______ _____ _____    ______ ____
ROOT
ATOM      1  N   UNL     1       2.010   7.724  20.250  0.00  0.00    +0.000 N 
ATOM      2  C   UNL     1       2.240   6.381  20.052  0.00  0.00    +0.000 C 
ATOM      3  O   UNL     1       1.754   5.494  20.745  0.00  0.00    +0.000 OA
ATOM      4  H   UNL     1       2.230   8.366  19.500  0.00  0.00    +0.000 HD
ENDROOT
BRANCH   2   5
ATOM      5  C   UNL     1       3.109   6.031  18.903  0.00  0.00    +0.000 A 
ATOM      6  C   UNL     1       3.524   4.716  18.661  0.00  0.00    +0.000 A 
ATOM      7  C   UNL     1       4.322   4.441  17.546  0.00  0.00    +0.000 A 
ATOM      8  C   UNL     1       4.694   5.466  16.664  0.00  0.00    +0.000 A 
ATOM      9  C   UNL     1       4.301   6.775  16.930  0.00  0.00    +0.000 A 
ATOM     10  C   UNL     1       3.489   7.054  18.030  0.00  0.00    +0.000 A 
BRANCH   8  11
ATOM     11  O   UNL     1       5.474   5.060  15.626  0.00  0.00    +0.000 OA
BRANCH  11  12
ATOM     12  C   UNL     1       6.891   5.084  15.762  0.00  0.00    +0.000 C 
ATOM     13  F   UNL     1       7.566   4.976  14.600  0.00  0.00    +0.000 F 
ATOM     14  F   UNL     1       7.259   6.230  16.375  0.00  0.00    +0.000 F 
ATOM     15  F   UNL     1       7.257   4.049  16.550  0.00  0.00    +0.000 F 
ENDBRANCH  11  12
ENDBRANCH   8  11
ENDBRANCH   2   5
BRANCH   1  16
ATOM     16  C   UNL     1       1.167   8.191  21.331  0.00  0.00    +0.000 C 
BRANCH  16  17
ATOM     17  C   UNL     1      -0.060   8.981  20.854  0.00  0.00    +0.000 C 
BRANCH  17  24
ATOM     18  C   UNL     1      -2.573  10.341  17.447  0.00  0.00    +0.000 A 
ATOM     19  C   UNL     1      -3.365  11.383  17.917  0.00  0.00    +0.000 A 
ATOM     20  C   UNL     1      -2.978  12.104  19.050  0.00  0.00    +0.000 A 
ATOM     21  C   UNL     1      -1.806  11.772  19.749  0.00  0.00    +0.000 A 
ATOM     22  C   UNL     1      -1.000  10.726  19.270  0.00  0.00    +0.000 A 
ATOM     23  C   UNL     1      -1.369  10.062  18.088  0.00  0.00    +0.000 A 
ATOM     24  C   UNL     1       0.235  10.257  20.022  0.00  0.00    +0.000 C 
ATOM     25  C   UNL     1       0.783  11.375  20.931  0.00  0.00    +0.000 C 
ATOM     26  C   UNL     1      -0.315  11.976  21.803  0.00  0.00    +0.000 C 
ATOM     27  C   UNL     1      -1.402  12.610  20.938  0.00  0.00    +0.000 C 
BRANCH  18  29
ATOM     28  C   UNL     1      -2.885  10.386  15.116  0.00  0.00    +0.000 C 
ATOM     29  O   UNL     1      -3.026   9.671  16.344  0.00  0.00    +0.000 OA
ENDBRANCH  18  29
ENDBRANCH  17  24
ENDBRANCH  16  17
ENDBRANCH   1  16
TORSDOF 7
ENDMDL
MODEL 8
REMARK VINA RESULT:      -7.9      4.953      9.468
REMARK  Name = 
REMARK  8 active torsions:
REMARK  status: ('A' for Active; 'I' for Inactive)
REMARK    1  A    between atoms: C_1  and  O_2
REMARK    2  A    between atoms: O_2  and  C_3
REMARK    3  A    between atoms: C_9  and  C_10
REMARK    4  A    between atoms: C_10  and  C_11
REMARK    5  A    between atoms: C_11  and  N_12
REMARK    6  A    between atoms: C_13  and  C_15
REMARK    7  A    between atoms: C_18  and  O_19
REMARK    8  A    between atoms: O_19  and  C_20
REMARK                            x       y       z     vdW  Elec       q    Type
REMARK                         _______ _______ _______ _____ _____    ______ ____
ROOT
ATOM      1  N   UNL     1       0.873   9.072  18.333  0.00  0.00    +0.000 N 
ATOM      2  C   UNL     1       0.443  10.374  18.457  0.00  0.00    +0.000 C 
ATOM      3  O   UNL     1       1.177  11.312  18.748  0.00  0.00    +0.000 OA
ATOM      4  H   UNL     1       0.279   8.412  17.849  0.00  0.00    +0.000 HD
ENDROOT
BRANCH   2   5
ATOM      5  C   UNL     1      -0.994  10.615  18.182  0.00  0.00    +0.000 A 
ATOM      6  C   UNL     1      -1.700   9.875  17.227  0.00  0.00    +0.000 A 
ATOM      7  C   UNL     1      -3.062  10.129  17.030  0.00  0.00    +0.000 A 
ATOM      8  C   UNL     1      -3.724  11.102  17.791  0.00  0.00    +0.000 A 
ATOM      9  C   UNL     1      -3.006  11.853  18.718  0.00  0.00    +0.000 A 
ATOM     10  C   UNL     1      -1.652  11.593  18.933  0.00  0.00    +0.000 A 
BRANCH   8  11
ATOM     11  O   UNL     1      -5.043  11.249  17.492  0.00  0.00    +0.000 OA
BRANCH  11  12
ATOM     12  C   UNL     1      -6.025  10.899  18.461  0.00  0.00    +0.000 C 
ATOM     13  F   UNL     1      -5.957   9.624  18.892  0.00  0.00    +0.000 F 
ATOM     14  F   UNL     1      -5.914  11.725  19.524  0.00  0.00    +0.000 F 
ATOM     15  F   UNL     1      -7.246  11.083  17.910  0.00  0.00    +0.000 F 
ENDBRANCH  11  12
ENDBRANCH   8  11
ENDBRANCH   2   5
BRANCH   1  16
ATOM     16  C   UNL     1       2.257   8.713  18.561  0.00  0.00    +0.000 C 
BRANCH  16  17
ATOM     17  C   UNL     1       2.767   7.609  17.624  0.00  0.00    +0.000 C 
BRANCH  17  24
ATOM     18  C   UNL     1       1.770   3.585  19.230  0.00  0.00    +0.000 A 
ATOM     19  C   UNL     1       2.139   2.657  18.262  0.00  0.00    +0.000 A 
ATOM     20  C   UNL     1       3.091   2.993  17.294  0.00  0.00    +0.000 A 
ATOM     21  C   UNL     1       3.665   4.274  17.264  0.00  0.00    +0.000 A 
ATOM     22  C   UNL     1       3.301   5.208  18.248  0.00  0.00    +0.000 A 
ATOM     23  C   UNL     1       2.396   4.827  19.254  0.00  0.00    +0.000 A 
ATOM     24  C   UNL     1       3.817   6.638  18.226  0.00  0.00    +0.000 C 
ATOM     25  C   UNL     1       5.144   6.732  17.446  0.00  0.00    +0.000 C 
ATOM     26  C   UNL     1       5.038   6.062  16.080  0.00  0.00    +0.000 C 
ATOM     27  C   UNL     1       4.726   4.575  16.233  0.00  0.00    +0.000 C 
BRANCH  18  29
ATOM     28  C   UNL     1       1.334   2.811  21.408  0.00  0.00    +0.000 C 
ATOM     29  O   UNL     1       0.819   3.189  20.132  0.00  0.00    +0.000 OA
ENDBRANCH  18  29
ENDBRANCH  17  24
ENDBRANCH  16  17
ENDBRANCH   1  16
TORSDOF 7
ENDMDL
MODEL 9
REMARK VINA RESULT:      -7.9      5.315      9.413
REMARK  Name = 
REMARK  8 active torsions:
REMARK  status: ('A' for Active; 'I' for Inactive)
REMARK    1  A    between atoms: C_1  and  O_2
REMARK    2  A    between atoms: O_2  and  C_3
REMARK    3  A    between atoms: C_9  and  C_10
REMARK    4  A    between atoms: C_10  and  C_11
REMARK    5  A    between atoms: C_11  and  N_12
REMARK    6  A    between atoms: C_13  and  C_15
REMARK    7  A    between atoms: C_18  and  O_19
REMARK    8  A    between atoms: O_19  and  C_20
REMARK                            x       y       z     vdW  Elec       q    Type
REMARK                         _______ _______ _______ _____ _____    ______ ____
ROOT
ATOM      1  N   UNL     1       1.708   7.003  21.135  0.00  0.00    +0.000 N 
ATOM      2  C   UNL     1       1.491   8.179  20.452  0.00  0.00    +0.000 C 
ATOM      3  O   UNL     1       1.810   8.359  19.282  0.00  0.00    +0.000 OA
ATOM      4  H   UNL     1       1.198   6.843  21.994  0.00  0.00    +0.000 HD
ENDROOT
BRANCH   2   5
ATOM      5  C   UNL     1       0.801   9.252  21.206  0.00  0.00    +0.000 A 
ATOM      6  C   UNL     1       0.791  10.580  20.764  0.00  0.00    +0.000 A 
ATOM      7  C   UNL     1       0.100  11.546  21.503  0.00  0.00    +0.000 A 
ATOM      8  C   UNL     1      -0.593  11.192  22.670  0.00  0.00    +0.000 A 
ATOM      9  C   UNL     1      -0.553   9.874  23.118  0.00  0.00    +0.000 A 
ATOM     10  C   UNL     1       0.119   8.902  22.375  0.00  0.00    +0.000 A 
BRANCH   8  11
ATOM     11  O   UNL     1      -1.215  12.229  23.292  0.00  0.00    +0.000 OA
BRANCH  11  12
ATOM     12  C   UNL     1      -2.616  12.412  23.122  0.00  0.00    +0.000 C 
ATOM     13  F   UNL     1      -3.063  12.181  21.871  0.00  0.00    +0.000 F 
ATOM     14  F   UNL     1      -3.276  11.602  23.977  0.00  0.00    +0.000 F 
ATOM     15  F   UNL     1      -2.917  13.692  23.437  0.00  0.00    +0.000 F 
ENDBRANCH  11  12
ENDBRANCH   8  11
ENDBRANCH   2   5
BRANCH   1  16
ATOM     16  C   UNL     1       2.360   5.875  20.502  0.00  0.00    +0.000 C 
BRANCH  16  17
ATOM     17  C   UNL     1       1.413   4.705  20.208  0.00  0.00    +0.000 C 
BRANCH  17  24
ATOM     18  C   UNL     1       4.469   5.738  17.148  0.00  0.00    +0.000 A 
ATOM     19  C   UNL     1       5.271   4.615  16.979  0.00  0.00    +0.000 A 
ATOM     20  C   UNL     1       4.793   3.350  17.334  0.00  0.00    +0.000 A 
ATOM     21  C   UNL     1       3.514   3.194  17.892  0.00  0.00    +0.000 A 
ATOM     22  C   UNL     1       2.698   4.327  18.054  0.00  0.00    +0.000 A 
ATOM     23  C   UNL     1       3.171   5.578  17.623  0.00  0.00    +0.000 A 
ATOM     24  C   UNL     1       1.338   4.245  18.728  0.00  0.00    +0.000 C 
ATOM     25  C   UNL     1       0.764   2.817  18.637  0.00  0.00    +0.000 C 
ATOM     26  C   UNL     1       1.778   1.776  19.100  0.00  0.00    +0.000 C 
ATOM     27  C   UNL     1       3.021   1.804  18.213  0.00  0.00    +0.000 C 
BRANCH  18  29
ATOM     28  C   UNL     1       6.380   7.107  17.168  0.00  0.00    +0.000 C 
ATOM     29  O   UNL     1       5.013   6.943  16.795  0.00  0.00    +0.000 OA
ENDBRANCH  18  29
ENDBRANCH  17  24
ENDBRANCH  16  17
ENDBRANCH   1  16
TORSDOF 7
ENDMDL
