MODEL 1
REMARK VINA RESULT:      -7.4      0.000      0.000
REMARK  Name = 
REMARK  9 active torsions:
REMARK  status: ('A' for Active; 'I' for Inactive)
REMARK    1  A    between atoms: C_1  and  C_2
REMARK    2  A    between atoms: C_2  and  C_3
REMARK    3  A    between atoms: N_10  and  O_11
REMARK    4  A    between atoms: O_11  and  C_12
REMARK    5  A    between atoms: C_12  and  C_13
REMARK    6  A    between atoms: C_13  and  C_14
REMARK    7  A    between atoms: C_14  and  N_15
REMARK    8  A    between atoms: N_15  and  S_16
REMARK    9  A    between atoms: S_16  and  C_19
REMARK                            x       y       z     vdW  Elec       q    Type
REMARK                         _______ _______ _______ _____ _____    ______ ____
ROOT
ATOM      1  O   UNL     1       2.806   6.024  19.328  0.00  0.00    +0.000 OA
ENDROOT
BRANCH   1  11
ATOM      2  C   UNL     1       1.762   3.423  18.104  0.00  0.00    +0.000 C 
ATOM      3  C   UNL     1       2.527   3.630  19.421  0.00  0.00    +0.000 C 
ATOM      4  C   UNL     1       1.499   3.846  20.549  0.00  0.00    +0.000 C 
ATOM      5  N   UNL     1       3.234   2.395  19.730  0.00  0.00    +0.000 NA
ATOM      6  C   UNL     1       4.499   2.309  19.928  0.00  0.00    +0.000 C 
ATOM      7  N   UNL     1       5.099   1.063  20.216  0.00  0.00    +0.000 N 
ATOM      8  N   UNL     1       5.316   3.439  19.807  0.00  0.00    +0.000 NA
ATOM      9  C   UNL     1       4.876   4.603  19.507  0.00  0.00    +0.000 C 
ATOM     10  N   UNL     1       5.899   5.587  19.340  0.00  0.00    +0.000 N 
ATOM     11  N   UNL     1       3.438   4.804  19.307  0.00  0.00    +0.000 N 
ATOM     12  H   UNL     1       4.533   0.206  20.282  0.00  0.00    +0.000 HD
ATOM     13  H   UNL     1       6.122   1.007  20.344  0.00  0.00    +0.000 HD
ATOM     14  H   UNL     1       6.861   5.335  19.608  0.00  0.00    +0.000 HD
ATOM     15  H   UNL     1       5.864   6.409  18.747  0.00  0.00    +0.000 HD
ENDBRANCH   1  11
BRANCH   1  16
ATOM     16  C   UNL     1       2.666   6.577  18.041  0.00  0.00    +0.000 C 
BRANCH  16  17
ATOM     17  C   UNL     1       3.900   7.384  17.614  0.00  0.00    +0.000 C 
BRANCH  17  18
ATOM     18  C   UNL     1       4.478   6.874  16.280  0.00  0.00    +0.000 C 
BRANCH  18  19
ATOM     19  N   UNL     1       5.920   6.624  16.398  0.00  0.00    +0.000 NA
ATOM     20  H   UNL     1       6.249   6.819  17.371  0.00  0.00    +0.000 HD
BRANCH  19  21
ATOM     21  S   UNL     1       6.297   4.953  15.963  0.00  0.00    +0.000 S 
ATOM     22  O   UNL     1       7.464   4.559  16.881  0.00  0.00    +0.000 OA
ATOM     23  O   UNL     1       5.139   4.110  16.520  0.00  0.00    +0.000 OA
BRANCH  21  24
ATOM     24  C   UNL     1       6.659   4.647  14.236  0.00  0.00    +0.000 A 
ATOM     25  C   UNL     1       7.645   5.398  13.580  0.00  0.00    +0.000 A 
ATOM     26  C   UNL     1       7.919   5.163  12.228  0.00  0.00    +0.000 A 
ATOM     27  C   UNL     1       7.209   4.182  11.530  0.00  0.00    +0.000 A 
ATOM     28  C   UNL     1       6.224   3.433  12.184  0.00  0.00    +0.000 A 
ATOM     29  C   UNL     1       5.950   3.665  13.534  0.00  0.00    +0.000 A 
ENDBRANCH  21  24
ENDBRANCH  19  21
ENDBRANCH  18  19
ENDBRANCH  17  18
ENDBRANCH  16  17
ENDBRANCH   1  16
TORSDOF 7
ENDMDL
MODEL 2
REMARK VINA RESULT:      -7.3      6.148      8.843
REMARK  Name = 
REMARK  9 active torsions:
REMARK  status: ('A' for Active; 'I' for Inactive)
REMARK    1  A    between atoms: C_1  and  C_2
REMARK    2  A    between atoms: C_2  and  C_3
REMARK    3  A    between atoms: N_10  and  O_11
REMARK    4  A    between atoms: O_11  and  C_12
REMARK    5  A    between atoms: C_12  and  C_13
REMARK    6  A    between atoms: C_13  and  C_14
REMARK    7  A    between atoms: C_14  and  N_15
REMARK    8  A    between atoms: N_15  and  S_16
REMARK    9  A    between atoms: S_16  and  C_19
REMARK                            x       y       z     vdW  Elec       q    Type
REMARK                         _______ _______ _______ _____ _____    ______ ____
ROOT
ATOM      1  O   UNL     1       8.771  10.966  19.465  0.00  0.00    +0.000 OA
ENDROOT
BRANCH   1  11
ATOM      2  C   UNL     1      11.708  11.766  19.762  0.00  0.00    +0.000 C 
ATOM      3  C   UNL     1      10.451  12.635  19.927  0.00  0.00    +0.000 C 
ATOM      4  C   UNL     1      10.018  12.586  21.406  0.00  0.00    +0.000 C 
ATOM      5  N   UNL     1      10.817  14.015  19.643  0.00  0.00    +0.000 NA
ATOM      6  C   UNL     1      10.249  14.754  18.761  0.00  0.00    +0.000 C 
ATOM      7  N   UNL     1      10.678  16.083  18.551  0.00  0.00    +0.000 N 
ATOM      8  N   UNL     1       9.230  14.238  17.951  0.00  0.00    +0.000 NA
ATOM      9  C   UNL     1       8.800  13.035  18.033  0.00  0.00    +0.000 C 
ATOM     10  N   UNL     1       7.827  12.696  17.043  0.00  0.00    +0.000 N 
ATOM     11  N   UNL     1       9.360  12.133  19.043  0.00  0.00    +0.000 N 
ATOM     12  H   UNL     1      11.445  16.485  19.107  0.00  0.00    +0.000 HD
ATOM     13  H   UNL     1      10.229  16.654  17.817  0.00  0.00    +0.000 HD
ATOM     14  H   UNL     1       7.449  13.454  16.456  0.00  0.00    +0.000 HD
ATOM     15  H   UNL     1       7.649  11.778  16.652  0.00  0.00    +0.000 HD
ENDBRANCH   1  11
BRANCH   1  16
ATOM     16  C   UNL     1       9.200   9.849  18.723  0.00  0.00    +0.000 C 
BRANCH  16  17
ATOM     17  C   UNL     1       8.062   9.211  17.915  0.00  0.00    +0.000 C 
BRANCH  17  18
ATOM     18  C   UNL     1       8.026   7.682  18.095  0.00  0.00    +0.000 C 
BRANCH  18  19
ATOM     19  N   UNL     1       7.611   7.021  16.851  0.00  0.00    +0.000 NA
ATOM     20  H   UNL     1       8.405   6.978  16.173  0.00  0.00    +0.000 HD
BRANCH  19  21
ATOM     21  S   UNL     1       7.020   5.389  17.183  0.00  0.00    +0.000 S 
ATOM     22  O   UNL     1       7.518   4.540  16.003  0.00  0.00    +0.000 OA
ATOM     23  O   UNL     1       7.877   4.869  18.348  0.00  0.00    +0.000 OA
BRANCH  21  24
ATOM     24  C   UNL     1       5.256   5.222  17.442  0.00  0.00    +0.000 A 
ATOM     25  C   UNL     1       4.634   3.977  17.267  0.00  0.00    +0.000 A 
ATOM     26  C   UNL     1       3.254   3.852  17.460  0.00  0.00    +0.000 A 
ATOM     27  C   UNL     1       2.494   4.967  17.825  0.00  0.00    +0.000 A 
ATOM     28  C   UNL     1       3.114   6.209  17.999  0.00  0.00    +0.000 A 
ATOM     29  C   UNL     1       4.492   6.336  17.808  0.00  0.00    +0.000 A 
ENDBRANCH  21  24
ENDBRANCH  19  21
ENDBRANCH  18  19
ENDBRANCH  17  18
ENDBRANCH  16  17
ENDBRANCH   1  16
TORSDOF 7
ENDMDL
MODEL 3
REMARK VINA RESULT:      -7.2      4.486      7.449
REMARK  Name = 
REMARK  9 active torsions:
REMARK  status: ('A' for Active; 'I' for Inactive)
REMARK    1  A    between atoms: C_1  and  C_2
REMARK    2  A    between atoms: C_2  and  C_3
REMARK    3  A    between atoms: N_10  and  O_11
REMARK    4  A    between atoms: O_11  and  C_12
REMARK    5  A    between atoms: C_12  and  C_13
REMARK    6  A    between atoms: C_13  and  C_14
REMARK    7  A    between atoms: C_14  and  N_15
REMARK    8  A    between atoms: N_15  and  S_16
REMARK    9  A    between atoms: S_16  and  C_19
REMARK                            x       y       z     vdW  Elec       q    Type
REMARK                         _______ _______ _______ _____ _____    ______ ____
ROOT
ATOM      1  O   UNL     1       2.452   5.974  17.900  0.00  0.00    +0.000 OA
ENDROOT
BRANCH   1  11
ATOM      2  C   UNL     1       4.274   3.553  18.313  0.00  0.00    +0.000 C 
ATOM      3  C   UNL     1       2.818   3.751  18.762  0.00  0.00    +0.000 C 
ATOM      4  C   UNL     1       1.892   3.224  17.648  0.00  0.00    +0.000 C 
ATOM      5  N   UNL     1       2.589   2.912  19.930  0.00  0.00    +0.000 NA
ATOM      6  C   UNL     1       2.165   3.340  21.063  0.00  0.00    +0.000 C 
ATOM      7  N   UNL     1       1.979   2.449  22.144  0.00  0.00    +0.000 N 
ATOM      8  N   UNL     1       1.933   4.705  21.266  0.00  0.00    +0.000 NA
ATOM      9  C   UNL     1       2.113   5.597  20.366  0.00  0.00    +0.000 C 
ATOM     10  N   UNL     1       1.910   6.935  20.822  0.00  0.00    +0.000 N 
ATOM     11  N   UNL     1       2.553   5.194  19.026  0.00  0.00    +0.000 N 
ATOM     12  H   UNL     1       2.169   1.443  22.039  0.00  0.00    +0.000 HD
ATOM     13  H   UNL     1       1.664   2.815  23.057  0.00  0.00    +0.000 HD
ATOM     14  H   UNL     1       1.506   7.071  21.759  0.00  0.00    +0.000 HD
ATOM     15  H   UNL     1       2.353   7.775  20.465  0.00  0.00    +0.000 HD
ENDBRANCH   1  11
BRANCH   1  16
ATOM     16  C   UNL     1       3.619   6.724  17.660  0.00  0.00    +0.000 C 
BRANCH  16  17
ATOM     17  C   UNL     1       3.361   8.237  17.705  0.00  0.00    +0.000 C 
BRANCH  17  18
ATOM     18  C   UNL     1       1.854   8.556  17.726  0.00  0.00    +0.000 C 
BRANCH  18  19
ATOM     19  N   UNL     1       1.625   9.999  17.580  0.00  0.00    +0.000 NA
ATOM     20  H   UNL     1       1.273  10.222  16.622  0.00  0.00    +0.000 HD
BRANCH  19  21
ATOM     21  S   UNL     1       0.469  10.568  18.789  0.00  0.00    +0.000 S 
ATOM     22  O   UNL     1       0.653   9.625  19.988  0.00  0.00    +0.000 OA
ATOM     23  O   UNL     1       1.042  11.892  19.319  0.00  0.00    +0.000 OA
BRANCH  21  24
ATOM     24  C   UNL     1      -1.241  10.670  18.264  0.00  0.00    +0.000 A 
ATOM     25  C   UNL     1      -1.699   9.877  17.203  0.00  0.00    +0.000 A 
ATOM     26  C   UNL     1      -3.032   9.966  16.787  0.00  0.00    +0.000 A 
ATOM     27  C   UNL     1      -3.907  10.848  17.429  0.00  0.00    +0.000 A 
ATOM     28  C   UNL     1      -3.450  11.640  18.487  0.00  0.00    +0.000 A 
ATOM     29  C   UNL     1      -2.120  11.552  18.904  0.00  0.00    +0.000 A 
ENDBRANCH  21  24
ENDBRANCH  19  21
ENDBRANCH  18  19
ENDBRANCH  17  18
ENDBRANCH  16  17
ENDBRANCH   1  16
TORSDOF 7
ENDMDL
MODEL 4
REMARK VINA RESULT:      -7.2      6.100      8.767
REMARK  Name = 
REMARK  9 active torsions:
REMARK  status: ('A' for Active; 'I' for Inactive)
REMARK    1  A    between atoms: C_1  and  C_2
REMARK    2  A    between atoms: C_2  and  C_3
REMARK    3  A    between atoms: N_10  and  O_11
REMARK    4  A    between atoms: O_11  and  C_12
REMARK    5  A    between atoms: C_12  and  C_13
REMARK    6  A    between atoms: C_13  and  C_14
REMARK    7  A    between atoms: C_14  and  N_15
REMARK    8  A    between atoms: N_15  and  S_16
REMARK    9  A    between atoms: S_16  and  C_19
REMARK                            x       y       z     vdW  Elec       q    Type
REMARK                         _______ _______ _______ _____ _____    ______ ____
ROOT
ATOM      1  O   UNL     1       8.769  10.891  19.015  0.00  0.00    +0.000 OA
ENDROOT
BRANCH   1  11
ATOM      2  C   UNL     1      11.759  11.528  19.108  0.00  0.00    +0.000 C 
ATOM      3  C   UNL     1      10.573  12.406  19.535  0.00  0.00    +0.000 C 
ATOM      4  C   UNL     1      10.291  12.147  21.028  0.00  0.00    +0.000 C 
ATOM      5  N   UNL     1      10.980  13.800  19.421  0.00  0.00    +0.000 NA
ATOM      6  C   UNL     1      10.365  14.685  18.726  0.00  0.00    +0.000 C 
ATOM      7  N   UNL     1      10.840  16.014  18.670  0.00  0.00    +0.000 N 
ATOM      8  N   UNL     1       9.244  14.337  17.963  0.00  0.00    +0.000 NA
ATOM      9  C   UNL     1       8.761  13.153  17.911  0.00  0.00    +0.000 C 
ATOM     10  N   UNL     1       7.676  13.005  16.993  0.00  0.00    +0.000 N 
ATOM     11  N   UNL     1       9.373  12.086  18.710  0.00  0.00    +0.000 N 
ATOM     12  H   UNL     1      11.680  16.298  19.194  0.00  0.00    +0.000 HD
ATOM     13  H   UNL     1      10.349  16.707  18.083  0.00  0.00    +0.000 HD
ATOM     14  H   UNL     1       7.282  13.857  16.571  0.00  0.00    +0.000 HD
ATOM     15  H   UNL     1       7.411  12.164  16.492  0.00  0.00    +0.000 HD
ENDBRANCH   1  11
BRANCH   1  16
ATOM     16  C   UNL     1       8.774   9.994  17.930  0.00  0.00    +0.000 C 
BRANCH  16  17
ATOM     17  C   UNL     1       8.493   8.549  18.363  0.00  0.00    +0.000 C 
BRANCH  17  18
ATOM     18  C   UNL     1       7.260   7.970  17.644  0.00  0.00    +0.000 C 
BRANCH  18  19
ATOM     19  N   UNL     1       7.643   6.854  16.770  0.00  0.00    +0.000 NA
ATOM     20  H   UNL     1       8.677   6.841  16.621  0.00  0.00    +0.000 HD
BRANCH  19  21
ATOM     21  S   UNL     1       7.118   5.316  17.463  0.00  0.00    +0.000 S 
ATOM     22  O   UNL     1       7.827   4.242  16.624  0.00  0.00    +0.000 OA
ATOM     23  O   UNL     1       7.838   5.205  18.816  0.00  0.00    +0.000 OA
BRANCH  21  24
ATOM     24  C   UNL     1       5.350   5.048  17.553  0.00  0.00    +0.000 A 
ATOM     25  C   UNL     1       4.522   6.013  18.143  0.00  0.00    +0.000 A 
ATOM     26  C   UNL     1       3.141   5.798  18.221  0.00  0.00    +0.000 A 
ATOM     27  C   UNL     1       2.587   4.619  17.712  0.00  0.00    +0.000 A 
ATOM     28  C   UNL     1       3.414   3.656  17.124  0.00  0.00    +0.000 A 
ATOM     29  C   UNL     1       4.792   3.870  17.044  0.00  0.00    +0.000 A 
ENDBRANCH  21  24
ENDBRANCH  19  21
ENDBRANCH  18  19
ENDBRANCH  17  18
ENDBRANCH  16  17
ENDBRANCH   1  16
TORSDOF 7
ENDMDL
MODEL 5
REMARK VINA RESULT:      -7.1      4.334      7.216
REMARK  Name = 
REMARK  9 active torsions:
REMARK  status: ('A' for Active; 'I' for Inactive)
REMARK    1  A    between atoms: C_1  and  C_2
REMARK    2  A    between atoms: C_2  and  C_3
REMARK    3  A    between atoms: N_10  and  O_11
REMARK    4  A    between atoms: O_11  and  C_12
REMARK    5  A    between atoms: C_12  and  C_13
REMARK    6  A    between atoms: C_13  and  C_14
REMARK    7  A    between atoms: C_14  and  N_15
REMARK    8  A    between atoms: N_15  and  S_16
REMARK    9  A    between atoms: S_16  and  C_19
REMARK                            x       y       z     vdW  Elec       q    Type
REMARK                         _______ _______ _______ _____ _____    ______ ____
ROOT
ATOM      1  O   UNL     1       2.695   6.120  19.444  0.00  0.00    +0.000 OA
ENDROOT
BRANCH   1  11
ATOM      2  C   UNL     1       1.372   3.453  18.746  0.00  0.00    +0.000 C 
ATOM      3  C   UNL     1       2.459   3.744  19.793  0.00  0.00    +0.000 C 
ATOM      4  C   UNL     1       1.767   4.063  21.133  0.00  0.00    +0.000 C 
ATOM      5  N   UNL     1       3.227   2.525  19.997  0.00  0.00    +0.000 NA
ATOM      6  C   UNL     1       4.499   2.432  19.859  0.00  0.00    +0.000 C 
ATOM      7  N   UNL     1       5.158   1.201  20.073  0.00  0.00    +0.000 N 
ATOM      8  N   UNL     1       5.251   3.535  19.439  0.00  0.00    +0.000 NA
ATOM      9  C   UNL     1       4.743   4.681  19.178  0.00  0.00    +0.000 C 
ATOM     10  N   UNL     1       5.681   5.632  18.670  0.00  0.00    +0.000 N 
ATOM     11  N   UNL     1       3.303   4.891  19.351  0.00  0.00    +0.000 N 
ATOM     12  H   UNL     1       4.633   0.361  20.353  0.00  0.00    +0.000 HD
ATOM     13  H   UNL     1       6.179   1.137  19.930  0.00  0.00    +0.000 HD
ATOM     14  H   UNL     1       6.680   5.384  18.692  0.00  0.00    +0.000 HD
ATOM     15  H   UNL     1       5.487   6.407  18.045  0.00  0.00    +0.000 HD
ENDBRANCH   1  11
BRANCH   1  16
ATOM     16  C   UNL     1       2.304   6.621  18.188  0.00  0.00    +0.000 C 
BRANCH  16  17
ATOM     17  C   UNL     1       3.103   7.867  17.781  0.00  0.00    +0.000 C 
BRANCH  17  18
ATOM     18  C   UNL     1       2.237   9.140  17.834  0.00  0.00    +0.000 C 
BRANCH  18  19
ATOM     19  N   UNL     1       1.301   9.087  18.963  0.00  0.00    +0.000 NA
ATOM     20  H   UNL     1       1.805   8.858  19.850  0.00  0.00    +0.000 HD
BRANCH  19  21
ATOM     21  S   UNL     1       0.452  10.627  19.138  0.00  0.00    +0.000 S 
ATOM     22  O   UNL     1       0.467  10.917  20.647  0.00  0.00    +0.000 OA
ATOM     23  O   UNL     1       1.413  11.693  18.587  0.00  0.00    +0.000 OA
BRANCH  21  24
ATOM     24  C   UNL     1      -1.199  10.704  18.449  0.00  0.00    +0.000 A 
ATOM     25  C   UNL     1      -2.155  11.564  19.008  0.00  0.00    +0.000 A 
ATOM     26  C   UNL     1      -3.447  11.616  18.474  0.00  0.00    +0.000 A 
ATOM     27  C   UNL     1      -3.787  10.809  17.384  0.00  0.00    +0.000 A 
ATOM     28  C   UNL     1      -2.833   9.950  16.826  0.00  0.00    +0.000 A 
ATOM     29  C   UNL     1      -1.543   9.898  17.358  0.00  0.00    +0.000 A 
ENDBRANCH  21  24
ENDBRANCH  19  21
ENDBRANCH  18  19
ENDBRANCH  17  18
ENDBRANCH  16  17
ENDBRANCH   1  16
TORSDOF 7
ENDMDL
MODEL 6
REMARK VINA RESULT:      -7.1      2.684      6.660
REMARK  Name = 
REMARK  9 active torsions:
REMARK  status: ('A' for Active; 'I' for Inactive)
REMARK    1  A    between atoms: C_1  and  C_2
REMARK    2  A    between atoms: C_2  and  C_3
REMARK    3  A    between atoms: N_10  and  O_11
REMARK    4  A    between atoms: O_11  and  C_12
REMARK    5  A    between atoms: C_12  and  C_13
REMARK    6  A    between atoms: C_13  and  C_14
REMARK    7  A    between atoms: C_14  and  N_15
REMARK    8  A    between atoms: N_15  and  S_16
REMARK    9  A    between atoms: S_16  and  C_19
REMARK                            x       y       z     vdW  Elec       q    Type
REMARK                         _______ _______ _______ _____ _____    ______ ____
ROOT
ATOM      1  O   UNL     1       6.443   4.090  17.765  0.00  0.00    +0.000 OA
ENDROOT
BRANCH   1  11
ATOM      2  C   UNL     1       4.989   6.519  16.607  0.00  0.00    +0.000 C 
ATOM      3  C   UNL     1       6.501   6.276  16.746  0.00  0.00    +0.000 C 
ATOM      4  C   UNL     1       7.005   5.604  15.454  0.00  0.00    +0.000 C 
ATOM      5  N   UNL     1       7.159   7.572  16.828  0.00  0.00    +0.000 NA
ATOM      6  C   UNL     1       7.931   7.939  17.785  0.00  0.00    +0.000 C 
ATOM      7  N   UNL     1       8.521   9.222  17.782  0.00  0.00    +0.000 N 
ATOM      8  N   UNL     1       8.157   7.096  18.879  0.00  0.00    +0.000 NA
ATOM      9  C   UNL     1       7.635   5.933  18.998  0.00  0.00    +0.000 C 
ATOM     10  N   UNL     1       7.924   5.288  20.240  0.00  0.00    +0.000 N 
ATOM     11  N   UNL     1       6.776   5.413  17.930  0.00  0.00    +0.000 N 
ATOM     12  H   UNL     1       8.352   9.881  17.009  0.00  0.00    +0.000 HD
ATOM     13  H   UNL     1       9.117   9.512  18.574  0.00  0.00    +0.000 HD
ATOM     14  H   UNL     1       8.622   5.723  20.859  0.00  0.00    +0.000 HD
ATOM     15  H   UNL     1       7.348   4.608  20.722  0.00  0.00    +0.000 HD
ENDBRANCH   1  11
BRANCH   1  16
ATOM     16  C   UNL     1       5.256   3.747  18.438  0.00  0.00    +0.000 C 
BRANCH  16  17
ATOM     17  C   UNL     1       4.251   3.034  17.523  0.00  0.00    +0.000 C 
BRANCH  17  18
ATOM     18  C   UNL     1       3.459   1.952  18.283  0.00  0.00    +0.000 C 
BRANCH  18  19
ATOM     19  N   UNL     1       3.239   2.352  19.679  0.00  0.00    +0.000 NA
ATOM     20  H   UNL     1       4.032   2.940  20.023  0.00  0.00    +0.000 HD
BRANCH  19  21
ATOM     21  S   UNL     1       1.722   3.244  19.837  0.00  0.00    +0.000 S 
ATOM     22  O   UNL     1       0.792   2.635  18.776  0.00  0.00    +0.000 OA
ATOM     23  O   UNL     1       1.090   2.754  21.149  0.00  0.00    +0.000 OA
BRANCH  21  24
ATOM     24  C   UNL     1       1.832   5.026  19.699  0.00  0.00    +0.000 A 
ATOM     25  C   UNL     1       1.644   5.832  20.831  0.00  0.00    +0.000 A 
ATOM     26  C   UNL     1       1.720   7.225  20.719  0.00  0.00    +0.000 A 
ATOM     27  C   UNL     1       1.982   7.813  19.478  0.00  0.00    +0.000 A 
ATOM     28  C   UNL     1       2.168   7.010  18.348  0.00  0.00    +0.000 A 
ATOM     29  C   UNL     1       2.093   5.619  18.458  0.00  0.00    +0.000 A 
ENDBRANCH  21  24
ENDBRANCH  19  21
ENDBRANCH  18  19
ENDBRANCH  17  18
ENDBRANCH  16  17
ENDBRANCH   1  16
TORSDOF 7
ENDMDL
MODEL 7
REMARK VINA RESULT:      -7.1      4.447      7.714
REMARK  Name = 
REMARK  9 active torsions:
REMARK  status: ('A' for Active; 'I' for Inactive)
REMARK    1  A    between atoms: C_1  and  C_2
REMARK    2  A    between atoms: C_2  and  C_3
REMARK    3  A    between atoms: N_10  and  O_11
REMARK    4  A    between atoms: O_11  and  C_12
REMARK    5  A    between atoms: C_12  and  C_13
REMARK    6  A    between atoms: C_13  and  C_14
REMARK    7  A    between atoms: C_14  and  N_15
REMARK    8  A    between atoms: N_15  and  S_16
REMARK    9  A    between atoms: S_16  and  C_19
REMARK                            x       y       z     vdW  Elec       q    Type
REMARK                         _______ _______ _______ _____ _____    ______ ____
ROOT
ATOM      1  O   UNL     1       1.944   5.696  18.346  0.00  0.00    +0.000 OA
ENDROOT
BRANCH   1  11
ATOM      2  C   UNL     1       0.886   3.155  19.678  0.00  0.00    +0.000 C 
ATOM      3  C   UNL     1       2.231   3.867  19.893  0.00  0.00    +0.000 C 
ATOM      4  C   UNL     1       2.064   4.881  21.041  0.00  0.00    +0.000 C 
ATOM      5  N   UNL     1       3.198   2.877  20.344  0.00  0.00    +0.000 NA
ATOM      6  C   UNL     1       4.318   2.636  19.768  0.00  0.00    +0.000 C 
ATOM      7  N   UNL     1       5.192   1.649  20.277  0.00  0.00    +0.000 N 
ATOM      8  N   UNL     1       4.671   3.306  18.590  0.00  0.00    +0.000 NA
ATOM      9  C   UNL     1       3.931   4.185  18.026  0.00  0.00    +0.000 C 
ATOM     10  N   UNL     1       4.443   4.666  16.782  0.00  0.00    +0.000 N 
ATOM     11  N   UNL     1       2.653   4.557  18.640  0.00  0.00    +0.000 N 
ATOM     12  H   UNL     1       4.951   1.115  21.123  0.00  0.00    +0.000 HD
ATOM     13  H   UNL     1       6.076   1.447  19.783  0.00  0.00    +0.000 HD
ATOM     14  H   UNL     1       5.400   4.394  16.516  0.00  0.00    +0.000 HD
ATOM     15  H   UNL     1       3.907   5.018  15.996  0.00  0.00    +0.000 HD
ENDBRANCH   1  11
BRANCH   1  16
ATOM     16  C   UNL     1       2.779   6.812  18.148  0.00  0.00    +0.000 C 
BRANCH  16  17
ATOM     17  C   UNL     1       2.186   8.098  18.738  0.00  0.00    +0.000 C 
BRANCH  17  18
ATOM     18  C   UNL     1       1.567   8.992  17.646  0.00  0.00    +0.000 C 
BRANCH  18  19
ATOM     19  N   UNL     1       1.504  10.390  18.090  0.00  0.00    +0.000 NA
ATOM     20  H   UNL     1       1.733  11.038  17.302  0.00  0.00    +0.000 HD
BRANCH  19  21
ATOM     21  S   UNL     1      -0.101  10.766  18.728  0.00  0.00    +0.000 S 
ATOM     22  O   UNL     1      -0.363  12.220  18.306  0.00  0.00    +0.000 OA
ATOM     23  O   UNL     1      -1.089   9.984  17.847  0.00  0.00    +0.000 OA
BRANCH  21  24
ATOM     24  C   UNL     1      -0.333  10.517  20.486  0.00  0.00    +0.000 A 
ATOM     25  C   UNL     1      -0.224   9.231  21.034  0.00  0.00    +0.000 A 
ATOM     26  C   UNL     1      -0.416   9.038  22.407  0.00  0.00    +0.000 A 
ATOM     27  C   UNL     1      -0.720  10.126  23.231  0.00  0.00    +0.000 A 
ATOM     28  C   UNL     1      -0.830  11.408  22.684  0.00  0.00    +0.000 A 
ATOM     29  C   UNL     1      -0.638  11.603  21.314  0.00  0.00    +0.000 A 
ENDBRANCH  21  24
ENDBRANCH  19  21
ENDBRANCH  18  19
ENDBRANCH  17  18
ENDBRANCH  16  17
ENDBRANCH   1  16
TORSDOF 7
ENDMDL
MODEL 8
REMARK VINA RESULT:      -7.1      4.404      7.645
REMARK  Name = 
REMARK  9 active torsions:
REMARK  status: ('A' for Active; 'I' for Inactive)
REMARK    1  A    between atoms: C_1  and  C_2
REMARK    2  A    between atoms: C_2  and  C_3
REMARK    3  A    between atoms: N_10  and  O_11
REMARK    4  A    between atoms: O_11  and  C_12
REMARK    5  A    between atoms: C_12  and  C_13
REMARK    6  A    between atoms: C_13  and  C_14
REMARK    7  A    between atoms: C_14  and  N_15
REMARK    8  A    between atoms: N_15  and  S_16
REMARK    9  A    between atoms: S_16  and  C_19
REMARK                            x       y       z     vdW  Elec       q    Type
REMARK                         _______ _______ _______ _____ _____    ______ ____
ROOT
ATOM      1  O   UNL     1       1.987   5.934  18.107  0.00  0.00    +0.000 OA
ENDROOT
BRANCH   1  11
ATOM      2  C   UNL     1       0.989   3.090  18.628  0.00  0.00    +0.000 C 
ATOM      3  C   UNL     1       2.097   3.870  19.353  0.00  0.00    +0.000 C 
ATOM      4  C   UNL     1       1.465   4.616  20.544  0.00  0.00    +0.000 C 
ATOM      5  N   UNL     1       3.035   2.907  19.912  0.00  0.00    +0.000 NA
ATOM      6  C   UNL     1       4.295   2.892  19.672  0.00  0.00    +0.000 C 
ATOM      7  N   UNL     1       5.127   1.911  20.256  0.00  0.00    +0.000 N 
ATOM      8  N   UNL     1       4.860   3.812  18.781  0.00  0.00    +0.000 NA
ATOM      9  C   UNL     1       4.186   4.711  18.167  0.00  0.00    +0.000 C 
ATOM     10  N   UNL     1       4.950   5.475  17.233  0.00  0.00    +0.000 N 
ATOM     11  N   UNL     1       2.747   4.831  18.415  0.00  0.00    +0.000 N 
ATOM     12  H   UNL     1       4.740   1.199  20.892  0.00  0.00    +0.000 HD
ATOM     13  H   UNL     1       6.134   1.896  20.030  0.00  0.00    +0.000 HD
ATOM     14  H   UNL     1       5.973   5.354  17.230  0.00  0.00    +0.000 HD
ATOM     15  H   UNL     1       4.610   5.923  16.389  0.00  0.00    +0.000 HD
ENDBRANCH   1  11
BRANCH   1  16
ATOM     16  C   UNL     1       2.510   7.117  18.662  0.00  0.00    +0.000 C 
BRANCH  16  17
ATOM     17  C   UNL     1       2.774   8.193  17.600  0.00  0.00    +0.000 C 
BRANCH  17  18
ATOM     18  C   UNL     1       2.169   9.552  18.005  0.00  0.00    +0.000 C 
BRANCH  18  19
ATOM     19  N   UNL     1       0.709   9.537  17.855  0.00  0.00    +0.000 NA
ATOM     20  H   UNL     1       0.316   8.617  18.159  0.00  0.00    +0.000 HD
BRANCH  19  21
ATOM     21  S   UNL     1      -0.024  10.840  18.796  0.00  0.00    +0.000 S 
ATOM     22  O   UNL     1       0.899  12.050  18.583  0.00  0.00    +0.000 OA
ATOM     23  O   UNL     1      -1.288  11.249  18.022  0.00  0.00    +0.000 OA
BRANCH  21  24
ATOM     24  C   UNL     1      -0.308  10.502  20.532  0.00  0.00    +0.000 A 
ATOM     25  C   UNL     1      -0.656  11.543  21.404  0.00  0.00    +0.000 A 
ATOM     26  C   UNL     1      -0.867  11.278  22.762  0.00  0.00    +0.000 A 
ATOM     27  C   UNL     1      -0.729   9.974  23.249  0.00  0.00    +0.000 A 
ATOM     28  C   UNL     1      -0.381   8.935  22.380  0.00  0.00    +0.000 A 
ATOM     29  C   UNL     1      -0.170   9.199  21.024  0.00  0.00    +0.000 A 
ENDBRANCH  21  24
ENDBRANCH  19  21
ENDBRANCH  18  19
ENDBRANCH  17  18
ENDBRANCH  16  17
ENDBRANCH   1  16
TORSDOF 7
ENDMDL
MODEL 9
REMARK VINA RESULT:      -7.1      5.846      8.519
REMARK  Name = 
REMARK  9 active torsions:
REMARK  status: ('A' for Active; 'I' for Inactive)
REMARK    1  A    between atoms: C_1  and  C_2
REMARK    2  A    between atoms: C_2  and  C_3
REMARK    3  A    between atoms: N_10  and  O_11
REMARK    4  A    between atoms: O_11  and  C_12
REMARK    5  A    between atoms: C_12  and  C_13
REMARK    6  A    between atoms: C_13  and  C_14
REMARK    7  A    between atoms: C_14  and  N_15
REMARK    8  A    between atoms: N_15  and  S_16
REMARK    9  A    between atoms: S_16  and  C_19
REMARK                            x       y       z     vdW  Elec       q    Type
REMARK                         _______ _______ _______ _____ _____    ______ ____
ROOT
ATOM      1  O   UNL     1       9.756  10.758  18.615  0.00  0.00    +0.000 OA
ENDROOT
BRANCH   1  11
ATOM      2  C   UNL     1       7.891  12.727  17.202  0.00  0.00    +0.000 C 
ATOM      3  C   UNL     1       9.109  13.022  18.091  0.00  0.00    +0.000 C 
ATOM      4  C   UNL     1      10.356  13.114  17.190  0.00  0.00    +0.000 C 
ATOM      5  N   UNL     1       8.924  14.338  18.687  0.00  0.00    +0.000 NA
ATOM      6  C   UNL     1       8.940  14.577  19.947  0.00  0.00    +0.000 C 
ATOM      7  N   UNL     1       8.744  15.889  20.433  0.00  0.00    +0.000 N 
ATOM      8  N   UNL     1       9.095  13.533  20.867  0.00  0.00    +0.000 NA
ATOM      9  C   UNL     1       9.236  12.306  20.530  0.00  0.00    +0.000 C 
ATOM     10  N   UNL     1       9.278  11.400  21.634  0.00  0.00    +0.000 N 
ATOM     11  N   UNL     1       9.275  11.946  19.110  0.00  0.00    +0.000 N 
ATOM     12  H   UNL     1       8.597  16.676  19.787  0.00  0.00    +0.000 HD
ATOM     13  H   UNL     1       8.732  16.059  21.452  0.00  0.00    +0.000 HD
ATOM     14  H   UNL     1       9.340  11.796  22.582  0.00  0.00    +0.000 HD
ATOM     15  H   UNL     1       8.986  10.429  21.637  0.00  0.00    +0.000 HD
ENDBRANCH   1  11
BRANCH   1  16
ATOM     16  C   UNL     1       8.972   9.656  19.008  0.00  0.00    +0.000 C 
BRANCH  16  17
ATOM     17  C   UNL     1       8.150   9.080  17.847  0.00  0.00    +0.000 C 
BRANCH  17  18
ATOM     18  C   UNL     1       7.944   7.560  17.996  0.00  0.00    +0.000 C 
BRANCH  18  19
ATOM     19  N   UNL     1       7.037   7.054  16.958  0.00  0.00    +0.000 NA
ATOM     20  H   UNL     1       7.472   7.143  16.012  0.00  0.00    +0.000 HD
BRANCH  19  21
ATOM     21  S   UNL     1       6.623   5.364  17.268  0.00  0.00    +0.000 S 
ATOM     22  O   UNL     1       7.270   4.580  16.115  0.00  0.00    +0.000 OA
ATOM     23  O   UNL     1       7.479   4.943  18.473  0.00  0.00    +0.000 OA
BRANCH  21  24
ATOM     24  C   UNL     1       4.880   4.994  17.445  0.00  0.00    +0.000 A 
ATOM     25  C   UNL     1       4.017   5.935  18.026  0.00  0.00    +0.000 A 
ATOM     26  C   UNL     1       2.657   5.640  18.173  0.00  0.00    +0.000 A 
ATOM     27  C   UNL     1       2.158   4.407  17.742  0.00  0.00    +0.000 A 
ATOM     28  C   UNL     1       3.019   3.468  17.163  0.00  0.00    +0.000 A 
ATOM     29  C   UNL     1       4.376   3.761  17.015  0.00  0.00    +0.000 A 
ENDBRANCH  21  24
ENDBRANCH  19  21
ENDBRANCH  18  19
ENDBRANCH  17  18
ENDBRANCH  16  17
ENDBRANCH   1  16
TORSDOF 7
ENDMDL
