MODEL 1
REMARK VINA RESULT:      -7.1      0.000      0.000
REMARK  Name = 
REMARK  13 active torsions:
REMARK  status: ('A' for Active; 'I' for Inactive)
REMARK    1  A    between atoms: C_1  and  O_2
REMARK    2  A    between atoms: O_2  and  C_3
REMARK    3  A    between atoms: C_5  and  C_6
REMARK    4  A    between atoms: C_6  and  C_7
REMARK    5  A    between atoms: C_7  and  C_8
REMARK    6  A    between atoms: C_8  and  N_9
REMARK    7  A    between atoms: C_10  and  S_11
REMARK    8  A    between atoms: C_14  and  C_15
REMARK    9  A    between atoms: C_15  and  C_16
REMARK   10  A    between atoms: C_23  and  O_24
REMARK   11  A    between atoms: O_24  and  C_25
REMARK   12  A    between atoms: C_26  and  O_27
REMARK   13  A    between atoms: O_27  and  C_28
REMARK                            x       y       z     vdW  Elec       q    Type
REMARK                         _______ _______ _______ _____ _____    ______ ____
ROOT
ATOM      1  C   UNL     1       2.246   5.531  18.244  0.00  0.00    +0.000 C 
ENDROOT
BRANCH   1   2
ATOM      2  N   UNL     1       2.989   4.342  18.615  0.00  0.00    +0.000 N 
ATOM      3  C   UNL     1       2.943   3.641  19.796  0.00  0.00    +0.000 C 
ATOM      4  N   UNL     1       3.645   2.547  19.864  0.00  0.00    +0.000 NA
ATOM      5  C   UNL     1       4.350   2.485  18.554  0.00  0.00    +0.000 C 
ATOM      6  C   UNL     1       3.595   3.452  17.617  0.00  0.00    +0.000 C 
BRANCH   3   7
ATOM      7  S   UNL     1       1.996   4.111  21.173  0.00  0.00    +0.000 S 
ATOM      8  H   UNL     1       2.837   3.695  22.120  0.00  0.00    +0.000 HD
ENDBRANCH   3   7
BRANCH   6   9
ATOM      9  C   UNL     1       4.510   4.151  16.604  0.00  0.00    +0.000 C 
BRANCH   9  10
ATOM     10  C   UNL     1       5.611   5.030  17.167  0.00  0.00    +0.000 A 
ATOM     11  C   UNL     1       6.623   4.544  18.011  0.00  0.00    +0.000 A 
ATOM     12  C   UNL     1       7.624   5.396  18.492  0.00  0.00    +0.000 A 
ATOM     13  C   UNL     1       7.648   6.735  18.113  0.00  0.00    +0.000 A 
ATOM     14  C   UNL     1       6.673   7.225  17.251  0.00  0.00    +0.000 A 
ATOM     15  C   UNL     1       5.666   6.377  16.779  0.00  0.00    +0.000 A 
ENDBRANCH   9  10
ENDBRANCH   6   9
ENDBRANCH   1   2
BRANCH   1  16
ATOM     16  C   UNL     1       2.831   6.792  18.876  0.00  0.00    +0.000 C 
BRANCH  16  17
ATOM     17  C   UNL     1       2.507   8.022  18.028  0.00  0.00    +0.000 C 
BRANCH  17  20
ATOM     18  C   UNL     1      -0.456  10.376  18.572  0.00  0.00    +0.000 A 
ATOM     19  C   UNL     1       0.546   9.608  17.949  0.00  0.00    +0.000 A 
ATOM     20  C   UNL     1       1.533   8.962  18.693  0.00  0.00    +0.000 A 
ATOM     21  C   UNL     1       1.570   9.185  20.070  0.00  0.00    +0.000 A 
ATOM     22  C   UNL     1       0.630  10.013  20.710  0.00  0.00    +0.000 A 
ATOM     23  C   UNL     1      -0.406  10.618  19.963  0.00  0.00    +0.000 A 
BRANCH  18  25
ATOM     24  C   UNL     1      -2.606  10.088  17.603  0.00  0.00    +0.000 C 
ATOM     25  O   UNL     1      -1.467  10.923  17.821  0.00  0.00    +0.000 OA
ENDBRANCH  18  25
BRANCH  22  26
ATOM     26  O   UNL     1       0.877  10.089  22.060  0.00  0.00    +0.000 OA
ATOM     27  C   UNL     1       0.033   9.397  22.969  0.00  0.00    +0.000 C 
ENDBRANCH  22  26
BRANCH  23  28
ATOM     28  O   UNL     1      -1.273  11.404  20.672  0.00  0.00    +0.000 OA
ATOM     29  C   UNL     1      -1.051  12.796  20.819  0.00  0.00    +0.000 C 
ENDBRANCH  23  28
ENDBRANCH  17  20
ENDBRANCH  16  17
ENDBRANCH   1  16
TORSDOF 10
ENDMDL
MODEL 2
REMARK VINA RESULT:      -7.0      2.087      3.620
REMARK  Name = 
REMARK  13 active torsions:
REMARK  status: ('A' for Active; 'I' for Inactive)
REMARK    1  A    between atoms: C_1  and  O_2
REMARK    2  A    between atoms: O_2  and  C_3
REMARK    3  A    between atoms: C_5  and  C_6
REMARK    4  A    between atoms: C_6  and  C_7
REMARK    5  A    between atoms: C_7  and  C_8
REMARK    6  A    between atoms: C_8  and  N_9
REMARK    7  A    between atoms: C_10  and  S_11
REMARK    8  A    between atoms: C_14  and  C_15
REMARK    9  A    between atoms: C_15  and  C_16
REMARK   10  A    between atoms: C_23  and  O_24
REMARK   11  A    between atoms: O_24  and  C_25
REMARK   12  A    between atoms: C_26  and  O_27
REMARK   13  A    between atoms: O_27  and  C_28
REMARK                            x       y       z     vdW  Elec       q    Type
REMARK                         _______ _______ _______ _____ _____    ______ ____
ROOT
ATOM      1  C   UNL     1       4.731   6.096  18.826  0.00  0.00    +0.000 C 
ENDROOT
BRANCH   1   2
ATOM      2  N   UNL     1       5.394   5.499  17.683  0.00  0.00    +0.000 N 
ATOM      3  C   UNL     1       6.533   5.922  17.041  0.00  0.00    +0.000 C 
ATOM      4  N   UNL     1       6.989   5.168  16.083  0.00  0.00    +0.000 NA
ATOM      5  C   UNL     1       5.992   4.066  15.982  0.00  0.00    +0.000 C 
ATOM      6  C   UNL     1       5.186   4.098  17.298  0.00  0.00    +0.000 C 
BRANCH   3   7
ATOM      7  S   UNL     1       7.400   7.371  17.444  0.00  0.00    +0.000 S 
ATOM      8  H   UNL     1       7.276   7.989  16.269  0.00  0.00    +0.000 HD
ENDBRANCH   3   7
BRANCH   6   9
ATOM      9  C   UNL     1       3.719   3.692  17.120  0.00  0.00    +0.000 C 
BRANCH   9  10
ATOM     10  C   UNL     1       2.949   3.335  18.378  0.00  0.00    +0.000 A 
ATOM     11  C   UNL     1       3.574   3.006  19.591  0.00  0.00    +0.000 A 
ATOM     12  C   UNL     1       2.816   2.697  20.726  0.00  0.00    +0.000 A 
ATOM     13  C   UNL     1       1.425   2.742  20.676  0.00  0.00    +0.000 A 
ATOM     14  C   UNL     1       0.790   3.100  19.490  0.00  0.00    +0.000 A 
ATOM     15  C   UNL     1       1.547   3.397  18.353  0.00  0.00    +0.000 A 
ENDBRANCH   9  10
ENDBRANCH   6   9
ENDBRANCH   1   2
BRANCH   1  16
ATOM     16  C   UNL     1       3.425   6.785  18.434  0.00  0.00    +0.000 C 
BRANCH  16  17
ATOM     17  C   UNL     1       2.442   6.787  19.605  0.00  0.00    +0.000 C 
BRANCH  17  20
ATOM     18  C   UNL     1       0.408   9.924  18.811  0.00  0.00    +0.000 A 
ATOM     19  C   UNL     1       1.205   8.774  18.663  0.00  0.00    +0.000 A 
ATOM     20  C   UNL     1       1.718   8.099  19.771  0.00  0.00    +0.000 A 
ATOM     21  C   UNL     1       1.512   8.655  21.033  0.00  0.00    +0.000 A 
ATOM     22  C   UNL     1       0.787   9.849  21.206  0.00  0.00    +0.000 A 
ATOM     23  C   UNL     1       0.216  10.498  20.087  0.00  0.00    +0.000 A 
BRANCH  18  25
ATOM     24  C   UNL     1      -1.518  10.163  17.440  0.00  0.00    +0.000 C 
ATOM     25  O   UNL     1      -0.158  10.512  17.707  0.00  0.00    +0.000 OA
ENDBRANCH  18  25
BRANCH  22  26
ATOM     26  O   UNL     1       0.728  10.204  22.532  0.00  0.00    +0.000 OA
ATOM     27  C   UNL     1      -0.061   9.439  23.431  0.00  0.00    +0.000 C 
ENDBRANCH  22  26
BRANCH  23  28
ATOM     28  O   UNL     1      -0.472  11.651  20.354  0.00  0.00    +0.000 OA
ATOM     29  C   UNL     1       0.160  12.917  20.287  0.00  0.00    +0.000 C 
ENDBRANCH  23  28
ENDBRANCH  17  20
ENDBRANCH  16  17
ENDBRANCH   1  16
TORSDOF 10
ENDMDL
MODEL 3
REMARK VINA RESULT:      -6.9      1.177      1.637
REMARK  Name = 
REMARK  13 active torsions:
REMARK  status: ('A' for Active; 'I' for Inactive)
REMARK    1  A    between atoms: C_1  and  O_2
REMARK    2  A    between atoms: O_2  and  C_3
REMARK    3  A    between atoms: C_5  and  C_6
REMARK    4  A    between atoms: C_6  and  C_7
REMARK    5  A    between atoms: C_7  and  C_8
REMARK    6  A    between atoms: C_8  and  N_9
REMARK    7  A    between atoms: C_10  and  S_11
REMARK    8  A    between atoms: C_14  and  C_15
REMARK    9  A    between atoms: C_15  and  C_16
REMARK   10  A    between atoms: C_23  and  O_24
REMARK   11  A    between atoms: O_24  and  C_25
REMARK   12  A    between atoms: C_26  and  O_27
REMARK   13  A    between atoms: O_27  and  C_28
REMARK                            x       y       z     vdW  Elec       q    Type
REMARK                         _______ _______ _______ _____ _____    ______ ____
ROOT
ATOM      1  C   UNL     1       2.646   5.492  18.182  0.00  0.00    +0.000 C 
ENDROOT
BRANCH   1   2
ATOM      2  N   UNL     1       3.144   4.374  18.960  0.00  0.00    +0.000 N 
ATOM      3  C   UNL     1       2.484   3.635  19.912  0.00  0.00    +0.000 C 
ATOM      4  N   UNL     1       3.118   2.618  20.418  0.00  0.00    +0.000 NA
ATOM      5  C   UNL     1       4.460   2.669  19.775  0.00  0.00    +0.000 C 
ATOM      6  C   UNL     1       4.307   3.583  18.541  0.00  0.00    +0.000 C 
BRANCH   3   7
ATOM      7  S   UNL     1       0.868   3.963  20.453  0.00  0.00    +0.000 S 
ATOM      8  H   UNL     1       0.632   5.027  19.686  0.00  0.00    +0.000 HD
ENDBRANCH   3   7
BRANCH   6   9
ATOM      9  C   UNL     1       5.566   4.402  18.234  0.00  0.00    +0.000 C 
BRANCH   9  10
ATOM     10  C   UNL     1       5.969   4.519  16.775  0.00  0.00    +0.000 A 
ATOM     11  C   UNL     1       7.250   4.919  16.365  0.00  0.00    +0.000 A 
ATOM     12  C   UNL     1       7.573   4.998  15.005  0.00  0.00    +0.000 A 
ATOM     13  C   UNL     1       6.635   4.648  14.038  0.00  0.00    +0.000 A 
ATOM     14  C   UNL     1       5.371   4.216  14.429  0.00  0.00    +0.000 A 
ATOM     15  C   UNL     1       5.044   4.149  15.787  0.00  0.00    +0.000 A 
ENDBRANCH   9  10
ENDBRANCH   6   9
ENDBRANCH   1   2
BRANCH   1  16
ATOM     16  C   UNL     1       2.706   6.804  18.961  0.00  0.00    +0.000 C 
BRANCH  16  17
ATOM     17  C   UNL     1       2.436   7.993  18.039  0.00  0.00    +0.000 C 
BRANCH  17  20
ATOM     18  C   UNL     1      -0.559  10.349  18.348  0.00  0.00    +0.000 A 
ATOM     19  C   UNL     1       0.459   9.543  17.804  0.00  0.00    +0.000 A 
ATOM     20  C   UNL     1       1.444   8.974  18.611  0.00  0.00    +0.000 A 
ATOM     21  C   UNL     1       1.462   9.314  19.964  0.00  0.00    +0.000 A 
ATOM     22  C   UNL     1       0.505  10.183  20.521  0.00  0.00    +0.000 A 
ATOM     23  C   UNL     1      -0.529  10.709  19.713  0.00  0.00    +0.000 A 
BRANCH  18  25
ATOM     24  C   UNL     1      -2.549   9.859  17.146  0.00  0.00    +0.000 C 
ATOM     25  O   UNL     1      -1.566  10.818  17.541  0.00  0.00    +0.000 OA
ENDBRANCH  18  25
BRANCH  22  26
ATOM     26  O   UNL     1       0.735  10.376  21.862  0.00  0.00    +0.000 OA
ATOM     27  C   UNL     1       0.948   9.255  22.708  0.00  0.00    +0.000 C 
ENDBRANCH  22  26
BRANCH  23  28
ATOM     28  O   UNL     1      -1.412  11.543  20.344  0.00  0.00    +0.000 OA
ATOM     29  C   UNL     1      -1.233  12.948  20.333  0.00  0.00    +0.000 C 
ENDBRANCH  23  28
ENDBRANCH  17  20
ENDBRANCH  16  17
ENDBRANCH   1  16
TORSDOF 10
ENDMDL
MODEL 4
REMARK VINA RESULT:      -6.9      2.447      4.352
REMARK  Name = 
REMARK  13 active torsions:
REMARK  status: ('A' for Active; 'I' for Inactive)
REMARK    1  A    between atoms: C_1  and  O_2
REMARK    2  A    between atoms: O_2  and  C_3
REMARK    3  A    between atoms: C_5  and  C_6
REMARK    4  A    between atoms: C_6  and  C_7
REMARK    5  A    between atoms: C_7  and  C_8
REMARK    6  A    between atoms: C_8  and  N_9
REMARK    7  A    between atoms: C_10  and  S_11
REMARK    8  A    between atoms: C_14  and  C_15
REMARK    9  A    between atoms: C_15  and  C_16
REMARK   10  A    between atoms: C_23  and  O_24
REMARK   11  A    between atoms: O_24  and  C_25
REMARK   12  A    between atoms: C_26  and  O_27
REMARK   13  A    between atoms: O_27  and  C_28
REMARK                            x       y       z     vdW  Elec       q    Type
REMARK                         _______ _______ _______ _____ _____    ______ ____
ROOT
ATOM      1  C   UNL     1       4.656   6.507  18.186  0.00  0.00    +0.000 C 
ENDROOT
BRANCH   1   2
ATOM      2  N   UNL     1       5.621   5.940  17.264  0.00  0.00    +0.000 N 
ATOM      3  C   UNL     1       6.870   6.412  16.938  0.00  0.00    +0.000 C 
ATOM      4  N   UNL     1       7.592   5.678  16.142  0.00  0.00    +0.000 NA
ATOM      5  C   UNL     1       6.704   4.534  15.797  0.00  0.00    +0.000 C 
ATOM      6  C   UNL     1       5.581   4.531  16.856  0.00  0.00    +0.000 C 
BRANCH   3   7
ATOM      7  S   UNL     1       7.537   7.898  17.537  0.00  0.00    +0.000 S 
ATOM      8  H   UNL     1       8.540   7.375  18.242  0.00  0.00    +0.000 HD
ENDBRANCH   3   7
BRANCH   6   9
ATOM      9  C   UNL     1       4.230   4.059  16.304  0.00  0.00    +0.000 C 
BRANCH   9  10
ATOM     10  C   UNL     1       3.248   3.477  17.303  0.00  0.00    +0.000 A 
ATOM     11  C   UNL     1       1.970   4.016  17.524  0.00  0.00    +0.000 A 
ATOM     12  C   UNL     1       1.098   3.432  18.450  0.00  0.00    +0.000 A 
ATOM     13  C   UNL     1       1.474   2.284  19.143  0.00  0.00    +0.000 A 
ATOM     14  C   UNL     1       2.723   1.718  18.910  0.00  0.00    +0.000 A 
ATOM     15  C   UNL     1       3.599   2.308  17.995  0.00  0.00    +0.000 A 
ENDBRANCH   9  10
ENDBRANCH   6   9
ENDBRANCH   1   2
BRANCH   1  16
ATOM     16  C   UNL     1       3.868   7.653  17.557  0.00  0.00    +0.000 C 
BRANCH  16  17
ATOM     17  C   UNL     1       2.372   7.497  17.833  0.00  0.00    +0.000 C 
BRANCH  17  20
ATOM     18  C   UNL     1       0.639   9.633  20.488  0.00  0.00    +0.000 A 
ATOM     19  C   UNL     1       1.082   8.524  19.743  0.00  0.00    +0.000 A 
ATOM     20  C   UNL     1       1.773   8.686  18.543  0.00  0.00    +0.000 A 
ATOM     21  C   UNL     1       1.920   9.978  18.037  0.00  0.00    +0.000 A 
ATOM     22  C   UNL     1       1.416  11.100  18.720  0.00  0.00    +0.000 A 
ATOM     23  C   UNL     1       0.770  10.939  19.967  0.00  0.00    +0.000 A 
BRANCH  18  25
ATOM     24  C   UNL     1       0.928   9.334  22.827  0.00  0.00    +0.000 C 
ATOM     25  O   UNL     1       0.043   9.443  21.711  0.00  0.00    +0.000 OA
ENDBRANCH  18  25
BRANCH  22  26
ATOM     26  O   UNL     1       1.671  12.257  18.024  0.00  0.00    +0.000 OA
ATOM     27  C   UNL     1       2.844  13.005  18.308  0.00  0.00    +0.000 C 
ENDBRANCH  22  26
BRANCH  23  28
ATOM     28  O   UNL     1       0.315  12.088  20.556  0.00  0.00    +0.000 OA
ATOM     29  C   UNL     1      -1.007  12.551  20.341  0.00  0.00    +0.000 C 
ENDBRANCH  23  28
ENDBRANCH  17  20
ENDBRANCH  16  17
ENDBRANCH   1  16
TORSDOF 10
ENDMDL
MODEL 5
REMARK VINA RESULT:      -6.9      2.175      3.612
REMARK  Name = 
REMARK  13 active torsions:
REMARK  status: ('A' for Active; 'I' for Inactive)
REMARK    1  A    between atoms: C_1  and  O_2
REMARK    2  A    between atoms: O_2  and  C_3
REMARK    3  A    between atoms: C_5  and  C_6
REMARK    4  A    between atoms: C_6  and  C_7
REMARK    5  A    between atoms: C_7  and  C_8
REMARK    6  A    between atoms: C_8  and  N_9
REMARK    7  A    between atoms: C_10  and  S_11
REMARK    8  A    between atoms: C_14  and  C_15
REMARK    9  A    between atoms: C_15  and  C_16
REMARK   10  A    between atoms: C_23  and  O_24
REMARK   11  A    between atoms: O_24  and  C_25
REMARK   12  A    between atoms: C_26  and  O_27
REMARK   13  A    between atoms: O_27  and  C_28
REMARK                            x       y       z     vdW  Elec       q    Type
REMARK                         _______ _______ _______ _____ _____    ______ ____
ROOT
ATOM      1  C   UNL     1       4.519   7.201  17.027  0.00  0.00    +0.000 C 
ENDROOT
BRANCH   1   2
ATOM      2  N   UNL     1       5.642   6.323  17.292  0.00  0.00    +0.000 N 
ATOM      3  C   UNL     1       6.946   6.662  17.563  0.00  0.00    +0.000 C 
ATOM      4  N   UNL     1       7.763   5.692  17.854  0.00  0.00    +0.000 NA
ATOM      5  C   UNL     1       6.934   4.463  17.713  0.00  0.00    +0.000 C 
ATOM      6  C   UNL     1       5.465   4.935  17.736  0.00  0.00    +0.000 C 
BRANCH   3   7
ATOM      7  S   UNL     1       7.551   8.289  17.563  0.00  0.00    +0.000 S 
ATOM      8  H   UNL     1       8.749   8.036  17.037  0.00  0.00    +0.000 HD
ENDBRANCH   3   7
BRANCH   6   9
ATOM      9  C   UNL     1       4.543   4.089  16.849  0.00  0.00    +0.000 C 
BRANCH   9  10
ATOM     10  C   UNL     1       3.349   3.440  17.525  0.00  0.00    +0.000 A 
ATOM     11  C   UNL     1       3.394   2.155  18.089  0.00  0.00    +0.000 A 
ATOM     12  C   UNL     1       2.266   1.608  18.713  0.00  0.00    +0.000 A 
ATOM     13  C   UNL     1       1.090   2.346  18.810  0.00  0.00    +0.000 A 
ATOM     14  C   UNL     1       1.039   3.633  18.285  0.00  0.00    +0.000 A 
ATOM     15  C   UNL     1       2.161   4.176  17.652  0.00  0.00    +0.000 A 
ENDBRANCH   9  10
ENDBRANCH   6   9
ENDBRANCH   1   2
BRANCH   1  16
ATOM     16  C   UNL     1       3.666   7.432  18.272  0.00  0.00    +0.000 C 
BRANCH  16  17
ATOM     17  C   UNL     1       2.209   7.690  17.889  0.00  0.00    +0.000 C 
BRANCH  17  20
ATOM     18  C   UNL     1       0.125  10.746  18.855  0.00  0.00    +0.000 A 
ATOM     19  C   UNL     1       0.852   9.807  18.100  0.00  0.00    +0.000 A 
ATOM     20  C   UNL     1       1.561   8.774  18.713  0.00  0.00    +0.000 A 
ATOM     21  C   UNL     1       1.624   8.757  20.107  0.00  0.00    +0.000 A 
ATOM     22  C   UNL     1       0.975   9.730  20.888  0.00  0.00    +0.000 A 
ATOM     23  C   UNL     1       0.206  10.741  20.266  0.00  0.00    +0.000 A 
BRANCH  18  25
ATOM     24  C   UNL     1      -1.998  11.340  17.972  0.00  0.00    +0.000 C 
ATOM     25  O   UNL     1      -0.637  11.695  18.220  0.00  0.00    +0.000 OA
ENDBRANCH  18  25
BRANCH  22  26
ATOM     26  O   UNL     1       1.191   9.513  22.228  0.00  0.00    +0.000 OA
ATOM     27  C   UNL     1       0.083   9.352  23.102  0.00  0.00    +0.000 C 
ENDBRANCH  22  26
BRANCH  23  28
ATOM     28  O   UNL     1      -0.389  11.641  21.107  0.00  0.00    +0.000 OA
ATOM     29  C   UNL     1       0.216  12.889  21.398  0.00  0.00    +0.000 C 
ENDBRANCH  23  28
ENDBRANCH  17  20
ENDBRANCH  16  17
ENDBRANCH   1  16
TORSDOF 10
ENDMDL
MODEL 6
REMARK VINA RESULT:      -6.9      0.801      2.481
REMARK  Name = 
REMARK  13 active torsions:
REMARK  status: ('A' for Active; 'I' for Inactive)
REMARK    1  A    between atoms: C_1  and  O_2
REMARK    2  A    between atoms: O_2  and  C_3
REMARK    3  A    between atoms: C_5  and  C_6
REMARK    4  A    between atoms: C_6  and  C_7
REMARK    5  A    between atoms: C_7  and  C_8
REMARK    6  A    between atoms: C_8  and  N_9
REMARK    7  A    between atoms: C_10  and  S_11
REMARK    8  A    between atoms: C_14  and  C_15
REMARK    9  A    between atoms: C_15  and  C_16
REMARK   10  A    between atoms: C_23  and  O_24
REMARK   11  A    between atoms: O_24  and  C_25
REMARK   12  A    between atoms: C_26  and  O_27
REMARK   13  A    between atoms: O_27  and  C_28
REMARK                            x       y       z     vdW  Elec       q    Type
REMARK                         _______ _______ _______ _____ _____    ______ ____
ROOT
ATOM      1  C   UNL     1       3.336   6.709  18.481  0.00  0.00    +0.000 C 
ENDROOT
BRANCH   1   2
ATOM      2  N   UNL     1       3.421   5.261  18.488  0.00  0.00    +0.000 N 
ATOM      3  C   UNL     1       2.924   4.382  19.419  0.00  0.00    +0.000 C 
ATOM      4  N   UNL     1       3.052   3.112  19.163  0.00  0.00    +0.000 NA
ATOM      5  C   UNL     1       3.808   3.074  17.881  0.00  0.00    +0.000 C 
ATOM      6  C   UNL     1       3.683   4.485  17.270  0.00  0.00    +0.000 C 
BRANCH   3   7
ATOM      7  S   UNL     1       2.128   4.860  20.885  0.00  0.00    +0.000 S 
ATOM      8  H   UNL     1       3.111   5.606  21.390  0.00  0.00    +0.000 HD
ENDBRANCH   3   7
BRANCH   6   9
ATOM      9  C   UNL     1       4.927   4.918  16.486  0.00  0.00    +0.000 C 
BRANCH   9  10
ATOM     10  C   UNL     1       6.033   5.594  17.276  0.00  0.00    +0.000 A 
ATOM     11  C   UNL     1       6.702   4.973  18.342  0.00  0.00    +0.000 A 
ATOM     12  C   UNL     1       7.725   5.638  19.029  0.00  0.00    +0.000 A 
ATOM     13  C   UNL     1       8.116   6.917  18.642  0.00  0.00    +0.000 A 
ATOM     14  C   UNL     1       7.486   7.533  17.566  0.00  0.00    +0.000 A 
ATOM     15  C   UNL     1       6.457   6.875  16.887  0.00  0.00    +0.000 A 
ENDBRANCH   9  10
ENDBRANCH   6   9
ENDBRANCH   1   2
BRANCH   1  16
ATOM     16  C   UNL     1       1.951   7.200  18.067  0.00  0.00    +0.000 C 
BRANCH  16  17
ATOM     17  C   UNL     1       1.964   8.708  17.816  0.00  0.00    +0.000 C 
BRANCH  17  20
ATOM     18  C   UNL     1       0.357  10.355  20.869  0.00  0.00    +0.000 A 
ATOM     19  C   UNL     1       1.176   9.541  20.064  0.00  0.00    +0.000 A 
ATOM     20  C   UNL     1       0.989   9.463  18.684  0.00  0.00    +0.000 A 
ATOM     21  C   UNL     1      -0.105  10.128  18.130  0.00  0.00    +0.000 A 
ATOM     22  C   UNL     1      -0.989  10.884  18.922  0.00  0.00    +0.000 A 
ATOM     23  C   UNL     1      -0.762  11.013  20.311  0.00  0.00    +0.000 A 
BRANCH  18  25
ATOM     24  C   UNL     1       0.009   9.517  23.064  0.00  0.00    +0.000 C 
ATOM     25  O   UNL     1       0.624  10.482  22.209  0.00  0.00    +0.000 OA
ENDBRANCH  18  25
BRANCH  22  26
ATOM     26  O   UNL     1      -1.991  11.434  18.157  0.00  0.00    +0.000 OA
ATOM     27  C   UNL     1      -2.305  10.863  16.896  0.00  0.00    +0.000 C 
ENDBRANCH  22  26
BRANCH  23  28
ATOM     28  O   UNL     1      -1.674  11.768  20.997  0.00  0.00    +0.000 OA
ATOM     29  C   UNL     1      -1.468  13.153  21.213  0.00  0.00    +0.000 C 
ENDBRANCH  23  28
ENDBRANCH  17  20
ENDBRANCH  16  17
ENDBRANCH   1  16
TORSDOF 10
ENDMDL
MODEL 7
REMARK VINA RESULT:      -6.9      2.052      4.287
REMARK  Name = 
REMARK  13 active torsions:
REMARK  status: ('A' for Active; 'I' for Inactive)
REMARK    1  A    between atoms: C_1  and  O_2
REMARK    2  A    between atoms: O_2  and  C_3
REMARK    3  A    between atoms: C_5  and  C_6
REMARK    4  A    between atoms: C_6  and  C_7
REMARK    5  A    between atoms: C_7  and  C_8
REMARK    6  A    between atoms: C_8  and  N_9
REMARK    7  A    between atoms: C_10  and  S_11
REMARK    8  A    between atoms: C_14  and  C_15
REMARK    9  A    between atoms: C_15  and  C_16
REMARK   10  A    between atoms: C_23  and  O_24
REMARK   11  A    between atoms: O_24  and  C_25
REMARK   12  A    between atoms: C_26  and  O_27
REMARK   13  A    between atoms: O_27  and  C_28
REMARK                            x       y       z     vdW  Elec       q    Type
REMARK                         _______ _______ _______ _____ _____    ______ ____
ROOT
ATOM      1  C   UNL     1       4.553   5.644  18.979  0.00  0.00    +0.000 C 
ENDROOT
BRANCH   1   2
ATOM      2  N   UNL     1       5.088   5.098  17.746  0.00  0.00    +0.000 N 
ATOM      3  C   UNL     1       6.132   5.569  16.987  0.00  0.00    +0.000 C 
ATOM      4  N   UNL     1       6.485   4.855  15.957  0.00  0.00    +0.000 NA
ATOM      5  C   UNL     1       5.509   3.732  15.942  0.00  0.00    +0.000 C 
ATOM      6  C   UNL     1       4.867   3.704  17.344  0.00  0.00    +0.000 C 
BRANCH   3   7
ATOM      7  S   UNL     1       7.007   7.028  17.330  0.00  0.00    +0.000 S 
ATOM      8  H   UNL     1       7.641   6.605  18.424  0.00  0.00    +0.000 HD
ENDBRANCH   3   7
BRANCH   6   9
ATOM      9  C   UNL     1       3.398   3.264  17.330  0.00  0.00    +0.000 C 
BRANCH   9  10
ATOM     10  C   UNL     1       2.732   3.053  18.677  0.00  0.00    +0.000 A 
ATOM     11  C   UNL     1       3.432   2.633  19.820  0.00  0.00    +0.000 A 
ATOM     12  C   UNL     1       2.771   2.467  21.042  0.00  0.00    +0.000 A 
ATOM     13  C   UNL     1       1.412   2.746  21.150  0.00  0.00    +0.000 A 
ATOM     14  C   UNL     1       0.711   3.195  20.036  0.00  0.00    +0.000 A 
ATOM     15  C   UNL     1       1.368   3.351  18.812  0.00  0.00    +0.000 A 
ENDBRANCH   9  10
ENDBRANCH   6   9
ENDBRANCH   1   2
BRANCH   1  16
ATOM     16  C   UNL     1       3.415   6.629  18.723  0.00  0.00    +0.000 C 
BRANCH  16  17
ATOM     17  C   UNL     1       2.391   6.580  19.857  0.00  0.00    +0.000 C 
BRANCH  17  20
ATOM     18  C   UNL     1       0.899   9.669  21.542  0.00  0.00    +0.000 A 
ATOM     19  C   UNL     1       1.448   8.389  21.341  0.00  0.00    +0.000 A 
ATOM     20  C   UNL     1       1.664   7.886  20.058  0.00  0.00    +0.000 A 
ATOM     21  C   UNL     1       1.219   8.639  18.972  0.00  0.00    +0.000 A 
ATOM     22  C   UNL     1       0.592   9.887  19.145  0.00  0.00    +0.000 A 
ATOM     23  C   UNL     1       0.430  10.423  20.443  0.00  0.00    +0.000 A 
BRANCH  18  25
ATOM     24  C   UNL     1      -0.200   9.557  23.644  0.00  0.00    +0.000 C 
ATOM     25  O   UNL     1       0.784  10.174  22.813  0.00  0.00    +0.000 OA
ENDBRANCH  18  25
BRANCH  22  26
ATOM     26  O   UNL     1       0.232  10.431  17.936  0.00  0.00    +0.000 OA
ATOM     27  C   UNL     1      -1.089  10.250  17.448  0.00  0.00    +0.000 C 
ENDBRANCH  22  26
BRANCH  23  28
ATOM     28  O   UNL     1      -0.189  11.642  20.511  0.00  0.00    +0.000 OA
ATOM     29  C   UNL     1      -1.553  11.755  20.878  0.00  0.00    +0.000 C 
ENDBRANCH  23  28
ENDBRANCH  17  20
ENDBRANCH  16  17
ENDBRANCH   1  16
TORSDOF 10
ENDMDL
MODEL 8
REMARK VINA RESULT:      -6.9      2.266      4.222
REMARK  Name = 
REMARK  13 active torsions:
REMARK  status: ('A' for Active; 'I' for Inactive)
REMARK    1  A    between atoms: C_1  and  O_2
REMARK    2  A    between atoms: O_2  and  C_3
REMARK    3  A    between atoms: C_5  and  C_6
REMARK    4  A    between atoms: C_6  and  C_7
REMARK    5  A    between atoms: C_7  and  C_8
REMARK    6  A    between atoms: C_8  and  N_9
REMARK    7  A    between atoms: C_10  and  S_11
REMARK    8  A    between atoms: C_14  and  C_15
REMARK    9  A    between atoms: C_15  and  C_16
REMARK   10  A    between atoms: C_23  and  O_24
REMARK   11  A    between atoms: O_24  and  C_25
REMARK   12  A    between atoms: C_26  and  O_27
REMARK   13  A    between atoms: O_27  and  C_28
REMARK                            x       y       z     vdW  Elec       q    Type
REMARK                         _______ _______ _______ _____ _____    ______ ____
ROOT
ATOM      1  C   UNL     1       4.204   6.122  18.755  0.00  0.00    +0.000 C 
ENDROOT
BRANCH   1   2
ATOM      2  N   UNL     1       4.907   5.398  17.713  0.00  0.00    +0.000 N 
ATOM      3  C   UNL     1       5.999   5.802  16.982  0.00  0.00    +0.000 C 
ATOM      4  N   UNL     1       6.510   4.938  16.154  0.00  0.00    +0.000 NA
ATOM      5  C   UNL     1       5.614   3.754  16.265  0.00  0.00    +0.000 C 
ATOM      6  C   UNL     1       4.821   3.940  17.575  0.00  0.00    +0.000 C 
BRANCH   3   7
ATOM      7  S   UNL     1       6.737   7.367  17.115  0.00  0.00    +0.000 S 
ATOM      8  H   UNL     1       5.982   8.000  16.217  0.00  0.00    +0.000 HD
ENDBRANCH   3   7
BRANCH   6   9
ATOM      9  C   UNL     1       3.393   3.384  17.503  0.00  0.00    +0.000 C 
BRANCH   9  10
ATOM     10  C   UNL     1       2.683   3.147  18.823  0.00  0.00    +0.000 A 
ATOM     11  C   UNL     1       3.358   2.808  20.006  0.00  0.00    +0.000 A 
ATOM     12  C   UNL     1       2.654   2.614  21.200  0.00  0.00    +0.000 A 
ATOM     13  C   UNL     1       1.273   2.785  21.239  0.00  0.00    +0.000 A 
ATOM     14  C   UNL     1       0.593   3.155  20.082  0.00  0.00    +0.000 A 
ATOM     15  C   UNL     1       1.294   3.338  18.887  0.00  0.00    +0.000 A 
ENDBRANCH   9  10
ENDBRANCH   6   9
ENDBRANCH   1   2
BRANCH   1  16
ATOM     16  C   UNL     1       2.854   6.649  18.274  0.00  0.00    +0.000 C 
BRANCH  16  17
ATOM     17  C   UNL     1       2.989   8.077  17.744  0.00  0.00    +0.000 C 
BRANCH  17  20
ATOM     18  C   UNL     1       0.562   9.589  20.281  0.00  0.00    +0.000 A 
ATOM     19  C   UNL     1       1.304   8.658  19.530  0.00  0.00    +0.000 A 
ATOM     20  C   UNL     1       2.083   9.058  18.445  0.00  0.00    +0.000 A 
ATOM     21  C   UNL     1       2.023  10.395  18.049  0.00  0.00    +0.000 A 
ATOM     22  C   UNL     1       1.226  11.332  18.731  0.00  0.00    +0.000 A 
ATOM     23  C   UNL     1       0.485  10.938  19.869  0.00  0.00    +0.000 A 
BRANCH  18  25
ATOM     24  C   UNL     1       0.586   9.285  22.637  0.00  0.00    +0.000 C 
ATOM     25  O   UNL     1      -0.121   9.179  21.400  0.00  0.00    +0.000 OA
ENDBRANCH  18  25
BRANCH  22  26
ATOM     26  O   UNL     1       1.320  12.575  18.152  0.00  0.00    +0.000 OA
ATOM     27  C   UNL     1       2.493  13.353  18.342  0.00  0.00    +0.000 C 
ENDBRANCH  22  26
BRANCH  23  28
ATOM     28  O   UNL     1      -0.258  11.919  20.466  0.00  0.00    +0.000 OA
ATOM     29  C   UNL     1       0.314  12.800  21.418  0.00  0.00    +0.000 C 
ENDBRANCH  23  28
ENDBRANCH  17  20
ENDBRANCH  16  17
ENDBRANCH   1  16
TORSDOF 10
ENDMDL
MODEL 9
REMARK VINA RESULT:      -6.8      2.228      4.332
REMARK  Name = 
REMARK  13 active torsions:
REMARK  status: ('A' for Active; 'I' for Inactive)
REMARK    1  A    between atoms: C_1  and  O_2
REMARK    2  A    between atoms: O_2  and  C_3
REMARK    3  A    between atoms: C_5  and  C_6
REMARK    4  A    between atoms: C_6  and  C_7
REMARK    5  A    between atoms: C_7  and  C_8
REMARK    6  A    between atoms: C_8  and  N_9
REMARK    7  A    between atoms: C_10  and  S_11
REMARK    8  A    between atoms: C_14  and  C_15
REMARK    9  A    between atoms: C_15  and  C_16
REMARK   10  A    between atoms: C_23  and  O_24
REMARK   11  A    between atoms: O_24  and  C_25
REMARK   12  A    between atoms: C_26  and  O_27
REMARK   13  A    between atoms: O_27  and  C_28
REMARK                            x       y       z     vdW  Elec       q    Type
REMARK                         _______ _______ _______ _____ _____    ______ ____
ROOT
ATOM      1  C   UNL     1       4.533   7.120  17.047  0.00  0.00    +0.000 C 
ENDROOT
BRANCH   1   2
ATOM      2  N   UNL     1       5.536   6.237  17.612  0.00  0.00    +0.000 N 
ATOM      3  C   UNL     1       6.858   6.505  17.875  0.00  0.00    +0.000 C 
ATOM      4  N   UNL     1       7.546   5.572  18.466  0.00  0.00    +0.000 NA
ATOM      5  C   UNL     1       6.588   4.440  18.594  0.00  0.00    +0.000 C 
ATOM      6  C   UNL     1       5.182   5.044  18.390  0.00  0.00    +0.000 C 
BRANCH   3   7
ATOM      7  S   UNL     1       7.645   8.004  17.491  0.00  0.00    +0.000 S 
ATOM      8  H   UNL     1       8.054   8.314  18.721  0.00  0.00    +0.000 HD
ENDBRANCH   3   7
BRANCH   6   9
ATOM      9  C   UNL     1       4.207   4.088  17.693  0.00  0.00    +0.000 C 
BRANCH   9  10
ATOM     10  C   UNL     1       2.932   3.744  18.441  0.00  0.00    +0.000 A 
ATOM     11  C   UNL     1       2.072   2.705  18.052  0.00  0.00    +0.000 A 
ATOM     12  C   UNL     1       0.915   2.422  18.786  0.00  0.00    +0.000 A 
ATOM     13  C   UNL     1       0.616   3.148  19.935  0.00  0.00    +0.000 A 
ATOM     14  C   UNL     1       1.476   4.159  20.354  0.00  0.00    +0.000 A 
ATOM     15  C   UNL     1       2.626   4.450  19.615  0.00  0.00    +0.000 A 
ENDBRANCH   9  10
ENDBRANCH   6   9
ENDBRANCH   1   2
BRANCH   1  16
ATOM     16  C   UNL     1       3.551   7.621  18.104  0.00  0.00    +0.000 C 
BRANCH  16  17
ATOM     17  C   UNL     1       2.398   8.383  17.452  0.00  0.00    +0.000 C 
BRANCH  17  20
ATOM     18  C   UNL     1       0.630   9.197  20.742  0.00  0.00    +0.000 A 
ATOM     19  C   UNL     1       1.390   8.535  19.761  0.00  0.00    +0.000 A 
ATOM     20  C   UNL     1       1.462   9.014  18.453  0.00  0.00    +0.000 A 
ATOM     21  C   UNL     1       0.670  10.110  18.109  0.00  0.00    +0.000 A 
ATOM     22  C   UNL     1      -0.163  10.743  19.050  0.00  0.00    +0.000 A 
ATOM     23  C   UNL     1      -0.187  10.294  20.390  0.00  0.00    +0.000 A 
BRANCH  18  25
ATOM     24  C   UNL     1       1.712   9.262  22.856  0.00  0.00    +0.000 C 
ATOM     25  O   UNL     1       0.653   8.754  22.041  0.00  0.00    +0.000 OA
ENDBRANCH  18  25
BRANCH  22  26
ATOM     26  O   UNL     1      -0.852  11.786  18.477  0.00  0.00    +0.000 OA
ATOM     27  C   UNL     1      -0.265  13.079  18.437  0.00  0.00    +0.000 C 
ENDBRANCH  22  26
BRANCH  23  28
ATOM     28  O   UNL     1      -1.026  10.973  21.232  0.00  0.00    +0.000 OA
ATOM     29  C   UNL     1      -0.562  12.057  22.017  0.00  0.00    +0.000 C 
ENDBRANCH  23  28
ENDBRANCH  17  20
ENDBRANCH  16  17
ENDBRANCH   1  16
TORSDOF 10
ENDMDL
