MODEL 1
REMARK VINA RESULT:      -7.9      0.000      0.000
REMARK  Name = 
REMARK  8 active torsions:
REMARK  status: ('A' for Active; 'I' for Inactive)
REMARK    1  A    between atoms: C_1  and  N_2
REMARK    2  A    between atoms: N_2  and  C_3
REMARK    3  A    between atoms: N_2  and  S_4
REMARK    4  A    between atoms: S_4  and  N_7
REMARK    5  A    between atoms: N_7  and  C_8
REMARK    6  A    between atoms: C_12  and  O_13
REMARK    7  A    between atoms: O_13  and  C_14
REMARK    8  A    between atoms: C_14  and  C_15
REMARK                            x       y       z     vdW  Elec       q    Type
REMARK                         _______ _______ _______ _____ _____    ______ ____
ROOT
ATOM      1  C   UNL     1       3.869   4.394  17.159  0.00  0.00    +0.000 A 
ATOM      2  C   UNL     1       4.846   4.363  16.166  0.00  0.00    +0.000 A 
ATOM      3  C   UNL     1       5.452   5.541  15.745  0.00  0.00    +0.000 A 
ATOM      4  C   UNL     1       5.075   6.769  16.314  0.00  0.00    +0.000 A 
ATOM      5  C   UNL     1       4.082   6.831  17.292  0.00  0.00    +0.000 A 
ATOM      6  C   UNL     1       3.482   5.626  17.714  0.00  0.00    +0.000 A 
ENDROOT
BRANCH   1   7
ATOM      7  N   UNL     1       3.251   3.151  17.539  0.00  0.00    +0.000 N 
ATOM      8  H   UNL     1       3.363   2.408  16.851  0.00  0.00    +0.000 HD
BRANCH   7   9
ATOM      9  S   UNL     1       3.727   2.529  19.039  0.00  0.00    +0.000 S 
ATOM     10  O   UNL     1       4.942   3.170  19.494  0.00  0.00    +0.000 OA
ATOM     11  O   UNL     1       3.609   1.091  18.953  0.00  0.00    +0.000 OA
BRANCH   9  13
ATOM     12  C   UNL     1       1.126   2.734  19.488  0.00  0.00    +0.000 C 
ATOM     13  N   UNL     1       2.464   3.082  20.045  0.00  0.00    +0.000 NA
ATOM     14  C   UNL     1       2.550   2.653  21.461  0.00  0.00    +0.000 C 
ENDBRANCH   9  13
ENDBRANCH   7   9
ENDBRANCH   1   7
BRANCH   5  15
ATOM     15  O   UNL     1       3.655   7.987  17.900  0.00  0.00    +0.000 OA
BRANCH  15  16
ATOM     16  C   UNL     1       2.240   8.264  17.838  0.00  0.00    +0.000 C 
BRANCH  16  17
ATOM     17  C   UNL     1       1.627   8.616  19.193  0.00  0.00    +0.000 A 
ATOM     18  C   UNL     1       1.816   7.748  20.261  0.00  0.00    +0.000 A 
ATOM     19  C   UNL     1       1.111   7.971  21.440  0.00  0.00    +0.000 A 
ATOM     20  C   UNL     1       0.324   9.113  21.581  0.00  0.00    +0.000 A 
ATOM     21  C   UNL     1      -0.289   9.411  22.813  0.00  0.00    +0.000 A 
ATOM     22  C   UNL     1      -0.944  10.622  23.000  0.00  0.00    +0.000 A 
ATOM     23  C   UNL     1      -1.046  11.508  21.934  0.00  0.00    +0.000 A 
ATOM     24  C   UNL     1      -0.499  11.171  20.686  0.00  0.00    +0.000 A 
ATOM     25  C   UNL     1       0.217   9.988  20.481  0.00  0.00    +0.000 A 
ATOM     26  N   UNL     1       0.817   9.713  19.292  0.00  0.00    +0.000 NA
ENDBRANCH  16  17
ENDBRANCH  15  16
ENDBRANCH   5  15
TORSDOF 6
ENDMDL
MODEL 2
REMARK VINA RESULT:      -7.7      2.515      3.711
REMARK  Name = 
REMARK  8 active torsions:
REMARK  status: ('A' for Active; 'I' for Inactive)
REMARK    1  A    between atoms: C_1  and  N_2
REMARK    2  A    between atoms: N_2  and  C_3
REMARK    3  A    between atoms: N_2  and  S_4
REMARK    4  A    between atoms: S_4  and  N_7
REMARK    5  A    between atoms: N_7  and  C_8
REMARK    6  A    between atoms: C_12  and  O_13
REMARK    7  A    between atoms: O_13  and  C_14
REMARK    8  A    between atoms: C_14  and  C_15
REMARK                            x       y       z     vdW  Elec       q    Type
REMARK                         _______ _______ _______ _____ _____    ______ ____
ROOT
ATOM      1  C   UNL     1       4.592   4.073  18.210  0.00  0.00    +0.000 A 
ATOM      2  C   UNL     1       3.722   3.022  17.925  0.00  0.00    +0.000 A 
ATOM      3  C   UNL     1       2.351   3.242  17.885  0.00  0.00    +0.000 A 
ATOM      4  C   UNL     1       1.836   4.525  18.139  0.00  0.00    +0.000 A 
ATOM      5  C   UNL     1       2.682   5.589  18.451  0.00  0.00    +0.000 A 
ATOM      6  C   UNL     1       4.073   5.350  18.480  0.00  0.00    +0.000 A 
ENDROOT
BRANCH   1   7
ATOM      7  N   UNL     1       6.001   3.787  18.269  0.00  0.00    +0.000 N 
ATOM      8  H   UNL     1       6.234   2.816  18.064  0.00  0.00    +0.000 HD
BRANCH   7   9
ATOM      9  S   UNL     1       6.984   4.760  17.293  0.00  0.00    +0.000 S 
ATOM     10  O   UNL     1       6.288   5.133  16.081  0.00  0.00    +0.000 OA
ATOM     11  O   UNL     1       8.290   4.142  17.265  0.00  0.00    +0.000 OA
BRANCH   9  13
ATOM     12  C   UNL     1       7.863   5.912  19.509  0.00  0.00    +0.000 C 
ATOM     13  N   UNL     1       7.111   6.169  18.249  0.00  0.00    +0.000 NA
ATOM     14  C   UNL     1       7.673   7.353  17.557  0.00  0.00    +0.000 C 
ENDBRANCH   9  13
ENDBRANCH   7   9
ENDBRANCH   1   7
BRANCH   5  15
ATOM     15  O   UNL     1       2.263   6.871  18.711  0.00  0.00    +0.000 OA
BRANCH  15  16
ATOM     16  C   UNL     1       2.118   7.233  20.101  0.00  0.00    +0.000 C 
BRANCH  16  17
ATOM     17  C   UNL     1       1.251   8.472  20.321  0.00  0.00    +0.000 A 
ATOM     18  C   UNL     1       1.119   9.391  19.288  0.00  0.00    +0.000 A 
ATOM     19  C   UNL     1       0.484  10.603  19.543  0.00  0.00    +0.000 A 
ATOM     20  C   UNL     1      -0.110  10.835  20.783  0.00  0.00    +0.000 A 
ATOM     21  C   UNL     1      -0.861  12.004  21.007  0.00  0.00    +0.000 A 
ATOM     22  C   UNL     1      -1.580  12.164  22.187  0.00  0.00    +0.000 A 
ATOM     23  C   UNL     1      -1.492  11.188  23.171  0.00  0.00    +0.000 A 
ATOM     24  C   UNL     1      -0.679  10.061  22.972  0.00  0.00    +0.000 A 
ATOM     25  C   UNL     1       0.009   9.840  21.776  0.00  0.00    +0.000 A 
ATOM     26  N   UNL     1       0.723   8.703  21.561  0.00  0.00    +0.000 NA
ENDBRANCH  16  17
ENDBRANCH  15  16
ENDBRANCH   5  15
TORSDOF 6
ENDMDL
MODEL 3
REMARK VINA RESULT:      -7.6      0.841      1.596
REMARK  Name = 
REMARK  8 active torsions:
REMARK  status: ('A' for Active; 'I' for Inactive)
REMARK    1  A    between atoms: C_1  and  N_2
REMARK    2  A    between atoms: N_2  and  C_3
REMARK    3  A    between atoms: N_2  and  S_4
REMARK    4  A    between atoms: S_4  and  N_7
REMARK    5  A    between atoms: N_7  and  C_8
REMARK    6  A    between atoms: C_12  and  O_13
REMARK    7  A    between atoms: O_13  and  C_14
REMARK    8  A    between atoms: C_14  and  C_15
REMARK                            x       y       z     vdW  Elec       q    Type
REMARK                         _______ _______ _______ _____ _____    ______ ____
ROOT
ATOM      1  C   UNL     1       3.887   4.170  17.164  0.00  0.00    +0.000 A 
ATOM      2  C   UNL     1       4.936   4.332  16.261  0.00  0.00    +0.000 A 
ATOM      3  C   UNL     1       5.426   5.602  15.981  0.00  0.00    +0.000 A 
ATOM      4  C   UNL     1       4.859   6.729  16.601  0.00  0.00    +0.000 A 
ATOM      5  C   UNL     1       3.792   6.597  17.490  0.00  0.00    +0.000 A 
ATOM      6  C   UNL     1       3.311   5.300  17.770  0.00  0.00    +0.000 A 
ENDROOT
BRANCH   1   7
ATOM      7  N   UNL     1       3.396   2.838  17.398  0.00  0.00    +0.000 N 
ATOM      8  H   UNL     1       3.669   2.166  16.682  0.00  0.00    +0.000 HD
BRANCH   7   9
ATOM      9  S   UNL     1       3.795   2.167  18.899  0.00  0.00    +0.000 S 
ATOM     10  O   UNL     1       4.790   2.976  19.570  0.00  0.00    +0.000 OA
ATOM     11  O   UNL     1       3.979   0.749  18.690  0.00  0.00    +0.000 OA
BRANCH   9  13
ATOM     12  C   UNL     1       2.418   3.480  20.741  0.00  0.00    +0.000 C 
ATOM     13  N   UNL     1       2.331   2.367  19.753  0.00  0.00    +0.000 NA
ATOM     14  C   UNL     1       1.125   2.535  18.908  0.00  0.00    +0.000 C 
ENDBRANCH   9  13
ENDBRANCH   7   9
ENDBRANCH   1   7
BRANCH   5  15
ATOM     15  O   UNL     1       3.181   7.642  18.139  0.00  0.00    +0.000 OA
BRANCH  15  16
ATOM     16  C   UNL     1       2.374   7.305  19.287  0.00  0.00    +0.000 C 
BRANCH  16  17
ATOM     17  C   UNL     1       1.500   8.459  19.779  0.00  0.00    +0.000 A 
ATOM     18  C   UNL     1       1.267   9.533  18.930  0.00  0.00    +0.000 A 
ATOM     19  C   UNL     1       0.628  10.661  19.435  0.00  0.00    +0.000 A 
ATOM     20  C   UNL     1       0.129  10.661  20.736  0.00  0.00    +0.000 A 
ATOM     21  C   UNL     1      -0.628  11.749  21.211  0.00  0.00    +0.000 A 
ATOM     22  C   UNL     1      -1.254  11.683  22.451  0.00  0.00    +0.000 A 
ATOM     23  C   UNL     1      -1.068  10.558  23.245  0.00  0.00    +0.000 A 
ATOM     24  C   UNL     1      -0.249   9.510  22.797  0.00  0.00    +0.000 A 
ATOM     25  C   UNL     1       0.347   9.518  21.533  0.00  0.00    +0.000 A 
ATOM     26  N   UNL     1       1.067   8.459  21.075  0.00  0.00    +0.000 NA
ENDBRANCH  16  17
ENDBRANCH  15  16
ENDBRANCH   5  15
TORSDOF 6
ENDMDL
MODEL 4
REMARK VINA RESULT:      -7.6      2.658      3.721
REMARK  Name = 
REMARK  8 active torsions:
REMARK  status: ('A' for Active; 'I' for Inactive)
REMARK    1  A    between atoms: C_1  and  N_2
REMARK    2  A    between atoms: N_2  and  C_3
REMARK    3  A    between atoms: N_2  and  S_4
REMARK    4  A    between atoms: S_4  and  N_7
REMARK    5  A    between atoms: N_7  and  C_8
REMARK    6  A    between atoms: C_12  and  O_13
REMARK    7  A    between atoms: O_13  and  C_14
REMARK    8  A    between atoms: C_14  and  C_15
REMARK                            x       y       z     vdW  Elec       q    Type
REMARK                         _______ _______ _______ _____ _____    ______ ____
ROOT
ATOM      1  C   UNL     1       4.577   4.573  17.811  0.00  0.00    +0.000 A 
ATOM      2  C   UNL     1       3.631   3.728  17.233  0.00  0.00    +0.000 A 
ATOM      3  C   UNL     1       2.276   4.011  17.353  0.00  0.00    +0.000 A 
ATOM      4  C   UNL     1       1.854   5.147  18.064  0.00  0.00    +0.000 A 
ATOM      5  C   UNL     1       2.778   5.996  18.672  0.00  0.00    +0.000 A 
ATOM      6  C   UNL     1       4.151   5.699  18.535  0.00  0.00    +0.000 A 
ENDROOT
BRANCH   1   7
ATOM      7  N   UNL     1       5.966   4.220  17.685  0.00  0.00    +0.000 N 
ATOM      8  H   UNL     1       6.123   3.245  17.435  0.00  0.00    +0.000 HD
BRANCH   7   9
ATOM      9  S   UNL     1       6.864   5.168  16.608  0.00  0.00    +0.000 S 
ATOM     10  O   UNL     1       5.994   6.043  15.852  0.00  0.00    +0.000 OA
ATOM     11  O   UNL     1       7.810   4.287  15.962  0.00  0.00    +0.000 OA
BRANCH   9  13
ATOM     12  C   UNL     1       7.359   7.588  17.563  0.00  0.00    +0.000 C 
ATOM     13  N   UNL     1       7.745   6.154  17.688  0.00  0.00    +0.000 NA
ATOM     14  C   UNL     1       7.693   5.737  19.109  0.00  0.00    +0.000 C 
ENDBRANCH   9  13
ENDBRANCH   7   9
ENDBRANCH   1   7
BRANCH   5  15
ATOM     15  O   UNL     1       2.452   7.126  19.383  0.00  0.00    +0.000 OA
BRANCH  15  16
ATOM     16  C   UNL     1       2.252   8.334  18.619  0.00  0.00    +0.000 C 
BRANCH  16  17
ATOM     17  C   UNL     1       1.155   9.237  19.183  0.00  0.00    +0.000 A 
ATOM     18  C   UNL     1       0.358   9.956  18.302  0.00  0.00    +0.000 A 
ATOM     19  C   UNL     1      -0.514  10.912  18.812  0.00  0.00    +0.000 A 
ATOM     20  C   UNL     1      -0.666  11.058  20.190  0.00  0.00    +0.000 A 
ATOM     21  C   UNL     1      -1.637  11.933  20.713  0.00  0.00    +0.000 A 
ATOM     22  C   UNL     1      -1.895  11.964  22.078  0.00  0.00    +0.000 A 
ATOM     23  C   UNL     1      -1.135  11.171  22.930  0.00  0.00    +0.000 A 
ATOM     24  C   UNL     1      -0.115  10.359  22.408  0.00  0.00    +0.000 A 
ATOM     25  C   UNL     1       0.130  10.259  21.036  0.00  0.00    +0.000 A 
ATOM     26  N   UNL     1       1.061   9.402  20.537  0.00  0.00    +0.000 NA
ENDBRANCH  16  17
ENDBRANCH  15  16
ENDBRANCH   5  15
TORSDOF 6
ENDMDL
MODEL 5
REMARK VINA RESULT:      -7.6      2.490      3.685
REMARK  Name = 
REMARK  8 active torsions:
REMARK  status: ('A' for Active; 'I' for Inactive)
REMARK    1  A    between atoms: C_1  and  N_2
REMARK    2  A    between atoms: N_2  and  C_3
REMARK    3  A    between atoms: N_2  and  S_4
REMARK    4  A    between atoms: S_4  and  N_7
REMARK    5  A    between atoms: N_7  and  C_8
REMARK    6  A    between atoms: C_12  and  O_13
REMARK    7  A    between atoms: O_13  and  C_14
REMARK    8  A    between atoms: C_14  and  C_15
REMARK                            x       y       z     vdW  Elec       q    Type
REMARK                         _______ _______ _______ _____ _____    ______ ____
ROOT
ATOM      1  C   UNL     1       4.795   4.389  18.590  0.00  0.00    +0.000 A 
ATOM      2  C   UNL     1       4.125   3.554  17.697  0.00  0.00    +0.000 A 
ATOM      3  C   UNL     1       2.797   3.802  17.371  0.00  0.00    +0.000 A 
ATOM      4  C   UNL     1       2.122   4.891  17.947  0.00  0.00    +0.000 A 
ATOM      5  C   UNL     1       2.761   5.728  18.863  0.00  0.00    +0.000 A 
ATOM      6  C   UNL     1       4.112   5.468  19.177  0.00  0.00    +0.000 A 
ENDROOT
BRANCH   1   7
ATOM      7  N   UNL     1       6.159   4.073  18.918  0.00  0.00    +0.000 N 
ATOM      8  H   UNL     1       6.386   3.083  18.827  0.00  0.00    +0.000 HD
BRANCH   7   9
ATOM      9  S   UNL     1       7.335   4.942  18.065  0.00  0.00    +0.000 S 
ATOM     10  O   UNL     1       8.200   4.044  17.332  0.00  0.00    +0.000 OA
ATOM     11  O   UNL     1       7.859   5.939  18.971  0.00  0.00    +0.000 OA
BRANCH   9  13
ATOM     12  C   UNL     1       6.454   7.237  17.081  0.00  0.00    +0.000 C 
ATOM     13  N   UNL     1       6.374   5.758  16.914  0.00  0.00    +0.000 NA
ATOM     14  C   UNL     1       6.634   5.393  15.501  0.00  0.00    +0.000 C 
ENDBRANCH   9  13
ENDBRANCH   7   9
ENDBRANCH   1   7
BRANCH   5  15
ATOM     15  O   UNL     1       2.177   6.813  19.471  0.00  0.00    +0.000 OA
BRANCH  15  16
ATOM     16  C   UNL     1       2.147   8.040  18.711  0.00  0.00    +0.000 C 
BRANCH  16  17
ATOM     17  C   UNL     1       1.307   9.139  19.360  0.00  0.00    +0.000 A 
ATOM     18  C   UNL     1       1.082  10.316  18.658  0.00  0.00    +0.000 A 
ATOM     19  C   UNL     1       0.477  11.384  19.313  0.00  0.00    +0.000 A 
ATOM     20  C   UNL     1      -0.001  11.229  20.614  0.00  0.00    +0.000 A 
ATOM     21  C   UNL     1      -0.726  12.262  21.236  0.00  0.00    +0.000 A 
ATOM     22  C   UNL     1      -1.333  12.053  22.469  0.00  0.00    +0.000 A 
ATOM     23  C   UNL     1      -1.158  10.834  23.113  0.00  0.00    +0.000 A 
ATOM     24  C   UNL     1      -0.369   9.835  22.521  0.00  0.00    +0.000 A 
ATOM     25  C   UNL     1       0.206   9.990  21.256  0.00  0.00    +0.000 A 
ATOM     26  N   UNL     1       0.895   8.984  20.655  0.00  0.00    +0.000 NA
ENDBRANCH  16  17
ENDBRANCH  15  16
ENDBRANCH   5  15
TORSDOF 6
ENDMDL
MODEL 6
REMARK VINA RESULT:      -7.4      2.186      3.790
REMARK  Name = 
REMARK  8 active torsions:
REMARK  status: ('A' for Active; 'I' for Inactive)
REMARK    1  A    between atoms: C_1  and  N_2
REMARK    2  A    between atoms: N_2  and  C_3
REMARK    3  A    between atoms: N_2  and  S_4
REMARK    4  A    between atoms: S_4  and  N_7
REMARK    5  A    between atoms: N_7  and  C_8
REMARK    6  A    between atoms: C_12  and  O_13
REMARK    7  A    between atoms: O_13  and  C_14
REMARK    8  A    between atoms: C_14  and  C_15
REMARK                            x       y       z     vdW  Elec       q    Type
REMARK                         _______ _______ _______ _____ _____    ______ ____
ROOT
ATOM      1  C   UNL     1       4.658   3.730  18.580  0.00  0.00    +0.000 A 
ATOM      2  C   UNL     1       4.543   2.670  19.477  0.00  0.00    +0.000 A 
ATOM      3  C   UNL     1       3.528   2.665  20.426  0.00  0.00    +0.000 A 
ATOM      4  C   UNL     1       2.618   3.734  20.490  0.00  0.00    +0.000 A 
ATOM      5  C   UNL     1       2.725   4.819  19.620  0.00  0.00    +0.000 A 
ATOM      6  C   UNL     1       3.757   4.805  18.657  0.00  0.00    +0.000 A 
ENDROOT
BRANCH   1   7
ATOM      7  N   UNL     1       5.744   3.702  17.636  0.00  0.00    +0.000 N 
ATOM      8  H   UNL     1       5.459   3.883  16.674  0.00  0.00    +0.000 HD
BRANCH   7   9
ATOM      9  S   UNL     1       7.037   4.737  17.983  0.00  0.00    +0.000 S 
ATOM     10  O   UNL     1       8.299   4.091  17.692  0.00  0.00    +0.000 OA
ATOM     11  O   UNL     1       6.763   5.334  19.270  0.00  0.00    +0.000 OA
BRANCH   9  13
ATOM     12  C   UNL     1       6.162   5.416  15.578  0.00  0.00    +0.000 C 
ATOM     13  N   UNL     1       6.816   5.952  16.804  0.00  0.00    +0.000 NA
ATOM     14  C   UNL     1       6.100   7.163  17.272  0.00  0.00    +0.000 C 
ENDBRANCH   9  13
ENDBRANCH   7   9
ENDBRANCH   1   7
BRANCH   5  15
ATOM     15  O   UNL     1       1.880   5.902  19.612  0.00  0.00    +0.000 OA
BRANCH  15  16
ATOM     16  C   UNL     1       2.498   7.203  19.524  0.00  0.00    +0.000 C 
BRANCH  16  17
ATOM     17  C   UNL     1       1.560   8.351  19.896  0.00  0.00    +0.000 A 
ATOM     18  C   UNL     1       1.232   9.290  18.927  0.00  0.00    +0.000 A 
ATOM     19  C   UNL     1       0.530  10.430  19.307  0.00  0.00    +0.000 A 
ATOM     20  C   UNL     1       0.065  10.564  20.615  0.00  0.00    +0.000 A 
ATOM     21  C   UNL     1      -0.752  11.651  20.974  0.00  0.00    +0.000 A 
ATOM     22  C   UNL     1      -1.341  11.705  22.233  0.00  0.00    +0.000 A 
ATOM     23  C   UNL     1      -1.057  10.705  23.156  0.00  0.00    +0.000 A 
ATOM     24  C   UNL     1      -0.179   9.664  22.816  0.00  0.00    +0.000 A 
ATOM     25  C   UNL     1       0.382   9.549  21.541  0.00  0.00    +0.000 A 
ATOM     26  N   UNL     1       1.161   8.489  21.196  0.00  0.00    +0.000 NA
ENDBRANCH  16  17
ENDBRANCH  15  16
ENDBRANCH   5  15
TORSDOF 6
ENDMDL
MODEL 7
REMARK VINA RESULT:      -7.4      2.299      3.546
REMARK  Name = 
REMARK  8 active torsions:
REMARK  status: ('A' for Active; 'I' for Inactive)
REMARK    1  A    between atoms: C_1  and  N_2
REMARK    2  A    between atoms: N_2  and  C_3
REMARK    3  A    between atoms: N_2  and  S_4
REMARK    4  A    between atoms: S_4  and  N_7
REMARK    5  A    between atoms: N_7  and  C_8
REMARK    6  A    between atoms: C_12  and  O_13
REMARK    7  A    between atoms: O_13  and  C_14
REMARK    8  A    between atoms: C_14  and  C_15
REMARK                            x       y       z     vdW  Elec       q    Type
REMARK                         _______ _______ _______ _____ _____    ______ ____
ROOT
ATOM      1  C   UNL     1       4.454   4.261  18.354  0.00  0.00    +0.000 A 
ATOM      2  C   UNL     1       3.485   3.579  17.620  0.00  0.00    +0.000 A 
ATOM      3  C   UNL     1       2.150   3.955  17.706  0.00  0.00    +0.000 A 
ATOM      4  C   UNL     1       1.771   5.020  18.540  0.00  0.00    +0.000 A 
ATOM      5  C   UNL     1       2.717   5.704  19.305  0.00  0.00    +0.000 A 
ATOM      6  C   UNL     1       4.069   5.315  19.200  0.00  0.00    +0.000 A 
ENDROOT
BRANCH   1   7
ATOM      7  N   UNL     1       5.818   3.813  18.253  0.00  0.00    +0.000 N 
ATOM      8  H   UNL     1       5.919   2.799  18.244  0.00  0.00    +0.000 HD
BRANCH   7   9
ATOM      9  S   UNL     1       6.689   4.421  16.936  0.00  0.00    +0.000 S 
ATOM     10  O   UNL     1       6.244   3.807  15.704  0.00  0.00    +0.000 OA
ATOM     11  O   UNL     1       8.081   4.435  17.324  0.00  0.00    +0.000 OA
BRANCH   9  13
ATOM     12  C   UNL     1       7.261   6.991  17.221  0.00  0.00    +0.000 C 
ATOM     13  N   UNL     1       6.156   6.043  16.905  0.00  0.00    +0.000 NA
ATOM     14  C   UNL     1       5.474   6.460  15.657  0.00  0.00    +0.000 C 
ENDBRANCH   9  13
ENDBRANCH   7   9
ENDBRANCH   1   7
BRANCH   5  15
ATOM     15  O   UNL     1       2.434   6.755  20.143  0.00  0.00    +0.000 OA
BRANCH  15  16
ATOM     16  C   UNL     1       1.944   7.962  19.521  0.00  0.00    +0.000 C 
BRANCH  16  17
ATOM     17  C   UNL     1       1.181   8.876  20.480  0.00  0.00    +0.000 A 
ATOM     18  C   UNL     1       0.752   8.363  21.697  0.00  0.00    +0.000 A 
ATOM     19  C   UNL     1      -0.096   9.132  22.489  0.00  0.00    +0.000 A 
ATOM     20  C   UNL     1      -0.409  10.438  22.116  0.00  0.00    +0.000 A 
ATOM     21  C   UNL     1      -1.161  11.264  22.973  0.00  0.00    +0.000 A 
ATOM     22  C   UNL     1      -1.342  12.610  22.674  0.00  0.00    +0.000 A 
ATOM     23  C   UNL     1      -0.830  13.115  21.485  0.00  0.00    +0.000 A 
ATOM     24  C   UNL     1      -0.147  12.267  20.599  0.00  0.00    +0.000 A 
ATOM     25  C   UNL     1       0.104  10.924  20.896  0.00  0.00    +0.000 A 
ATOM     26  N   UNL     1       0.842  10.135  20.070  0.00  0.00    +0.000 NA
ENDBRANCH  16  17
ENDBRANCH  15  16
ENDBRANCH   5  15
TORSDOF 6
ENDMDL
MODEL 8
REMARK VINA RESULT:      -7.4      2.270      3.492
REMARK  Name = 
REMARK  8 active torsions:
REMARK  status: ('A' for Active; 'I' for Inactive)
REMARK    1  A    between atoms: C_1  and  N_2
REMARK    2  A    between atoms: N_2  and  C_3
REMARK    3  A    between atoms: N_2  and  S_4
REMARK    4  A    between atoms: S_4  and  N_7
REMARK    5  A    between atoms: N_7  and  C_8
REMARK    6  A    between atoms: C_12  and  O_13
REMARK    7  A    between atoms: O_13  and  C_14
REMARK    8  A    between atoms: C_14  and  C_15
REMARK                            x       y       z     vdW  Elec       q    Type
REMARK                         _______ _______ _______ _____ _____    ______ ____
ROOT
ATOM      1  C   UNL     1       4.090   5.008  17.401  0.00  0.00    +0.000 A 
ATOM      2  C   UNL     1       3.292   3.890  17.166  0.00  0.00    +0.000 A 
ATOM      3  C   UNL     1       2.103   3.721  17.866  0.00  0.00    +0.000 A 
ATOM      4  C   UNL     1       1.707   4.673  18.820  0.00  0.00    +0.000 A 
ATOM      5  C   UNL     1       2.499   5.788  19.093  0.00  0.00    +0.000 A 
ATOM      6  C   UNL     1       3.699   5.949  18.368  0.00  0.00    +0.000 A 
ENDROOT
BRANCH   1   7
ATOM      7  N   UNL     1       5.326   5.121  16.672  0.00  0.00    +0.000 N 
ATOM      8  H   UNL     1       5.468   6.034  16.240  0.00  0.00    +0.000 HD
BRANCH   7   9
ATOM      9  S   UNL     1       6.726   4.754  17.550  0.00  0.00    +0.000 S 
ATOM     10  O   UNL     1       7.823   4.452  16.656  0.00  0.00    +0.000 OA
ATOM     11  O   UNL     1       6.333   3.853  18.608  0.00  0.00    +0.000 OA
BRANCH   9  13
ATOM     12  C   UNL     1       8.073   6.132  19.366  0.00  0.00    +0.000 C 
ATOM     13  N   UNL     1       7.071   6.263  18.271  0.00  0.00    +0.000 NA
ATOM     14  C   UNL     1       7.486   7.332  17.331  0.00  0.00    +0.000 C 
ENDBRANCH   9  13
ENDBRANCH   7   9
ENDBRANCH   1   7
BRANCH   5  15
ATOM     15  O   UNL     1       2.187   6.765  20.006  0.00  0.00    +0.000 OA
BRANCH  15  16
ATOM     16  C   UNL     1       1.844   8.062  19.473  0.00  0.00    +0.000 C 
BRANCH  16  17
ATOM     17  C   UNL     1       1.068   8.940  20.454  0.00  0.00    +0.000 A 
ATOM     18  C   UNL     1       1.079   8.610  21.803  0.00  0.00    +0.000 A 
ATOM     19  C   UNL     1       0.231   9.295  22.669  0.00  0.00    +0.000 A 
ATOM     20  C   UNL     1      -0.525  10.370  22.205  0.00  0.00    +0.000 A 
ATOM     21  C   UNL     1      -1.286  11.146  23.099  0.00  0.00    +0.000 A 
ATOM     22  C   UNL     1      -1.915  12.307  22.664  0.00  0.00    +0.000 A 
ATOM     23  C   UNL     1      -1.840  12.657  21.321  0.00  0.00    +0.000 A 
ATOM     24  C   UNL     1      -1.143  11.836  20.420  0.00  0.00    +0.000 A 
ATOM     25  C   UNL     1      -0.450  10.694  20.834  0.00  0.00    +0.000 A 
ATOM     26  N   UNL     1       0.294   9.956  19.968  0.00  0.00    +0.000 NA
ENDBRANCH  16  17
ENDBRANCH  15  16
ENDBRANCH   5  15
TORSDOF 6
ENDMDL
MODEL 9
REMARK VINA RESULT:      -7.4      2.396      3.769
REMARK  Name = 
REMARK  8 active torsions:
REMARK  status: ('A' for Active; 'I' for Inactive)
REMARK    1  A    between atoms: C_1  and  N_2
REMARK    2  A    between atoms: N_2  and  C_3
REMARK    3  A    between atoms: N_2  and  S_4
REMARK    4  A    between atoms: S_4  and  N_7
REMARK    5  A    between atoms: N_7  and  C_8
REMARK    6  A    between atoms: C_12  and  O_13
REMARK    7  A    between atoms: O_13  and  C_14
REMARK    8  A    between atoms: C_14  and  C_15
REMARK                            x       y       z     vdW  Elec       q    Type
REMARK                         _______ _______ _______ _____ _____    ______ ____
ROOT
ATOM      1  C   UNL     1       4.664   4.157  18.896  0.00  0.00    +0.000 A 
ATOM      2  C   UNL     1       3.728   3.138  18.722  0.00  0.00    +0.000 A 
ATOM      3  C   UNL     1       2.376   3.391  18.918  0.00  0.00    +0.000 A 
ATOM      4  C   UNL     1       1.948   4.673  19.300  0.00  0.00    +0.000 A 
ATOM      5  C   UNL     1       2.865   5.704  19.506  0.00  0.00    +0.000 A 
ATOM      6  C   UNL     1       4.234   5.433  19.295  0.00  0.00    +0.000 A 
ENDROOT
BRANCH   1   7
ATOM      7  N   UNL     1       6.055   3.837  18.710  0.00  0.00    +0.000 N 
ATOM      8  H   UNL     1       6.224   2.863  18.461  0.00  0.00    +0.000 HD
BRANCH   7   9
ATOM      9  S   UNL     1       6.880   4.797  17.587  0.00  0.00    +0.000 S 
ATOM     10  O   UNL     1       8.109   4.154  17.173  0.00  0.00    +0.000 OA
ATOM     11  O   UNL     1       6.858   6.149  18.096  0.00  0.00    +0.000 OA
BRANCH   9  13
ATOM     12  C   UNL     1       5.366   6.102  15.850  0.00  0.00    +0.000 C 
ATOM     13  N   UNL     1       5.814   4.740  16.255  0.00  0.00    +0.000 NA
ATOM     14  C   UNL     1       6.320   4.001  15.073  0.00  0.00    +0.000 C 
ENDBRANCH   9  13
ENDBRANCH   7   9
ENDBRANCH   1   7
BRANCH   5  15
ATOM     15  O   UNL     1       2.532   6.984  19.878  0.00  0.00    +0.000 OA
BRANCH  15  16
ATOM     16  C   UNL     1       1.483   7.119  20.859  0.00  0.00    +0.000 C 
BRANCH  16  17
ATOM     17  C   UNL     1       0.843   8.507  20.881  0.00  0.00    +0.000 A 
ATOM     18  C   UNL     1       1.026   9.348  19.792  0.00  0.00    +0.000 A 
ATOM     19  C   UNL     1       0.602  10.670  19.885  0.00  0.00    +0.000 A 
ATOM     20  C   UNL     1      -0.099  11.103  21.009  0.00  0.00    +0.000 A 
ATOM     21  C   UNL     1      -0.641  12.402  21.056  0.00  0.00    +0.000 A 
ATOM     22  C   UNL     1      -1.469  12.782  22.106  0.00  0.00    +0.000 A 
ATOM     23  C   UNL     1      -1.701  11.888  23.144  0.00  0.00    +0.000 A 
ATOM     24  C   UNL     1      -1.095  10.622  23.129  0.00  0.00    +0.000 A 
ATOM     25  C   UNL     1      -0.305  10.186  22.061  0.00  0.00    +0.000 A 
ATOM     26  N   UNL     1       0.205   8.926  22.015  0.00  0.00    +0.000 NA
ENDBRANCH  16  17
ENDBRANCH  15  16
ENDBRANCH   5  15
TORSDOF 6
ENDMDL
