MODEL 1
REMARK VINA RESULT:      -7.8      0.000      0.000
REMARK  Name = 
REMARK  9 active torsions:
REMARK  status: ('A' for Active; 'I' for Inactive)
REMARK    1  A    between atoms: C_1  and  O_2
REMARK    2  A    between atoms: O_2  and  C_3
REMARK    3  A    between atoms: C_3  and  C_5
REMARK    4  A    between atoms: C_7  and  O_8
REMARK    5  A    between atoms: O_8  and  C_9
REMARK    6  A    between atoms: C_9  and  C_10
REMARK    7  A    between atoms: C_15  and  C_16
REMARK    8  A    between atoms: C_23  and  C_24
REMARK    9  A    between atoms: C_30  and  C_31
REMARK                            x       y       z     vdW  Elec       q    Type
REMARK                         _______ _______ _______ _____ _____    ______ ____
ROOT
ATOM      1  C   UNL     1       2.500   4.678  20.288  0.00  0.00    +0.000 C 
ATOM      2  C   UNL     1       1.450   5.806  20.398  0.00  0.00    +0.000 C 
ATOM      3  C   UNL     1       2.048   7.198  20.214  0.00  0.00    +0.000 C 
ATOM      4  C   UNL     1       2.855   7.224  18.913  0.00  0.00    +0.000 C 
ATOM      5  O   UNL     1       2.677   8.065  18.035  0.00  0.00    +0.000 OA
ATOM      6  C   UNL     1       3.954   6.154  18.834  0.00  0.00    +0.000 C 
ATOM      7  C   UNL     1       3.307   4.728  18.931  0.00  0.00    +0.000 C 
ATOM      8  C   UNL     1       2.349   4.408  17.759  0.00  0.00    +0.000 C 
ATOM      9  C   UNL     1       4.442   3.669  18.949  0.00  0.00    +0.000 C 
ATOM     10  C   UNL     1       5.506   3.863  17.864  0.00  0.00    +0.000 C 
ATOM     11  C   UNL     1       6.128   5.261  17.942  0.00  0.00    +0.000 C 
ATOM     12  C   UNL     1       7.309   5.425  17.007  0.00  0.00    +0.000 C 
ATOM     13  O   UNL     1       7.848   4.479  16.443  0.00  0.00    +0.000 OA
ATOM     14  O   UNL     1       7.831   6.669  16.930  0.00  0.00    +0.000 OA
ATOM     15  C   UNL     1       7.095   7.881  17.215  0.00  0.00    +0.000 C 
ATOM     16  C   UNL     1       5.844   7.682  18.084  0.00  0.00    +0.000 C 
ATOM     17  C   UNL     1       5.078   6.378  17.759  0.00  0.00    +0.000 C 
ATOM     18  C   UNL     1       4.566   6.442  16.301  0.00  0.00    +0.000 C 
ENDROOT
BRANCH  15  19
ATOM     19  C   UNL     1       8.007   8.900  17.831  0.00  0.00    +0.000 A 
ATOM     20  C   UNL     1       8.208  10.252  17.425  0.00  0.00    +0.000 A 
ATOM     21  C   UNL     1       9.147  10.783  18.276  0.00  0.00    +0.000 A 
ATOM     22  O   UNL     1       9.542   9.853  19.181  0.00  0.00    +0.000 OA
ATOM     23  C   UNL     1       8.848   8.719  18.912  0.00  0.00    +0.000 A 
ENDBRANCH  15  19
BRANCH   1  24
ATOM     24  C   UNL     1       1.803   3.344  20.541  0.00  0.00    +0.000 C 
ATOM     25  O   UNL     1       2.225   2.470  21.284  0.00  0.00    +0.000 OA
BRANCH  24  27
ATOM     26  C   UNL     1       0.542   2.109  19.008  0.00  0.00    +0.000 C 
ATOM     27  O   UNL     1       0.642   3.271  19.833  0.00  0.00    +0.000 OA
ENDBRANCH  24  27
ENDBRANCH   1  24
BRANCH   3  28
ATOM     28  O   UNL     1       1.004   8.179  20.179  0.00  0.00    +0.000 OA
BRANCH  28  29
ATOM     29  C   UNL     1       0.440   8.471  21.381  0.00  0.00    +0.000 C 
ATOM     30  C   UNL     1       1.423   9.134  22.298  0.00  0.00    +0.000 C 
ATOM     31  O   UNL     1      -0.725   8.242  21.681  0.00  0.00    +0.000 OA
ENDBRANCH  28  29
ENDBRANCH   3  28
TORSDOF 5
ENDMDL
MODEL 2
REMARK VINA RESULT:      -7.4      0.855      1.326
REMARK  Name = 
REMARK  9 active torsions:
REMARK  status: ('A' for Active; 'I' for Inactive)
REMARK    1  A    between atoms: C_1  and  O_2
REMARK    2  A    between atoms: O_2  and  C_3
REMARK    3  A    between atoms: C_3  and  C_5
REMARK    4  A    between atoms: C_7  and  O_8
REMARK    5  A    between atoms: O_8  and  C_9
REMARK    6  A    between atoms: C_9  and  C_10
REMARK    7  A    between atoms: C_15  and  C_16
REMARK    8  A    between atoms: C_23  and  C_24
REMARK    9  A    between atoms: C_30  and  C_31
REMARK                            x       y       z     vdW  Elec       q    Type
REMARK                         _______ _______ _______ _____ _____    ______ ____
ROOT
ATOM      1  C   UNL     1       2.286   5.073  20.392  0.00  0.00    +0.000 C 
ATOM      2  C   UNL     1       1.253   6.217  20.287  0.00  0.00    +0.000 C 
ATOM      3  C   UNL     1       1.889   7.570  19.981  0.00  0.00    +0.000 C 
ATOM      4  C   UNL     1       2.788   7.429  18.750  0.00  0.00    +0.000 C 
ATOM      5  O   UNL     1       2.690   8.159  17.767  0.00  0.00    +0.000 OA
ATOM      6  C   UNL     1       3.869   6.347  18.882  0.00  0.00    +0.000 C 
ATOM      7  C   UNL     1       3.189   4.949  19.102  0.00  0.00    +0.000 C 
ATOM      8  C   UNL     1       2.312   4.499  17.910  0.00  0.00    +0.000 C 
ATOM      9  C   UNL     1       4.299   3.888  19.331  0.00  0.00    +0.000 C 
ATOM     10  C   UNL     1       5.443   3.938  18.312  0.00  0.00    +0.000 C 
ATOM     11  C   UNL     1       6.084   5.329  18.267  0.00  0.00    +0.000 C 
ATOM     12  C   UNL     1       7.332   5.366  17.409  0.00  0.00    +0.000 C 
ATOM     13  O   UNL     1       7.892   4.353  17.004  0.00  0.00    +0.000 OA
ATOM     14  O   UNL     1       7.882   6.586  17.221  0.00  0.00    +0.000 OA
ATOM     15  C   UNL     1       7.151   7.831  17.303  0.00  0.00    +0.000 C 
ATOM     16  C   UNL     1       5.837   7.752  18.095  0.00  0.00    +0.000 C 
ATOM     17  C   UNL     1       5.071   6.426  17.873  0.00  0.00    +0.000 C 
ATOM     18  C   UNL     1       4.667   6.318  16.384  0.00  0.00    +0.000 C 
ENDROOT
BRANCH  15  19
ATOM     19  C   UNL     1       8.036   8.908  17.857  0.00  0.00    +0.000 A 
ATOM     20  C   UNL     1       8.900   8.833  18.990  0.00  0.00    +0.000 A 
ATOM     21  C   UNL     1       9.489  10.068  19.117  0.00  0.00    +0.000 A 
ATOM     22  O   UNL     1       9.049  10.903  18.143  0.00  0.00    +0.000 OA
ATOM     23  C   UNL     1       8.176  10.198  17.381  0.00  0.00    +0.000 A 
ENDBRANCH  15  19
BRANCH   1  24
ATOM     24  C   UNL     1       1.547   3.787  20.752  0.00  0.00    +0.000 C 
ATOM     25  O   UNL     1       0.661   3.284  20.076  0.00  0.00    +0.000 OA
BRANCH  24  27
ATOM     26  C   UNL     1       2.646   1.999  21.782  0.00  0.00    +0.000 C 
ATOM     27  O   UNL     1       2.020   3.277  21.921  0.00  0.00    +0.000 OA
ENDBRANCH  24  27
ENDBRANCH   1  24
BRANCH   3  28
ATOM     28  O   UNL     1       0.869   8.550  19.752  0.00  0.00    +0.000 OA
BRANCH  28  29
ATOM     29  C   UNL     1       0.935   9.654  20.541  0.00  0.00    +0.000 C 
ATOM     30  C   UNL     1       0.831   9.295  21.993  0.00  0.00    +0.000 C 
ATOM     31  O   UNL     1       1.077  10.800  20.131  0.00  0.00    +0.000 OA
ENDBRANCH  28  29
ENDBRANCH   3  28
TORSDOF 5
ENDMDL
MODEL 3
REMARK VINA RESULT:      -7.0      0.756      1.024
REMARK  Name = 
REMARK  9 active torsions:
REMARK  status: ('A' for Active; 'I' for Inactive)
REMARK    1  A    between atoms: C_1  and  O_2
REMARK    2  A    between atoms: O_2  and  C_3
REMARK    3  A    between atoms: C_3  and  C_5
REMARK    4  A    between atoms: C_7  and  O_8
REMARK    5  A    between atoms: O_8  and  C_9
REMARK    6  A    between atoms: C_9  and  C_10
REMARK    7  A    between atoms: C_15  and  C_16
REMARK    8  A    between atoms: C_23  and  C_24
REMARK    9  A    between atoms: C_30  and  C_31
REMARK                            x       y       z     vdW  Elec       q    Type
REMARK                         _______ _______ _______ _____ _____    ______ ____
ROOT
ATOM      1  C   UNL     1       2.455   4.347  19.812  0.00  0.00    +0.000 C 
ATOM      2  C   UNL     1       1.391   5.447  20.015  0.00  0.00    +0.000 C 
ATOM      3  C   UNL     1       1.975   6.857  19.972  0.00  0.00    +0.000 C 
ATOM      4  C   UNL     1       2.796   7.015  18.689  0.00  0.00    +0.000 C 
ATOM      5  O   UNL     1       2.618   7.934  17.894  0.00  0.00    +0.000 OA
ATOM      6  C   UNL     1       3.908   5.970  18.523  0.00  0.00    +0.000 C 
ATOM      7  C   UNL     1       3.276   4.533  18.475  0.00  0.00    +0.000 C 
ATOM      8  C   UNL     1       2.336   4.317  17.267  0.00  0.00    +0.000 C 
ATOM      9  C   UNL     1       4.423   3.489  18.407  0.00  0.00    +0.000 C 
ATOM     10  C   UNL     1       5.497   3.798  17.358  0.00  0.00    +0.000 C 
ATOM     11  C   UNL     1       6.102   5.189  17.577  0.00  0.00    +0.000 C 
ATOM     12  C   UNL     1       7.291   5.453  16.676  0.00  0.00    +0.000 C 
ATOM     13  O   UNL     1       7.848   4.571  16.031  0.00  0.00    +0.000 OA
ATOM     14  O   UNL     1       7.800   6.704  16.724  0.00  0.00    +0.000 OA
ATOM     15  C   UNL     1       7.046   7.875  17.114  0.00  0.00    +0.000 C 
ATOM     16  C   UNL     1       5.788   7.582  17.945  0.00  0.00    +0.000 C 
ATOM     17  C   UNL     1       5.041   6.307  17.487  0.00  0.00    +0.000 C 
ATOM     18  C   UNL     1       4.545   6.503  16.036  0.00  0.00    +0.000 C 
ENDROOT
BRANCH  15  19
ATOM     19  C   UNL     1       7.940   8.841  17.836  0.00  0.00    +0.000 A 
ATOM     20  C   UNL     1       8.126  10.229  17.566  0.00  0.00    +0.000 A 
ATOM     21  C   UNL     1       9.050  10.686  18.474  0.00  0.00    +0.000 A 
ATOM     22  O   UNL     1       9.451   9.676  19.287  0.00  0.00    +0.000 OA
ATOM     23  C   UNL     1       8.775   8.565  18.902  0.00  0.00    +0.000 A 
ENDBRANCH  15  19
BRANCH   1  24
ATOM     24  C   UNL     1       1.770   2.987  19.928  0.00  0.00    +0.000 C 
ATOM     25  O   UNL     1       2.012   2.025  19.214  0.00  0.00    +0.000 OA
BRANCH  24  27
ATOM     26  C   UNL     1       1.391   2.539  22.191  0.00  0.00    +0.000 C 
ATOM     27  O   UNL     1       0.864   2.996  20.943  0.00  0.00    +0.000 OA
ENDBRANCH  24  27
ENDBRANCH   1  24
BRANCH   3  28
ATOM     28  O   UNL     1       0.919   7.826  20.018  0.00  0.00    +0.000 OA
BRANCH  28  29
ATOM     29  C   UNL     1       1.230   8.996  20.636  0.00  0.00    +0.000 C 
ATOM     30  C   UNL     1       1.417   8.802  22.110  0.00  0.00    +0.000 C 
ATOM     31  O   UNL     1       1.358  10.074  20.068  0.00  0.00    +0.000 OA
ENDBRANCH  28  29
ENDBRANCH   3  28
TORSDOF 5
ENDMDL
MODEL 4
REMARK VINA RESULT:      -6.6      9.383     11.317
REMARK  Name = 
REMARK  9 active torsions:
REMARK  status: ('A' for Active; 'I' for Inactive)
REMARK    1  A    between atoms: C_1  and  O_2
REMARK    2  A    between atoms: O_2  and  C_3
REMARK    3  A    between atoms: C_3  and  C_5
REMARK    4  A    between atoms: C_7  and  O_8
REMARK    5  A    between atoms: O_8  and  C_9
REMARK    6  A    between atoms: C_9  and  C_10
REMARK    7  A    between atoms: C_15  and  C_16
REMARK    8  A    between atoms: C_23  and  C_24
REMARK    9  A    between atoms: C_30  and  C_31
REMARK                            x       y       z     vdW  Elec       q    Type
REMARK                         _______ _______ _______ _____ _____    ______ ____
ROOT
ATOM      1  C   UNL     1      -4.850  13.454  22.525  0.00  0.00    +0.000 C 
ATOM      2  C   UNL     1      -5.271  12.498  21.388  0.00  0.00    +0.000 C 
ATOM      3  C   UNL     1      -4.575  12.801  20.064  0.00  0.00    +0.000 C 
ATOM      4  C   UNL     1      -3.063  12.861  20.300  0.00  0.00    +0.000 C 
ATOM      5  O   UNL     1      -2.261  12.201  19.644  0.00  0.00    +0.000 OA
ATOM      6  C   UNL     1      -2.634  13.870  21.374  0.00  0.00    +0.000 C 
ATOM      7  C   UNL     1      -3.287  13.484  22.749  0.00  0.00    +0.000 C 
ATOM      8  C   UNL     1      -2.824  12.107  23.281  0.00  0.00    +0.000 C 
ATOM      9  C   UNL     1      -2.920  14.571  23.794  0.00  0.00    +0.000 C 
ATOM     10  C   UNL     1      -1.434  14.944  23.825  0.00  0.00    +0.000 C 
ATOM     11  C   UNL     1      -0.948  15.396  22.444  0.00  0.00    +0.000 C 
ATOM     12  C   UNL     1       0.464  15.947  22.477  0.00  0.00    +0.000 C 
ATOM     13  O   UNL     1       1.047  16.222  23.519  0.00  0.00    +0.000 OA
ATOM     14  O   UNL     1       1.005  16.251  21.277  0.00  0.00    +0.000 OA
ATOM     15  C   UNL     1       0.606  15.644  20.025  0.00  0.00    +0.000 C 
ATOM     16  C   UNL     1      -0.790  15.004  20.040  0.00  0.00    +0.000 C 
ATOM     17  C   UNL     1      -1.122  14.296  21.375  0.00  0.00    +0.000 C 
ATOM     18  C   UNL     1      -0.128  13.132  21.592  0.00  0.00    +0.000 C 
ENDROOT
BRANCH  15  19
ATOM     19  C   UNL     1       0.715  16.647  18.914  0.00  0.00    +0.000 A 
ATOM     20  C   UNL     1      -0.339  17.192  18.123  0.00  0.00    +0.000 A 
ATOM     21  C   UNL     1       0.248  18.051  17.225  0.00  0.00    +0.000 A 
ATOM     22  O   UNL     1       1.592  18.075  17.405  0.00  0.00    +0.000 OA
ATOM     23  C   UNL     1       1.870  17.229  18.429  0.00  0.00    +0.000 A 
ENDBRANCH  15  19
BRANCH   1  24
ATOM     24  C   UNL     1      -5.644  13.093  23.778  0.00  0.00    +0.000 C 
ATOM     25  O   UNL     1      -5.587  12.013  24.348  0.00  0.00    +0.000 OA
BRANCH  24  27
ATOM     26  C   UNL     1      -7.813  13.857  24.202  0.00  0.00    +0.000 C 
ATOM     27  O   UNL     1      -6.413  14.144  24.174  0.00  0.00    +0.000 OA
ENDBRANCH  24  27
ENDBRANCH   1  24
BRANCH   3  28
ATOM     28  O   UNL     1      -4.896  11.791  19.099  0.00  0.00    +0.000 OA
BRANCH  28  29
ATOM     29  C   UNL     1      -5.315  12.253  17.891  0.00  0.00    +0.000 C 
ATOM     30  C   UNL     1      -4.601  11.566  16.767  0.00  0.00    +0.000 C 
ATOM     31  O   UNL     1      -6.177  13.109  17.730  0.00  0.00    +0.000 OA
ENDBRANCH  28  29
ENDBRANCH   3  28
TORSDOF 5
ENDMDL
MODEL 5
REMARK VINA RESULT:      -6.2      8.511     10.548
REMARK  Name = 
REMARK  9 active torsions:
REMARK  status: ('A' for Active; 'I' for Inactive)
REMARK    1  A    between atoms: C_1  and  O_2
REMARK    2  A    between atoms: O_2  and  C_3
REMARK    3  A    between atoms: C_3  and  C_5
REMARK    4  A    between atoms: C_7  and  O_8
REMARK    5  A    between atoms: O_8  and  C_9
REMARK    6  A    between atoms: C_9  and  C_10
REMARK    7  A    between atoms: C_15  and  C_16
REMARK    8  A    between atoms: C_23  and  C_24
REMARK    9  A    between atoms: C_30  and  C_31
REMARK                            x       y       z     vdW  Elec       q    Type
REMARK                         _______ _______ _______ _____ _____    ______ ____
ROOT
ATOM      1  C   UNL     1      -4.540  13.416  21.068  0.00  0.00    +0.000 C 
ATOM      2  C   UNL     1      -4.647  12.257  20.053  0.00  0.00    +0.000 C 
ATOM      3  C   UNL     1      -3.529  12.269  19.013  0.00  0.00    +0.000 C 
ATOM      4  C   UNL     1      -2.181  12.341  19.734  0.00  0.00    +0.000 C 
ATOM      5  O   UNL     1      -1.270  11.545  19.525  0.00  0.00    +0.000 OA
ATOM      6  C   UNL     1      -2.041  13.539  20.685  0.00  0.00    +0.000 C 
ATOM      7  C   UNL     1      -3.141  13.456  21.801  0.00  0.00    +0.000 C 
ATOM      8  C   UNL     1      -3.005  12.208  22.704  0.00  0.00    +0.000 C 
ATOM      9  C   UNL     1      -3.044  14.726  22.689  0.00  0.00    +0.000 C 
ATOM     10  C   UNL     1      -1.623  15.064  23.154  0.00  0.00    +0.000 C 
ATOM     11  C   UNL     1      -0.671  15.214  21.963  0.00  0.00    +0.000 C 
ATOM     12  C   UNL     1       0.694  15.729  22.373  0.00  0.00    +0.000 C 
ATOM     13  O   UNL     1       0.924  16.198  23.481  0.00  0.00    +0.000 OA
ATOM     14  O   UNL     1       1.626  15.770  21.395  0.00  0.00    +0.000 OA
ATOM     15  C   UNL     1       1.608  14.929  20.217  0.00  0.00    +0.000 C 
ATOM     16  C   UNL     1       0.234  14.336  19.873  0.00  0.00    +0.000 C 
ATOM     17  C   UNL     1      -0.581  13.923  21.121  0.00  0.00    +0.000 C 
ATOM     18  C   UNL     1       0.177  12.806  21.875  0.00  0.00    +0.000 C 
ENDROOT
BRANCH  15  19
ATOM     19  C   UNL     1       2.166  15.681  19.045  0.00  0.00    +0.000 A 
ATOM     20  C   UNL     1       3.029  15.189  18.022  0.00  0.00    +0.000 A 
ATOM     21  C   UNL     1       3.283  16.246  17.180  0.00  0.00    +0.000 A 
ATOM     22  O   UNL     1       2.638  17.358  17.612  0.00  0.00    +0.000 OA
ATOM     23  C   UNL     1       1.961  17.012  18.735  0.00  0.00    +0.000 A 
ENDBRANCH  15  19
BRANCH   1  24
ATOM     24  C   UNL     1      -5.731  13.336  22.019  0.00  0.00    +0.000 C 
ATOM     25  O   UNL     1      -6.156  14.272  22.679  0.00  0.00    +0.000 OA
BRANCH  24  27
ATOM     26  C   UNL     1      -7.676  12.049  22.189  0.00  0.00    +0.000 C 
ATOM     27  O   UNL     1      -6.257  12.080  22.018  0.00  0.00    +0.000 OA
ENDBRANCH  24  27
ENDBRANCH   1  24
BRANCH   3  28
ATOM     28  O   UNL     1      -3.604  11.090  18.201  0.00  0.00    +0.000 OA
BRANCH  28  29
ATOM     29  C   UNL     1      -3.942  11.300  16.901  0.00  0.00    +0.000 C 
ATOM     30  C   UNL     1      -2.876  10.803  15.972  0.00  0.00    +0.000 C 
ATOM     31  O   UNL     1      -4.989  11.814  16.524  0.00  0.00    +0.000 OA
ENDBRANCH  28  29
ENDBRANCH   3  28
TORSDOF 5
ENDMDL
MODEL 6
REMARK VINA RESULT:      -6.1      7.896     12.778
REMARK  Name = 
REMARK  9 active torsions:
REMARK  status: ('A' for Active; 'I' for Inactive)
REMARK    1  A    between atoms: C_1  and  O_2
REMARK    2  A    between atoms: O_2  and  C_3
REMARK    3  A    between atoms: C_3  and  C_5
REMARK    4  A    between atoms: C_7  and  O_8
REMARK    5  A    between atoms: O_8  and  C_9
REMARK    6  A    between atoms: C_9  and  C_10
REMARK    7  A    between atoms: C_15  and  C_16
REMARK    8  A    between atoms: C_23  and  C_24
REMARK    9  A    between atoms: C_30  and  C_31
REMARK                            x       y       z     vdW  Elec       q    Type
REMARK                         _______ _______ _______ _____ _____    ______ ____
ROOT
ATOM      1  C   UNL     1      -5.987  15.949  20.769  0.00  0.00    +0.000 C 
ATOM      2  C   UNL     1      -7.036  14.888  20.370  0.00  0.00    +0.000 C 
ATOM      3  C   UNL     1      -6.438  13.495  20.190  0.00  0.00    +0.000 C 
ATOM      4  C   UNL     1      -5.633  13.135  21.442  0.00  0.00    +0.000 C 
ATOM      5  O   UNL     1      -5.812  12.096  22.073  0.00  0.00    +0.000 OA
ATOM      6  C   UNL     1      -4.535  14.148  21.796  0.00  0.00    +0.000 C 
ATOM      7  C   UNL     1      -5.182  15.551  22.069  0.00  0.00    +0.000 C 
ATOM      8  C   UNL     1      -6.142  15.558  23.282  0.00  0.00    +0.000 C 
ATOM      9  C   UNL     1      -4.048  16.580  22.326  0.00  0.00    +0.000 C 
ATOM     10  C   UNL     1      -2.985  16.112  23.326  0.00  0.00    +0.000 C 
ATOM     11  C   UNL     1      -2.363  14.781  22.891  0.00  0.00    +0.000 C 
ATOM     12  C   UNL     1      -1.183  14.382  23.754  0.00  0.00    +0.000 C 
ATOM     13  O   UNL     1      -0.645  15.150  24.544  0.00  0.00    +0.000 OA
ATOM     14  O   UNL     1      -0.660  13.160  23.509  0.00  0.00    +0.000 OA
ATOM     15  C   UNL     1      -1.396  12.063  22.920  0.00  0.00    +0.000 C 
ATOM     16  C   UNL     1      -2.645  12.479  22.130  0.00  0.00    +0.000 C 
ATOM     17  C   UNL     1      -3.413  13.655  22.779  0.00  0.00    +0.000 C 
ATOM     18  C   UNL     1      -3.927  13.217  24.170  0.00  0.00    +0.000 C 
ENDROOT
BRANCH  15  19
ATOM     19  C   UNL     1      -0.481  11.237  22.063  0.00  0.00    +0.000 A 
ATOM     20  C   UNL     1      -0.386   9.815  22.005  0.00  0.00    +0.000 A 
ATOM     21  C   UNL     1       0.600   9.525  21.093  0.00  0.00    +0.000 A 
ATOM     22  O   UNL     1       1.123  10.668  20.584  0.00  0.00    +0.000 OA
ATOM     23  C   UNL     1       0.464  11.699  21.168  0.00  0.00    +0.000 A 
ENDBRANCH  15  19
BRANCH   1  24
ATOM     24  C   UNL     1      -6.685  17.303  20.867  0.00  0.00    +0.000 C 
ATOM     25  O   UNL     1      -7.536  17.587  21.698  0.00  0.00    +0.000 OA
BRANCH  24  27
ATOM     26  C   UNL     1      -7.230  18.630  19.021  0.00  0.00    +0.000 C 
ATOM     27  O   UNL     1      -6.218  18.150  19.909  0.00  0.00    +0.000 OA
ENDBRANCH  24  27
ENDBRANCH   1  24
BRANCH   3  28
ATOM     28  O   UNL     1      -7.482  12.538  19.969  0.00  0.00    +0.000 OA
BRANCH  28  29
ATOM     29  C   UNL     1      -7.258  11.655  18.961  0.00  0.00    +0.000 C 
ATOM     30  C   UNL     1      -7.079  12.358  17.649  0.00  0.00    +0.000 C 
ATOM     31  O   UNL     1      -7.193  10.439  19.097  0.00  0.00    +0.000 OA
ENDBRANCH  28  29
ENDBRANCH   3  28
TORSDOF 5
ENDMDL
MODEL 7
REMARK VINA RESULT:      -6.1      5.776      9.872
REMARK  Name = 
REMARK  9 active torsions:
REMARK  status: ('A' for Active; 'I' for Inactive)
REMARK    1  A    between atoms: C_1  and  O_2
REMARK    2  A    between atoms: O_2  and  C_3
REMARK    3  A    between atoms: C_3  and  C_5
REMARK    4  A    between atoms: C_7  and  O_8
REMARK    5  A    between atoms: O_8  and  C_9
REMARK    6  A    between atoms: C_9  and  C_10
REMARK    7  A    between atoms: C_15  and  C_16
REMARK    8  A    between atoms: C_23  and  C_24
REMARK    9  A    between atoms: C_30  and  C_31
REMARK                            x       y       z     vdW  Elec       q    Type
REMARK                         _______ _______ _______ _____ _____    ______ ____
ROOT
ATOM      1  C   UNL     1      -4.030  13.169  22.478  0.00  0.00    +0.000 C 
ATOM      2  C   UNL     1      -3.073  13.886  23.455  0.00  0.00    +0.000 C 
ATOM      3  C   UNL     1      -1.655  13.320  23.425  0.00  0.00    +0.000 C 
ATOM      4  C   UNL     1      -1.162  13.296  21.976  0.00  0.00    +0.000 C 
ATOM      5  O   UNL     1      -0.101  13.806  21.625  0.00  0.00    +0.000 OA
ATOM      6  C   UNL     1      -2.070  12.516  21.016  0.00  0.00    +0.000 C 
ATOM      7  C   UNL     1      -3.496  13.172  20.991  0.00  0.00    +0.000 C 
ATOM      8  C   UNL     1      -3.495  14.622  20.454  0.00  0.00    +0.000 C 
ATOM      9  C   UNL     1      -4.423  12.309  20.093  0.00  0.00    +0.000 C 
ATOM     10  C   UNL     1      -3.820  11.937  18.734  0.00  0.00    +0.000 C 
ATOM     11  C   UNL     1      -2.479  11.216  18.903  0.00  0.00    +0.000 C 
ATOM     12  C   UNL     1      -1.944  10.671  17.594  0.00  0.00    +0.000 C 
ATOM     13  O   UNL     1      -2.621  10.602  16.575  0.00  0.00    +0.000 OA
ATOM     14  O   UNL     1      -0.706  10.131  17.642  0.00  0.00    +0.000 OA
ATOM     15  C   UNL     1       0.298  10.482  18.624  0.00  0.00    +0.000 C 
ATOM     16  C   UNL     1      -0.254  11.124  19.905  0.00  0.00    +0.000 C 
ATOM     17  C   UNL     1      -1.438  12.085  19.643  0.00  0.00    +0.000 C 
ATOM     18  C   UNL     1      -0.952  13.260  18.764  0.00  0.00    +0.000 C 
ENDROOT
BRANCH  15  19
ATOM     19  C   UNL     1       1.131   9.279  18.954  0.00  0.00    +0.000 A 
ATOM     20  C   UNL     1       1.226   8.598  20.204  0.00  0.00    +0.000 A 
ATOM     21  C   UNL     1       2.124   7.573  20.025  0.00  0.00    +0.000 A 
ATOM     22  O   UNL     1       2.591   7.572  18.752  0.00  0.00    +0.000 OA
ATOM     23  C   UNL     1       1.986   8.600  18.107  0.00  0.00    +0.000 A 
ENDBRANCH  15  19
BRANCH   1  24
ATOM     24  C   UNL     1      -5.421  13.778  22.633  0.00  0.00    +0.000 C 
ATOM     25  O   UNL     1      -5.647  14.974  22.748  0.00  0.00    +0.000 OA
BRANCH  24  27
ATOM     26  C   UNL     1      -7.101  12.684  23.836  0.00  0.00    +0.000 C 
ATOM     27  O   UNL     1      -6.372  12.804  22.612  0.00  0.00    +0.000 OA
ENDBRANCH  24  27
ENDBRANCH   1  24
BRANCH   3  28
ATOM     28  O   UNL     1      -0.791  14.122  24.239  0.00  0.00    +0.000 OA
BRANCH  28  29
ATOM     29  C   UNL     1      -1.236  15.380  24.497  0.00  0.00    +0.000 C 
ATOM     30  C   UNL     1      -1.598  15.547  25.942  0.00  0.00    +0.000 C 
ATOM     31  O   UNL     1      -1.321  16.277  23.665  0.00  0.00    +0.000 OA
ENDBRANCH  28  29
ENDBRANCH   3  28
TORSDOF 5
ENDMDL
MODEL 8
REMARK VINA RESULT:      -6.1      7.968     11.715
REMARK  Name = 
REMARK  9 active torsions:
REMARK  status: ('A' for Active; 'I' for Inactive)
REMARK    1  A    between atoms: C_1  and  O_2
REMARK    2  A    between atoms: O_2  and  C_3
REMARK    3  A    between atoms: C_3  and  C_5
REMARK    4  A    between atoms: C_7  and  O_8
REMARK    5  A    between atoms: O_8  and  C_9
REMARK    6  A    between atoms: C_9  and  C_10
REMARK    7  A    between atoms: C_15  and  C_16
REMARK    8  A    between atoms: C_23  and  C_24
REMARK    9  A    between atoms: C_30  and  C_31
REMARK                            x       y       z     vdW  Elec       q    Type
REMARK                         _______ _______ _______ _____ _____    ______ ____
ROOT
ATOM      1  C   UNL     1      -2.785  16.131  22.768  0.00  0.00    +0.000 C 
ATOM      2  C   UNL     1      -4.103  15.673  23.431  0.00  0.00    +0.000 C 
ATOM      3  C   UNL     1      -4.832  14.598  22.629  0.00  0.00    +0.000 C 
ATOM      4  C   UNL     1      -3.857  13.456  22.328  0.00  0.00    +0.000 C 
ATOM      5  O   UNL     1      -4.103  12.283  22.596  0.00  0.00    +0.000 OA
ATOM      6  C   UNL     1      -2.581  13.897  21.597  0.00  0.00    +0.000 C 
ATOM      7  C   UNL     1      -1.799  14.932  22.481  0.00  0.00    +0.000 C 
ATOM      8  C   UNL     1      -1.310  14.343  23.825  0.00  0.00    +0.000 C 
ATOM      9  C   UNL     1      -0.568  15.436  21.681  0.00  0.00    +0.000 C 
ATOM     10  C   UNL     1       0.265  14.325  21.034  0.00  0.00    +0.000 C 
ATOM     11  C   UNL     1      -0.597  13.447  20.120  0.00  0.00    +0.000 C 
ATOM     12  C   UNL     1       0.226  12.456  19.322  0.00  0.00    +0.000 C 
ATOM     13  O   UNL     1       1.447  12.519  19.238  0.00  0.00    +0.000 OA
ATOM     14  O   UNL     1      -0.476  11.565  18.587  0.00  0.00    +0.000 OA
ATOM     15  C   UNL     1      -1.830  11.149  18.885  0.00  0.00    +0.000 C 
ATOM     16  C   UNL     1      -2.617  12.120  19.777  0.00  0.00    +0.000 C 
ATOM     17  C   UNL     1      -1.753  12.767  20.885  0.00  0.00    +0.000 C 
ATOM     18  C   UNL     1      -1.232  11.661  21.832  0.00  0.00    +0.000 C 
ENDROOT
BRANCH  15  19
ATOM     19  C   UNL     1      -2.575  10.883  17.611  0.00  0.00    +0.000 A 
ATOM     20  C   UNL     1      -2.197  10.016  16.542  0.00  0.00    +0.000 A 
ATOM     21  C   UNL     1      -3.182  10.116  15.589  0.00  0.00    +0.000 A 
ATOM     22  O   UNL     1      -4.142  10.985  15.992  0.00  0.00    +0.000 OA
ATOM     23  C   UNL     1      -3.775  11.442  17.216  0.00  0.00    +0.000 A 
ENDBRANCH  15  19
BRANCH   1  24
ATOM     24  C   UNL     1      -2.175  17.238  23.624  0.00  0.00    +0.000 C 
ATOM     25  O   UNL     1      -1.420  18.104  23.204  0.00  0.00    +0.000 OA
BRANCH  24  27
ATOM     26  C   UNL     1      -1.796  17.860  25.845  0.00  0.00    +0.000 C 
ATOM     27  O   UNL     1      -2.599  17.132  24.913  0.00  0.00    +0.000 OA
ENDBRANCH  24  27
ENDBRANCH   1  24
BRANCH   3  28
ATOM     28  O   UNL     1      -5.960  14.116  23.370  0.00  0.00    +0.000 OA
BRANCH  28  29
ATOM     29  C   UNL     1      -7.115  13.999  22.661  0.00  0.00    +0.000 C 
ATOM     30  C   UNL     1      -7.758  15.335  22.442  0.00  0.00    +0.000 C 
ATOM     31  O   UNL     1      -7.572  12.945  22.237  0.00  0.00    +0.000 OA
ENDBRANCH  28  29
ENDBRANCH   3  28
TORSDOF 5
ENDMDL
MODEL 9
REMARK VINA RESULT:      -6.1      5.170      8.228
REMARK  Name = 
REMARK  9 active torsions:
REMARK  status: ('A' for Active; 'I' for Inactive)
REMARK    1  A    between atoms: C_1  and  O_2
REMARK    2  A    between atoms: O_2  and  C_3
REMARK    3  A    between atoms: C_3  and  C_5
REMARK    4  A    between atoms: C_7  and  O_8
REMARK    5  A    between atoms: O_8  and  C_9
REMARK    6  A    between atoms: C_9  and  C_10
REMARK    7  A    between atoms: C_15  and  C_16
REMARK    8  A    between atoms: C_23  and  C_24
REMARK    9  A    between atoms: C_30  and  C_31
REMARK                            x       y       z     vdW  Elec       q    Type
REMARK                         _______ _______ _______ _____ _____    ______ ____
ROOT
ATOM      1  C   UNL     1      -0.680  10.695  18.245  0.00  0.00    +0.000 C 
ATOM      2  C   UNL     1      -0.344   9.433  19.069  0.00  0.00    +0.000 C 
ATOM      3  C   UNL     1       0.998   9.531  19.791  0.00  0.00    +0.000 C 
ATOM      4  C   UNL     1       1.031  10.830  20.601  0.00  0.00    +0.000 C 
ATOM      5  O   UNL     1       1.298  10.861  21.799  0.00  0.00    +0.000 OA
ATOM      6  C   UNL     1       0.777  12.096  19.770  0.00  0.00    +0.000 C 
ATOM      7  C   UNL     1      -0.646  12.015  19.112  0.00  0.00    +0.000 C 
ATOM      8  C   UNL     1      -1.797  11.974  20.145  0.00  0.00    +0.000 C 
ATOM      9  C   UNL     1      -0.842  13.255  18.199  0.00  0.00    +0.000 C 
ATOM     10  C   UNL     1      -0.467  14.589  18.854  0.00  0.00    +0.000 C 
ATOM     11  C   UNL     1       0.978  14.569  19.365  0.00  0.00    +0.000 C 
ATOM     12  C   UNL     1       1.441  15.927  19.851  0.00  0.00    +0.000 C 
ATOM     13  O   UNL     1       0.819  16.960  19.633  0.00  0.00    +0.000 OA
ATOM     14  O   UNL     1       2.661  15.960  20.431  0.00  0.00    +0.000 OA
ATOM     15  C   UNL     1       3.291  14.826  21.071  0.00  0.00    +0.000 C 
ATOM     16  C   UNL     1       2.741  13.459  20.638  0.00  0.00    +0.000 C 
ATOM     17  C   UNL     1       1.210  13.461  20.416  0.00  0.00    +0.000 C 
ATOM     18  C   UNL     1       0.504  13.790  21.752  0.00  0.00    +0.000 C 
ENDROOT
BRANCH  15  19
ATOM     19  C   UNL     1       4.776  14.884  20.868  0.00  0.00    +0.000 A 
ATOM     20  C   UNL     1       5.800  14.649  21.832  0.00  0.00    +0.000 A 
ATOM     21  C   UNL     1       6.999  14.835  21.186  0.00  0.00    +0.000 A 
ATOM     22  O   UNL     1       6.788  15.170  19.889  0.00  0.00    +0.000 OA
ATOM     23  C   UNL     1       5.445  15.194  19.699  0.00  0.00    +0.000 A 
ENDBRANCH  15  19
BRANCH   1  24
ATOM     24  C   UNL     1      -2.008  10.464  17.529  0.00  0.00    +0.000 C 
ATOM     25  O   UNL     1      -2.895   9.726  17.933  0.00  0.00    +0.000 OA
BRANCH  24  27
ATOM     26  C   UNL     1      -3.198  10.900  15.564  0.00  0.00    +0.000 C 
ATOM     27  O   UNL     1      -2.068  11.201  16.386  0.00  0.00    +0.000 OA
ENDBRANCH  24  27
ENDBRANCH   1  24
BRANCH   3  28
ATOM     28  O   UNL     1       1.176   8.397  20.649  0.00  0.00    +0.000 OA
BRANCH  28  29
ATOM     29  C   UNL     1       1.872   7.362  20.108  0.00  0.00    +0.000 C 
ATOM     30  C   UNL     1       1.571   6.074  20.813  0.00  0.00    +0.000 C 
ATOM     31  O   UNL     1       2.637   7.456  19.155  0.00  0.00    +0.000 OA
ENDBRANCH  28  29
ENDBRANCH   3  28
TORSDOF 5
ENDMDL
