MODEL 1
REMARK VINA RESULT:      -7.8      0.000      0.000
REMARK  Name = 
REMARK  13 active torsions:
REMARK  status: ('A' for Active; 'I' for Inactive)
REMARK    1  A    between atoms: C_1  and  C_2
REMARK    2  A    between atoms: C_2  and  C_3
REMARK    3  A    between atoms: C_3  and  C_4
REMARK    4  A    between atoms: C_3  and  C_5
REMARK    5  A    between atoms: C_5  and  O_6
REMARK    6  A    between atoms: O_6  and  C_7
REMARK    7  A    between atoms: C_10  and  S_11
REMARK    8  A    between atoms: S_11  and  N_12
REMARK    9  A    between atoms: C_16  and  C_17
REMARK   10  A    between atoms: N_19  and  C_20
REMARK   11  A    between atoms: C_20  and  C_21
REMARK   12  A    between atoms: N_25  and  C_26
REMARK   13  A    between atoms: C_26  and  C_27
REMARK                            x       y       z     vdW  Elec       q    Type
REMARK                         _______ _______ _______ _____ _____    ______ ____
ROOT
ATOM      1  C   UNL     1       2.924   5.245  18.122  0.00  0.00    +0.000 A 
ATOM      2  C   UNL     1       3.712   4.103  17.849  0.00  0.00    +0.000 A 
ATOM      3  C   UNL     1       4.996   4.209  17.316  0.00  0.00    +0.000 A 
ATOM      4  C   UNL     1       5.513   5.464  17.030  0.00  0.00    +0.000 A 
ATOM      5  C   UNL     1       4.749   6.609  17.262  0.00  0.00    +0.000 A 
ATOM      6  C   UNL     1       3.448   6.519  17.802  0.00  0.00    +0.000 A 
ENDROOT
BRANCH   6   7
ATOM      7  C   UNL     1       2.742   7.834  17.966  0.00  0.00    +0.000 C 
ATOM      8  O   UNL     1       2.689   8.618  17.021  0.00  0.00    +0.000 OA
ATOM      9  N   UNL     1       2.149   8.113  19.171  0.00  0.00    +0.000 N 
ATOM     10  H   UNL     1       2.175   7.403  19.896  0.00  0.00    +0.000 HD
BRANCH   9  11
ATOM     11  C   UNL     1       1.349   9.304  19.388  0.00  0.00    +0.000 C 
BRANCH  11  12
ATOM     12  C   UNL     1       0.826   9.569  20.819  0.00  0.00    +0.000 C 
ATOM     13  C   UNL     1      -0.137   8.531  21.387  0.00  0.00    +0.000 C 
ATOM     14  C   UNL     1      -0.544   9.153  22.715  0.00  0.00    +0.000 C 
ATOM     15  C   UNL     1      -0.278  10.649  22.554  0.00  0.00    +0.000 C 
ATOM     16  N   UNL     1       0.182  10.874  21.166  0.00  0.00    +0.000 NA
BRANCH  16  17
ATOM     17  C   UNL     1      -0.923  11.233  20.263  0.00  0.00    +0.000 C 
ATOM     18  C   UNL     1      -1.811  12.367  20.771  0.00  0.00    +0.000 C 
ENDBRANCH  16  17
ENDBRANCH  11  12
ENDBRANCH   9  11
ENDBRANCH   6   7
BRANCH   4  19
ATOM     19  S   UNL     1       7.144   5.620  16.375  0.00  0.00    +0.000 S 
ATOM     20  O   UNL     1       7.112   5.290  14.971  0.00  0.00    +0.000 OA
ATOM     21  O   UNL     1       7.740   6.838  16.875  0.00  0.00    +0.000 OA
BRANCH  19  22
ATOM     22  N   UNL     1       7.958   4.373  17.146  0.00  0.00    +0.000 NA
ATOM     23  H   UNL     1       8.576   4.753  17.864  0.00  0.00    +0.000 HD
ATOM     24  H   UNL     1       7.288   3.687  17.498  0.00  0.00    +0.000 HD
ENDBRANCH  19  22
ENDBRANCH   4  19
BRANCH   1  25
ATOM     25  O   UNL     1       1.665   5.151  18.688  0.00  0.00    +0.000 OA
BRANCH  25  26
ATOM     26  C   UNL     1       1.642   5.045  20.121  0.00  0.00    +0.000 C 
BRANCH  26  27
ATOM     27  C   UNL     1       1.043   3.708  20.584  0.00  0.00    +0.000 C 
ATOM     28  C   UNL     1       0.729   2.804  19.389  0.00  0.00    +0.000 C 
BRANCH  27  30
ATOM     29  C   UNL     1       3.248   2.426  20.881  0.00  0.00    +0.000 C 
ATOM     30  C   UNL     1       1.999   2.983  21.555  0.00  0.00    +0.000 C 
ENDBRANCH  27  30
ENDBRANCH  26  27
ENDBRANCH  25  26
ENDBRANCH   1  25
TORSDOF 10
ENDMDL
MODEL 2
REMARK VINA RESULT:      -7.6      0.972      1.394
REMARK  Name = 
REMARK  13 active torsions:
REMARK  status: ('A' for Active; 'I' for Inactive)
REMARK    1  A    between atoms: C_1  and  C_2
REMARK    2  A    between atoms: C_2  and  C_3
REMARK    3  A    between atoms: C_3  and  C_4
REMARK    4  A    between atoms: C_3  and  C_5
REMARK    5  A    between atoms: C_5  and  O_6
REMARK    6  A    between atoms: O_6  and  C_7
REMARK    7  A    between atoms: C_10  and  S_11
REMARK    8  A    between atoms: S_11  and  N_12
REMARK    9  A    between atoms: C_16  and  C_17
REMARK   10  A    between atoms: N_19  and  C_20
REMARK   11  A    between atoms: C_20  and  C_21
REMARK   12  A    between atoms: N_25  and  C_26
REMARK   13  A    between atoms: C_26  and  C_27
REMARK                            x       y       z     vdW  Elec       q    Type
REMARK                         _______ _______ _______ _____ _____    ______ ____
ROOT
ATOM      1  C   UNL     1       3.161   5.391  18.853  0.00  0.00    +0.000 A 
ATOM      2  C   UNL     1       3.991   4.258  18.688  0.00  0.00    +0.000 A 
ATOM      3  C   UNL     1       5.127   4.292  17.882  0.00  0.00    +0.000 A 
ATOM      4  C   UNL     1       5.449   5.462  17.209  0.00  0.00    +0.000 A 
ATOM      5  C   UNL     1       4.635   6.590  17.330  0.00  0.00    +0.000 A 
ATOM      6  C   UNL     1       3.481   6.571  18.143  0.00  0.00    +0.000 A 
ENDROOT
BRANCH   6   7
ATOM      7  C   UNL     1       2.693   7.849  18.148  0.00  0.00    +0.000 C 
ATOM      8  O   UNL     1       2.614   8.518  17.120  0.00  0.00    +0.000 OA
ATOM      9  N   UNL     1       2.059   8.223  19.305  0.00  0.00    +0.000 N 
ATOM     10  H   UNL     1       2.112   7.602  20.106  0.00  0.00    +0.000 HD
BRANCH   9  11
ATOM     11  C   UNL     1       1.183   9.378  19.374  0.00  0.00    +0.000 C 
BRANCH  11  12
ATOM     12  C   UNL     1       0.683   9.820  20.770  0.00  0.00    +0.000 C 
ATOM     13  C   UNL     1      -0.155   8.803  21.538  0.00  0.00    +0.000 C 
ATOM     14  C   UNL     1      -0.577   9.589  22.771  0.00  0.00    +0.000 C 
ATOM     15  C   UNL     1      -0.463  11.058  22.366  0.00  0.00    +0.000 C 
ATOM     16  N   UNL     1      -0.072  11.099  20.939  0.00  0.00    +0.000 NA
BRANCH  16  17
ATOM     17  C   UNL     1      -1.236  11.208  20.045  0.00  0.00    +0.000 C 
ATOM     18  C   UNL     1      -1.134  12.324  19.008  0.00  0.00    +0.000 C 
ENDBRANCH  16  17
ENDBRANCH  11  12
ENDBRANCH   9  11
ENDBRANCH   6   7
BRANCH   4  19
ATOM     19  S   UNL     1       6.895   5.533  16.200  0.00  0.00    +0.000 S 
ATOM     20  O   UNL     1       7.814   4.511  16.638  0.00  0.00    +0.000 OA
ATOM     21  O   UNL     1       6.500   5.686  14.819  0.00  0.00    +0.000 OA
BRANCH  19  22
ATOM     22  N   UNL     1       7.563   7.006  16.641  0.00  0.00    +0.000 NA
ATOM     23  H   UNL     1       6.982   7.770  16.293  0.00  0.00    +0.000 HD
ATOM     24  H   UNL     1       7.717   7.031  17.650  0.00  0.00    +0.000 HD
ENDBRANCH  19  22
ENDBRANCH   4  19
BRANCH   1  25
ATOM     25  O   UNL     1       2.054   5.377  19.684  0.00  0.00    +0.000 OA
BRANCH  25  26
ATOM     26  C   UNL     1       2.214   4.643  20.908  0.00  0.00    +0.000 C 
BRANCH  26  27
ATOM     27  C   UNL     1       1.808   3.170  20.747  0.00  0.00    +0.000 C 
ATOM     28  C   UNL     1       1.506   2.532  22.106  0.00  0.00    +0.000 C 
BRANCH  27  30
ATOM     29  C   UNL     1       0.859   2.230  18.553  0.00  0.00    +0.000 C 
ATOM     30  C   UNL     1       0.581   3.035  19.819  0.00  0.00    +0.000 C 
ENDBRANCH  27  30
ENDBRANCH  26  27
ENDBRANCH  25  26
ENDBRANCH   1  25
TORSDOF 10
ENDMDL
MODEL 3
REMARK VINA RESULT:      -7.6      0.913      1.131
REMARK  Name = 
REMARK  13 active torsions:
REMARK  status: ('A' for Active; 'I' for Inactive)
REMARK    1  A    between atoms: C_1  and  C_2
REMARK    2  A    between atoms: C_2  and  C_3
REMARK    3  A    between atoms: C_3  and  C_4
REMARK    4  A    between atoms: C_3  and  C_5
REMARK    5  A    between atoms: C_5  and  O_6
REMARK    6  A    between atoms: O_6  and  C_7
REMARK    7  A    between atoms: C_10  and  S_11
REMARK    8  A    between atoms: S_11  and  N_12
REMARK    9  A    between atoms: C_16  and  C_17
REMARK   10  A    between atoms: N_19  and  C_20
REMARK   11  A    between atoms: C_20  and  C_21
REMARK   12  A    between atoms: N_25  and  C_26
REMARK   13  A    between atoms: C_26  and  C_27
REMARK                            x       y       z     vdW  Elec       q    Type
REMARK                         _______ _______ _______ _____ _____    ______ ____
ROOT
ATOM      1  C   UNL     1       2.914   5.219  17.891  0.00  0.00    +0.000 A 
ATOM      2  C   UNL     1       3.771   4.112  17.694  0.00  0.00    +0.000 A 
ATOM      3  C   UNL     1       5.147   4.270  17.529  0.00  0.00    +0.000 A 
ATOM      4  C   UNL     1       5.691   5.546  17.543  0.00  0.00    +0.000 A 
ATOM      5  C   UNL     1       4.868   6.661  17.708  0.00  0.00    +0.000 A 
ATOM      6  C   UNL     1       3.473   6.517  17.877  0.00  0.00    +0.000 A 
ENDROOT
BRANCH   6   7
ATOM      7  C   UNL     1       2.719   7.809  18.012  0.00  0.00    +0.000 C 
ATOM      8  O   UNL     1       2.737   8.623  17.092  0.00  0.00    +0.000 OA
ATOM      9  N   UNL     1       2.006   8.033  19.162  0.00  0.00    +0.000 N 
ATOM     10  H   UNL     1       1.982   7.300  19.864  0.00  0.00    +0.000 HD
BRANCH   9  11
ATOM     11  C   UNL     1       1.157   9.197  19.337  0.00  0.00    +0.000 C 
BRANCH  11  12
ATOM     12  C   UNL     1       0.738   9.572  20.778  0.00  0.00    +0.000 C 
ATOM     13  C   UNL     1      -0.180   8.584  21.491  0.00  0.00    +0.000 C 
ATOM     14  C   UNL     1      -0.491   9.307  22.794  0.00  0.00    +0.000 C 
ATOM     15  C   UNL     1      -0.238  10.785  22.501  0.00  0.00    +0.000 C 
ATOM     16  N   UNL     1       0.120  10.902  21.070  0.00  0.00    +0.000 NA
BRANCH  16  17
ATOM     17  C   UNL     1      -1.048  11.197  20.224  0.00  0.00    +0.000 C 
ATOM     18  C   UNL     1      -0.881  12.416  19.320  0.00  0.00    +0.000 C 
ENDBRANCH  16  17
ENDBRANCH  11  12
ENDBRANCH   9  11
ENDBRANCH   6   7
BRANCH   4  19
ATOM     19  S   UNL     1       7.432   5.766  17.358  0.00  0.00    +0.000 S 
ATOM     20  O   UNL     1       8.025   4.496  17.017  0.00  0.00    +0.000 OA
ATOM     21  O   UNL     1       7.678   6.970  16.597  0.00  0.00    +0.000 OA
BRANCH  19  22
ATOM     22  N   UNL     1       7.914   6.120  18.925  0.00  0.00    +0.000 NA
ATOM     23  H   UNL     1       7.380   6.913  19.282  0.00  0.00    +0.000 HD
ATOM     24  H   UNL     1       7.849   5.283  19.505  0.00  0.00    +0.000 HD
ENDBRANCH  19  22
ENDBRANCH   4  19
BRANCH   1  25
ATOM     25  O   UNL     1       1.553   5.068  18.095  0.00  0.00    +0.000 OA
BRANCH  25  26
ATOM     26  C   UNL     1       1.065   3.719  18.008  0.00  0.00    +0.000 C 
BRANCH  26  27
ATOM     27  C   UNL     1       0.815   3.112  19.397  0.00  0.00    +0.000 C 
ATOM     28  C   UNL     1       1.739   1.918  19.648  0.00  0.00    +0.000 C 
BRANCH  27  30
ATOM     29  C   UNL     1       2.155   3.853  21.458  0.00  0.00    +0.000 C 
ATOM     30  C   UNL     1       1.009   4.171  20.504  0.00  0.00    +0.000 C 
ENDBRANCH  27  30
ENDBRANCH  26  27
ENDBRANCH  25  26
ENDBRANCH   1  25
TORSDOF 10
ENDMDL
MODEL 4
REMARK VINA RESULT:      -7.6      0.992      1.204
REMARK  Name = 
REMARK  13 active torsions:
REMARK  status: ('A' for Active; 'I' for Inactive)
REMARK    1  A    between atoms: C_1  and  C_2
REMARK    2  A    between atoms: C_2  and  C_3
REMARK    3  A    between atoms: C_3  and  C_4
REMARK    4  A    between atoms: C_3  and  C_5
REMARK    5  A    between atoms: C_5  and  O_6
REMARK    6  A    between atoms: O_6  and  C_7
REMARK    7  A    between atoms: C_10  and  S_11
REMARK    8  A    between atoms: S_11  and  N_12
REMARK    9  A    between atoms: C_16  and  C_17
REMARK   10  A    between atoms: N_19  and  C_20
REMARK   11  A    between atoms: C_20  and  C_21
REMARK   12  A    between atoms: N_25  and  C_26
REMARK   13  A    between atoms: C_26  and  C_27
REMARK                            x       y       z     vdW  Elec       q    Type
REMARK                         _______ _______ _______ _____ _____    ______ ____
ROOT
ATOM      1  C   UNL     1       2.950   5.041  18.410  0.00  0.00    +0.000 A 
ATOM      2  C   UNL     1       3.824   3.931  18.341  0.00  0.00    +0.000 A 
ATOM      3  C   UNL     1       5.195   4.089  18.141  0.00  0.00    +0.000 A 
ATOM      4  C   UNL     1       5.718   5.365  17.991  0.00  0.00    +0.000 A 
ATOM      5  C   UNL     1       4.878   6.479  18.027  0.00  0.00    +0.000 A 
ATOM      6  C   UNL     1       3.487   6.336  18.229  0.00  0.00    +0.000 A 
ENDROOT
BRANCH   6   7
ATOM      7  C   UNL     1       2.713   7.622  18.213  0.00  0.00    +0.000 C 
ATOM      8  O   UNL     1       2.665   8.291  17.183  0.00  0.00    +0.000 OA
ATOM      9  N   UNL     1       2.056   8.005  19.355  0.00  0.00    +0.000 N 
ATOM     10  H   UNL     1       2.085   7.385  20.158  0.00  0.00    +0.000 HD
BRANCH   9  11
ATOM     11  C   UNL     1       1.192   9.170  19.402  0.00  0.00    +0.000 C 
BRANCH  11  12
ATOM     12  C   UNL     1       0.724   9.663  20.791  0.00  0.00    +0.000 C 
ATOM     13  C   UNL     1      -0.211   8.731  21.557  0.00  0.00    +0.000 C 
ATOM     14  C   UNL     1      -0.569   9.559  22.782  0.00  0.00    +0.000 C 
ATOM     15  C   UNL     1      -0.317  11.009  22.372  0.00  0.00    +0.000 C 
ATOM     16  N   UNL     1       0.088  11.007  20.949  0.00  0.00    +0.000 NA
BRANCH  16  17
ATOM     17  C   UNL     1      -1.054  11.218  20.044  0.00  0.00    +0.000 C 
ATOM     18  C   UNL     1      -2.045  12.281  20.513  0.00  0.00    +0.000 C 
ENDBRANCH  16  17
ENDBRANCH  11  12
ENDBRANCH   9  11
ENDBRANCH   6   7
BRANCH   4  19
ATOM     19  S   UNL     1       7.453   5.587  17.758  0.00  0.00    +0.000 S 
ATOM     20  O   UNL     1       8.001   6.209  18.939  0.00  0.00    +0.000 OA
ATOM     21  O   UNL     1       8.010   4.386  17.180  0.00  0.00    +0.000 OA
BRANCH  19  22
ATOM     22  N   UNL     1       7.503   6.737  16.539  0.00  0.00    +0.000 NA
ATOM     23  H   UNL     1       7.551   6.277  15.629  0.00  0.00    +0.000 HD
ATOM     24  H   UNL     1       6.717   7.381  16.635  0.00  0.00    +0.000 HD
ENDBRANCH  19  22
ENDBRANCH   4  19
BRANCH   1  25
ATOM     25  O   UNL     1       1.594   4.895  18.648  0.00  0.00    +0.000 OA
BRANCH  25  26
ATOM     26  C   UNL     1       1.232   4.667  20.020  0.00  0.00    +0.000 C 
BRANCH  26  27
ATOM     27  C   UNL     1       0.588   3.286  20.218  0.00  0.00    +0.000 C 
ATOM     28  C   UNL     1       0.558   2.502  18.904  0.00  0.00    +0.000 C 
BRANCH  27  30
ATOM     29  C   UNL     1       2.688   3.080  21.683  0.00  0.00    +0.000 C 
ATOM     30  C   UNL     1       1.341   2.477  21.296  0.00  0.00    +0.000 C 
ENDBRANCH  27  30
ENDBRANCH  26  27
ENDBRANCH  25  26
ENDBRANCH   1  25
TORSDOF 10
ENDMDL
MODEL 5
REMARK VINA RESULT:      -7.5      1.553      2.052
REMARK  Name = 
REMARK  13 active torsions:
REMARK  status: ('A' for Active; 'I' for Inactive)
REMARK    1  A    between atoms: C_1  and  C_2
REMARK    2  A    between atoms: C_2  and  C_3
REMARK    3  A    between atoms: C_3  and  C_4
REMARK    4  A    between atoms: C_3  and  C_5
REMARK    5  A    between atoms: C_5  and  O_6
REMARK    6  A    between atoms: O_6  and  C_7
REMARK    7  A    between atoms: C_10  and  S_11
REMARK    8  A    between atoms: S_11  and  N_12
REMARK    9  A    between atoms: C_16  and  C_17
REMARK   10  A    between atoms: N_19  and  C_20
REMARK   11  A    between atoms: C_20  and  C_21
REMARK   12  A    between atoms: N_25  and  C_26
REMARK   13  A    between atoms: C_26  and  C_27
REMARK                            x       y       z     vdW  Elec       q    Type
REMARK                         _______ _______ _______ _____ _____    ______ ____
ROOT
ATOM      1  C   UNL     1       2.768   4.768  17.618  0.00  0.00    +0.000 A 
ATOM      2  C   UNL     1       3.471   3.686  17.040  0.00  0.00    +0.000 A 
ATOM      3  C   UNL     1       4.822   3.783  16.707  0.00  0.00    +0.000 A 
ATOM      4  C   UNL     1       5.494   4.975  16.933  0.00  0.00    +0.000 A 
ATOM      5  C   UNL     1       4.821   6.071  17.477  0.00  0.00    +0.000 A 
ATOM      6  C   UNL     1       3.454   5.988  17.820  0.00  0.00    +0.000 A 
ENDROOT
BRANCH   6   7
ATOM      7  C   UNL     1       2.864   7.256  18.365  0.00  0.00    +0.000 C 
ATOM      8  O   UNL     1       2.615   7.345  19.565  0.00  0.00    +0.000 OA
ATOM      9  N   UNL     1       2.641   8.299  17.502  0.00  0.00    +0.000 N 
ATOM     10  H   UNL     1       2.919   8.189  16.532  0.00  0.00    +0.000 HD
BRANCH   9  11
ATOM     11  C   UNL     1       2.182   9.599  17.954  0.00  0.00    +0.000 C 
BRANCH  11  12
ATOM     12  C   UNL     1       0.820   9.668  18.685  0.00  0.00    +0.000 C 
ATOM     13  C   UNL     1      -0.367  10.142  17.852  0.00  0.00    +0.000 C 
ATOM     14  C   UNL     1      -1.484  10.215  18.884  0.00  0.00    +0.000 C 
ATOM     15  C   UNL     1      -0.774  10.347  20.231  0.00  0.00    +0.000 C 
ATOM     16  N   UNL     1       0.679  10.428  19.965  0.00  0.00    +0.000 NA
BRANCH  16  17
ATOM     17  C   UNL     1       1.152  11.819  19.868  0.00  0.00    +0.000 C 
ATOM     18  C   UNL     1       0.477  12.784  20.841  0.00  0.00    +0.000 C 
ENDBRANCH  16  17
ENDBRANCH  11  12
ENDBRANCH   9  11
ENDBRANCH   6   7
BRANCH   4  19
ATOM     19  S   UNL     1       7.208   5.111  16.539  0.00  0.00    +0.000 S 
ATOM     20  O   UNL     1       7.973   4.451  17.569  0.00  0.00    +0.000 OA
ATOM     21  O   UNL     1       7.394   4.835  15.133  0.00  0.00    +0.000 OA
BRANCH  19  22
ATOM     22  N   UNL     1       7.483   6.757  16.713  0.00  0.00    +0.000 NA
ATOM     23  H   UNL     1       6.820   7.151  17.381  0.00  0.00    +0.000 HD
ATOM     24  H   UNL     1       8.461   6.922  16.954  0.00  0.00    +0.000 HD
ENDBRANCH  19  22
ENDBRANCH   4  19
BRANCH   1  25
ATOM     25  O   UNL     1       1.438   4.668  17.988  0.00  0.00    +0.000 OA
BRANCH  25  26
ATOM     26  C   UNL     1       0.962   3.330  18.209  0.00  0.00    +0.000 C 
BRANCH  26  27
ATOM     27  C   UNL     1       0.925   2.978  19.704  0.00  0.00    +0.000 C 
ATOM     28  C   UNL     1       2.054   2.011  20.068  0.00  0.00    +0.000 C 
BRANCH  27  30
ATOM     29  C   UNL     1       2.323   4.355  21.361  0.00  0.00    +0.000 C 
ATOM     30  C   UNL     1       1.022   4.251  20.573  0.00  0.00    +0.000 C 
ENDBRANCH  27  30
ENDBRANCH  26  27
ENDBRANCH  25  26
ENDBRANCH   1  25
TORSDOF 10
ENDMDL
MODEL 6
REMARK VINA RESULT:      -7.4      1.058      1.373
REMARK  Name = 
REMARK  13 active torsions:
REMARK  status: ('A' for Active; 'I' for Inactive)
REMARK    1  A    between atoms: C_1  and  C_2
REMARK    2  A    between atoms: C_2  and  C_3
REMARK    3  A    between atoms: C_3  and  C_4
REMARK    4  A    between atoms: C_3  and  C_5
REMARK    5  A    between atoms: C_5  and  O_6
REMARK    6  A    between atoms: O_6  and  C_7
REMARK    7  A    between atoms: C_10  and  S_11
REMARK    8  A    between atoms: S_11  and  N_12
REMARK    9  A    between atoms: C_16  and  C_17
REMARK   10  A    between atoms: N_19  and  C_20
REMARK   11  A    between atoms: C_20  and  C_21
REMARK   12  A    between atoms: N_25  and  C_26
REMARK   13  A    between atoms: C_26  and  C_27
REMARK                            x       y       z     vdW  Elec       q    Type
REMARK                         _______ _______ _______ _____ _____    ______ ____
ROOT
ATOM      1  C   UNL     1       2.891   4.942  17.631  0.00  0.00    +0.000 A 
ATOM      2  C   UNL     1       3.625   3.808  17.212  0.00  0.00    +0.000 A 
ATOM      3  C   UNL     1       4.950   3.908  16.788  0.00  0.00    +0.000 A 
ATOM      4  C   UNL     1       5.563   5.152  16.760  0.00  0.00    +0.000 A 
ATOM      5  C   UNL     1       4.856   6.295  17.141  0.00  0.00    +0.000 A 
ATOM      6  C   UNL     1       3.515   6.209  17.574  0.00  0.00    +0.000 A 
ENDROOT
BRANCH   6   7
ATOM      7  C   UNL     1       2.881   7.525  17.921  0.00  0.00    +0.000 C 
ATOM      8  O   UNL     1       2.905   8.446  17.108  0.00  0.00    +0.000 OA
ATOM      9  N   UNL     1       2.267   7.654  19.141  0.00  0.00    +0.000 N 
ATOM     10  H   UNL     1       2.228   6.842  19.749  0.00  0.00    +0.000 HD
BRANCH   9  11
ATOM     11  C   UNL     1       1.530   8.846  19.519  0.00  0.00    +0.000 C 
BRANCH  11  12
ATOM     12  C   UNL     1       1.032   8.951  20.980  0.00  0.00    +0.000 C 
ATOM     13  C   UNL     1      -0.326   8.320  21.275  0.00  0.00    +0.000 C 
ATOM     14  C   UNL     1      -0.561   8.710  22.727  0.00  0.00    +0.000 C 
ATOM     15  C   UNL     1       0.320   9.938  22.958  0.00  0.00    +0.000 C 
ATOM     16  N   UNL     1       0.961  10.277  21.668  0.00  0.00    +0.000 NA
BRANCH  16  17
ATOM     17  C   UNL     1       0.198  11.283  20.912  0.00  0.00    +0.000 C 
ATOM     18  C   UNL     1      -0.114  12.557  21.693  0.00  0.00    +0.000 C 
ENDBRANCH  16  17
ENDBRANCH  11  12
ENDBRANCH   9  11
ENDBRANCH   6   7
BRANCH   4  19
ATOM     19  S   UNL     1       7.244   5.298  16.247  0.00  0.00    +0.000 S 
ATOM     20  O   UNL     1       8.049   4.401  17.040  0.00  0.00    +0.000 OA
ATOM     21  O   UNL     1       7.298   5.322  14.803  0.00  0.00    +0.000 OA
BRANCH  19  22
ATOM     22  N   UNL     1       7.632   6.855  16.735  0.00  0.00    +0.000 NA
ATOM     23  H   UNL     1       7.621   6.912  17.754  0.00  0.00    +0.000 HD
ATOM     24  H   UNL     1       8.517   7.140  16.315  0.00  0.00    +0.000 HD
ENDBRANCH  19  22
ENDBRANCH   4  19
BRANCH   1  25
ATOM     25  O   UNL     1       1.589   4.846  18.092  0.00  0.00    +0.000 OA
BRANCH  25  26
ATOM     26  C   UNL     1       1.381   3.899  19.152  0.00  0.00    +0.000 C 
BRANCH  26  27
ATOM     27  C   UNL     1       2.402   4.079  20.287  0.00  0.00    +0.000 C 
ATOM     28  C   UNL     1       1.982   5.212  21.227  0.00  0.00    +0.000 C 
BRANCH  27  30
ATOM     29  C   UNL     1       1.363   2.408  21.938  0.00  0.00    +0.000 C 
ATOM     30  C   UNL     1       2.575   2.769  21.085  0.00  0.00    +0.000 C 
ENDBRANCH  27  30
ENDBRANCH  26  27
ENDBRANCH  25  26
ENDBRANCH   1  25
TORSDOF 10
ENDMDL
MODEL 7
REMARK VINA RESULT:      -7.3      2.902      5.053
REMARK  Name = 
REMARK  13 active torsions:
REMARK  status: ('A' for Active; 'I' for Inactive)
REMARK    1  A    between atoms: C_1  and  C_2
REMARK    2  A    between atoms: C_2  and  C_3
REMARK    3  A    between atoms: C_3  and  C_4
REMARK    4  A    between atoms: C_3  and  C_5
REMARK    5  A    between atoms: C_5  and  O_6
REMARK    6  A    between atoms: O_6  and  C_7
REMARK    7  A    between atoms: C_10  and  S_11
REMARK    8  A    between atoms: S_11  and  N_12
REMARK    9  A    between atoms: C_16  and  C_17
REMARK   10  A    between atoms: N_19  and  C_20
REMARK   11  A    between atoms: C_20  and  C_21
REMARK   12  A    between atoms: N_25  and  C_26
REMARK   13  A    between atoms: C_26  and  C_27
REMARK                            x       y       z     vdW  Elec       q    Type
REMARK                         _______ _______ _______ _____ _____    ______ ____
ROOT
ATOM      1  C   UNL     1       3.891   5.789  17.414  0.00  0.00    +0.000 A 
ATOM      2  C   UNL     1       4.184   4.428  17.168  0.00  0.00    +0.000 A 
ATOM      3  C   UNL     1       3.410   3.402  17.709  0.00  0.00    +0.000 A 
ATOM      4  C   UNL     1       2.333   3.720  18.524  0.00  0.00    +0.000 A 
ATOM      5  C   UNL     1       2.035   5.053  18.808  0.00  0.00    +0.000 A 
ATOM      6  C   UNL     1       2.808   6.103  18.267  0.00  0.00    +0.000 A 
ENDROOT
BRANCH   6   7
ATOM      7  C   UNL     1       2.382   7.480  18.688  0.00  0.00    +0.000 C 
ATOM      8  O   UNL     1       2.237   7.734  19.881  0.00  0.00    +0.000 OA
ATOM      9  N   UNL     1       2.190   8.431  17.718  0.00  0.00    +0.000 N 
ATOM     10  H   UNL     1       2.381   8.180  16.753  0.00  0.00    +0.000 HD
BRANCH   9  11
ATOM     11  C   UNL     1       1.890   9.815  18.034  0.00  0.00    +0.000 C 
BRANCH  11  12
ATOM     12  C   UNL     1       0.498  10.132  18.630  0.00  0.00    +0.000 C 
ATOM     13  C   UNL     1      -0.685  10.021  17.673  0.00  0.00    +0.000 C 
ATOM     14  C   UNL     1      -1.845  10.514  18.526  0.00  0.00    +0.000 C 
ATOM     15  C   UNL     1      -1.202  11.366  19.619  0.00  0.00    +0.000 C 
ATOM     16  N   UNL     1       0.251  11.421  19.347  0.00  0.00    +0.000 NA
BRANCH  16  17
ATOM     17  C   UNL     1       0.628  12.605  18.558  0.00  0.00    +0.000 C 
ATOM     18  C   UNL     1      -0.358  13.767  18.655  0.00  0.00    +0.000 C 
ENDBRANCH  16  17
ENDBRANCH  11  12
ENDBRANCH   9  11
ENDBRANCH   6   7
BRANCH   4  19
ATOM     19  S   UNL     1       1.328   2.437  19.201  0.00  0.00    +0.000 S 
ATOM     20  O   UNL     1       0.190   2.237  18.338  0.00  0.00    +0.000 OA
ATOM     21  O   UNL     1       2.177   1.352  19.636  0.00  0.00    +0.000 OA
BRANCH  19  22
ATOM     22  N   UNL     1       0.750   3.145  20.607  0.00  0.00    +0.000 NA
ATOM     23  H   UNL     1       1.452   3.077  21.345  0.00  0.00    +0.000 HD
ATOM     24  H   UNL     1       0.442   4.099  20.415  0.00  0.00    +0.000 HD
ENDBRANCH  19  22
ENDBRANCH   4  19
BRANCH   1  25
ATOM     25  O   UNL     1       4.630   6.814  16.848  0.00  0.00    +0.000 OA
BRANCH  25  26
ATOM     26  C   UNL     1       6.013   6.511  16.604  0.00  0.00    +0.000 C 
BRANCH  26  27
ATOM     27  C   UNL     1       6.911   6.971  17.763  0.00  0.00    +0.000 C 
ATOM     28  C   UNL     1       7.560   5.774  18.462  0.00  0.00    +0.000 C 
BRANCH  27  30
ATOM     29  C   UNL     1       8.237   9.128  18.191  0.00  0.00    +0.000 C 
ATOM     30  C   UNL     1       8.002   7.943  17.262  0.00  0.00    +0.000 C 
ENDBRANCH  27  30
ENDBRANCH  26  27
ENDBRANCH  25  26
ENDBRANCH   1  25
TORSDOF 10
ENDMDL
MODEL 8
REMARK VINA RESULT:      -7.2      0.949      1.023
REMARK  Name = 
REMARK  13 active torsions:
REMARK  status: ('A' for Active; 'I' for Inactive)
REMARK    1  A    between atoms: C_1  and  C_2
REMARK    2  A    between atoms: C_2  and  C_3
REMARK    3  A    between atoms: C_3  and  C_4
REMARK    4  A    between atoms: C_3  and  C_5
REMARK    5  A    between atoms: C_5  and  O_6
REMARK    6  A    between atoms: O_6  and  C_7
REMARK    7  A    between atoms: C_10  and  S_11
REMARK    8  A    between atoms: S_11  and  N_12
REMARK    9  A    between atoms: C_16  and  C_17
REMARK   10  A    between atoms: N_19  and  C_20
REMARK   11  A    between atoms: C_20  and  C_21
REMARK   12  A    between atoms: N_25  and  C_26
REMARK   13  A    between atoms: C_26  and  C_27
REMARK                            x       y       z     vdW  Elec       q    Type
REMARK                         _______ _______ _______ _____ _____    ______ ____
ROOT
ATOM      1  C   UNL     1       2.912   5.103  17.991  0.00  0.00    +0.000 A 
ATOM      2  C   UNL     1       3.520   3.863  17.687  0.00  0.00    +0.000 A 
ATOM      3  C   UNL     1       4.766   3.790  17.066  0.00  0.00    +0.000 A 
ATOM      4  C   UNL     1       5.424   4.962  16.722  0.00  0.00    +0.000 A 
ATOM      5  C   UNL     1       4.838   6.201  16.984  0.00  0.00    +0.000 A 
ATOM      6  C   UNL     1       3.577   6.291  17.613  0.00  0.00    +0.000 A 
ENDROOT
BRANCH   6   7
ATOM      7  C   UNL     1       3.066   7.691  17.800  0.00  0.00    +0.000 C 
ATOM      8  O   UNL     1       3.854   8.634  17.784  0.00  0.00    +0.000 OA
ATOM      9  N   UNL     1       1.717   7.879  17.961  0.00  0.00    +0.000 N 
ATOM     10  H   UNL     1       1.108   7.068  17.908  0.00  0.00    +0.000 HD
BRANCH   9  11
ATOM     11  C   UNL     1       1.118   9.199  18.034  0.00  0.00    +0.000 C 
BRANCH  11  12
ATOM     12  C   UNL     1       1.040   9.878  19.422  0.00  0.00    +0.000 C 
ATOM     13  C   UNL     1       0.767   8.957  20.607  0.00  0.00    +0.000 C 
ATOM     14  C   UNL     1       0.625   9.940  21.761  0.00  0.00    +0.000 C 
ATOM     15  C   UNL     1       0.261  11.272  21.107  0.00  0.00    +0.000 C 
ATOM     16  N   UNL     1       0.120  11.034  19.654  0.00  0.00    +0.000 NA
BRANCH  16  17
ATOM     17  C   UNL     1      -1.272  10.754  19.266  0.00  0.00    +0.000 C 
ATOM     18  C   UNL     1      -2.111  11.998  18.984  0.00  0.00    +0.000 C 
ENDBRANCH  16  17
ENDBRANCH  11  12
ENDBRANCH   9  11
ENDBRANCH   6   7
BRANCH   4  19
ATOM     19  S   UNL     1       7.011   4.891  15.954  0.00  0.00    +0.000 S 
ATOM     20  O   UNL     1       6.934   4.014  14.812  0.00  0.00    +0.000 OA
ATOM     21  O   UNL     1       7.558   6.227  15.875  0.00  0.00    +0.000 OA
BRANCH  19  22
ATOM     22  N   UNL     1       7.931   4.099  17.112  0.00  0.00    +0.000 NA
ATOM     23  H   UNL     1       8.325   3.244  16.717  0.00  0.00    +0.000 HD
ATOM     24  H   UNL     1       8.629   4.736  17.498  0.00  0.00    +0.000 HD
ENDBRANCH  19  22
ENDBRANCH   4  19
BRANCH   1  25
ATOM     25  O   UNL     1       1.694   5.184  18.643  0.00  0.00    +0.000 OA
BRANCH  25  26
ATOM     26  C   UNL     1       1.720   4.839  20.038  0.00  0.00    +0.000 C 
BRANCH  26  27
ATOM     27  C   UNL     1       0.803   3.644  20.347  0.00  0.00    +0.000 C 
ATOM     28  C   UNL     1       0.566   2.798  19.094  0.00  0.00    +0.000 C 
BRANCH  27  30
ATOM     29  C   UNL     1       2.909   2.579  21.360  0.00  0.00    +0.000 C 
ATOM     30  C   UNL     1       1.400   2.768  21.469  0.00  0.00    +0.000 C 
ENDBRANCH  27  30
ENDBRANCH  26  27
ENDBRANCH  25  26
ENDBRANCH   1  25
TORSDOF 10
ENDMDL
MODEL 9
REMARK VINA RESULT:      -7.2      1.686      2.006
REMARK  Name = 
REMARK  13 active torsions:
REMARK  status: ('A' for Active; 'I' for Inactive)
REMARK    1  A    between atoms: C_1  and  C_2
REMARK    2  A    between atoms: C_2  and  C_3
REMARK    3  A    between atoms: C_3  and  C_4
REMARK    4  A    between atoms: C_3  and  C_5
REMARK    5  A    between atoms: C_5  and  O_6
REMARK    6  A    between atoms: O_6  and  C_7
REMARK    7  A    between atoms: C_10  and  S_11
REMARK    8  A    between atoms: S_11  and  N_12
REMARK    9  A    between atoms: C_16  and  C_17
REMARK   10  A    between atoms: N_19  and  C_20
REMARK   11  A    between atoms: C_20  and  C_21
REMARK   12  A    between atoms: N_25  and  C_26
REMARK   13  A    between atoms: C_26  and  C_27
REMARK                            x       y       z     vdW  Elec       q    Type
REMARK                         _______ _______ _______ _____ _____    ______ ____
ROOT
ATOM      1  C   UNL     1       2.783   4.836  17.575  0.00  0.00    +0.000 A 
ATOM      2  C   UNL     1       3.500   3.852  16.856  0.00  0.00    +0.000 A 
ATOM      3  C   UNL     1       4.819   4.055  16.452  0.00  0.00    +0.000 A 
ATOM      4  C   UNL     1       5.443   5.258  16.746  0.00  0.00    +0.000 A 
ATOM      5  C   UNL     1       4.753   6.261  17.430  0.00  0.00    +0.000 A 
ATOM      6  C   UNL     1       3.418   6.070  17.847  0.00  0.00    +0.000 A 
ENDROOT
BRANCH   6   7
ATOM      7  C   UNL     1       2.802   7.249  18.544  0.00  0.00    +0.000 C 
ATOM      8  O   UNL     1       2.515   7.169  19.737  0.00  0.00    +0.000 OA
ATOM      9  N   UNL     1       2.597   8.400  17.827  0.00  0.00    +0.000 N 
ATOM     10  H   UNL     1       2.905   8.426  16.860  0.00  0.00    +0.000 HD
BRANCH   9  11
ATOM     11  C   UNL     1       2.114   9.623  18.440  0.00  0.00    +0.000 C 
BRANCH  11  12
ATOM     12  C   UNL     1       0.588   9.772  18.646  0.00  0.00    +0.000 C 
ATOM     13  C   UNL     1      -0.275   9.663  17.393  0.00  0.00    +0.000 C 
ATOM     14  C   UNL     1      -1.666   9.980  17.923  0.00  0.00    +0.000 C 
ATOM     15  C   UNL     1      -1.432  10.768  19.211  0.00  0.00    +0.000 C 
ATOM     16  N   UNL     1       0.027  10.961  19.359  0.00  0.00    +0.000 NA
BRANCH  16  17
ATOM     17  C   UNL     1       0.481  12.242  18.794  0.00  0.00    +0.000 C 
ATOM     18  C   UNL     1      -0.570  13.350  18.816  0.00  0.00    +0.000 C 
ENDBRANCH  16  17
ENDBRANCH  11  12
ENDBRANCH   9  11
ENDBRANCH   6   7
BRANCH   4  19
ATOM     19  S   UNL     1       7.118   5.527  16.262  0.00  0.00    +0.000 S 
ATOM     20  O   UNL     1       7.236   5.279  14.846  0.00  0.00    +0.000 OA
ATOM     21  O   UNL     1       7.602   6.738  16.884  0.00  0.00    +0.000 OA
BRANCH  19  22
ATOM     22  N   UNL     1       7.918   4.274  17.040  0.00  0.00    +0.000 NA
ATOM     23  H   UNL     1       7.697   4.286  18.036  0.00  0.00    +0.000 HD
ATOM     24  H   UNL     1       7.705   3.388  16.580  0.00  0.00    +0.000 HD
ENDBRANCH  19  22
ENDBRANCH   4  19
BRANCH   1  25
ATOM     25  O   UNL     1       1.487   4.627  18.015  0.00  0.00    +0.000 OA
BRANCH  25  26
ATOM     26  C   UNL     1       1.264   3.384  18.700  0.00  0.00    +0.000 C 
BRANCH  26  27
ATOM     27  C   UNL     1       2.059   3.306  20.013  0.00  0.00    +0.000 C 
ATOM     28  C   UNL     1       1.121   3.182  21.216  0.00  0.00    +0.000 C 
BRANCH  27  30
ATOM     29  C   UNL     1       4.510   2.540  19.944  0.00  0.00    +0.000 C 
ATOM     30  C   UNL     1       3.045   2.118  19.990  0.00  0.00    +0.000 C 
ENDBRANCH  27  30
ENDBRANCH  26  27
ENDBRANCH  25  26
ENDBRANCH   1  25
TORSDOF 10
ENDMDL
