MODEL 1
REMARK VINA RESULT:      -7.7      0.000      0.000
REMARK  Name = 
REMARK  5 active torsions:
REMARK  status: ('A' for Active; 'I' for Inactive)
REMARK    1  A    between atoms: N_2  and  C_4
REMARK    2  A    between atoms: C_7  and  C_8
REMARK    3  A    between atoms: N_9  and  N_10
REMARK    4  A    between atoms: N_10  and  C_11
REMARK    5  A    between atoms: C_11  and  N_13
REMARK                            x       y       z     vdW  Elec       q    Type
REMARK                         _______ _______ _______ _____ _____    ______ ____
ROOT
ATOM      1  N   UNL     1       7.733   4.475  17.396  0.00  0.00    +0.000 N 
ATOM      2  H   UNL     1       8.619   4.354  17.875  0.00  0.00    +0.000 HD
ENDROOT
BRANCH   1   4
ATOM      3  C   UNL     1       7.197   5.101  15.251  0.00  0.00    +0.000 C 
ATOM      4  N   UNL     1       7.612   4.199  16.076  0.00  0.00    +0.000 NA
BRANCH   3   8
ATOM      5  C   UNL     1       6.218   3.526  12.225  0.00  0.00    +0.000 A 
ATOM      6  C   UNL     1       7.192   4.324  11.672  0.00  0.00    +0.000 A 
ATOM      7  C   UNL     1       7.709   5.075  12.748  0.00  0.00    +0.000 A 
ATOM      8  C   UNL     1       7.029   4.678  13.889  0.00  0.00    +0.000 A 
ATOM      9  O   UNL     1       6.101   3.724  13.570  0.00  0.00    +0.000 OA
BRANCH   5  11
ATOM     10  O   UNL     1       4.194   2.913  11.408  0.00  0.00    +0.000 OA
ATOM     11  N   UNL     1       5.357   2.550  11.637  0.00  0.00    +0.000 N 
ATOM     12  O   UNL     1       5.828   1.431  11.403  0.00  0.00    +0.000 OA
ENDBRANCH   5  11
ENDBRANCH   3   8
ENDBRANCH   1   4
BRANCH   1  13
ATOM     13  C   UNL     1       6.592   4.857  18.109  0.00  0.00    +0.000 C 
ATOM     14  S   UNL     1       6.065   6.456  18.219  0.00  0.00    +0.000 S 
BRANCH  13  15
ATOM     15  N   UNL     1       6.033   3.774  18.778  0.00  0.00    +0.000 N 
ATOM     16  C   UNL     1       4.687   3.385  18.716  0.00  0.00    +0.000 A 
ATOM     17  C   UNL     1       3.999   3.350  17.506  0.00  0.00    +0.000 A 
ATOM     18  C   UNL     1       2.648   3.013  17.502  0.00  0.00    +0.000 A 
ATOM     19  C   UNL     1       2.034   2.701  18.704  0.00  0.00    +0.000 A 
ATOM     20 CL   UNL     1       0.361   2.329  18.757  0.00  0.00    +0.000 Cl
ATOM     21  C   UNL     1       2.807   2.704  19.857  0.00  0.00    +0.000 A 
ATOM     22  N   UNL     1       4.131   3.013  19.886  0.00  0.00    +0.000 NA
ATOM     23  H   UNL     1       6.409   3.634  19.709  0.00  0.00    +0.000 HD
ENDBRANCH  13  15
ENDBRANCH   1  13
TORSDOF 5
ENDMDL
MODEL 2
REMARK VINA RESULT:      -7.2      1.081      1.128
REMARK  Name = 
REMARK  5 active torsions:
REMARK  status: ('A' for Active; 'I' for Inactive)
REMARK    1  A    between atoms: N_2  and  C_4
REMARK    2  A    between atoms: C_7  and  C_8
REMARK    3  A    between atoms: N_9  and  N_10
REMARK    4  A    between atoms: N_10  and  C_11
REMARK    5  A    between atoms: C_11  and  N_13
REMARK                            x       y       z     vdW  Elec       q    Type
REMARK                         _______ _______ _______ _____ _____    ______ ____
ROOT
ATOM      1  N   UNL     1       7.592   4.464  17.808  0.00  0.00    +0.000 N 
ATOM      2  H   UNL     1       7.883   3.689  18.396  0.00  0.00    +0.000 HD
ENDROOT
BRANCH   1   4
ATOM      3  C   UNL     1       6.503   4.581  15.788  0.00  0.00    +0.000 C 
ATOM      4  N   UNL     1       7.580   4.347  16.459  0.00  0.00    +0.000 NA
BRANCH   3   8
ATOM      5  C   UNL     1       6.082   3.444  12.452  0.00  0.00    +0.000 A 
ATOM      6  C   UNL     1       7.135   4.289  12.192  0.00  0.00    +0.000 A 
ATOM      7  C   UNL     1       7.451   4.879  13.434  0.00  0.00    +0.000 A 
ATOM      8  C   UNL     1       6.580   4.347  14.373  0.00  0.00    +0.000 A 
ATOM      9  O   UNL     1       5.727   3.463  13.770  0.00  0.00    +0.000 OA
BRANCH   5  11
ATOM     10  O   UNL     1       4.239   2.989  11.213  0.00  0.00    +0.000 OA
ATOM     11  N   UNL     1       5.343   2.574  11.595  0.00  0.00    +0.000 N 
ATOM     12  O   UNL     1       5.850   1.485  11.302  0.00  0.00    +0.000 OA
ENDBRANCH   5  11
ENDBRANCH   3   8
ENDBRANCH   1   4
BRANCH   1  13
ATOM     13  C   UNL     1       7.123   5.648  18.383  0.00  0.00    +0.000 C 
ATOM     14  S   UNL     1       7.723   7.173  17.979  0.00  0.00    +0.000 S 
BRANCH  13  15
ATOM     15  N   UNL     1       6.191   5.386  19.381  0.00  0.00    +0.000 N 
ATOM     16  C   UNL     1       4.957   4.745  19.196  0.00  0.00    +0.000 A 
ATOM     17  C   UNL     1       4.846   3.605  18.405  0.00  0.00    +0.000 A 
ATOM     18  C   UNL     1       3.590   3.038  18.203  0.00  0.00    +0.000 A 
ATOM     19  C   UNL     1       2.490   3.615  18.816  0.00  0.00    +0.000 A 
ATOM     20 CL   UNL     1       0.917   2.983  18.558  0.00  0.00    +0.000 Cl
ATOM     21  C   UNL     1       2.698   4.716  19.636  0.00  0.00    +0.000 A 
ATOM     22  N   UNL     1       3.914   5.279  19.863  0.00  0.00    +0.000 NA
ATOM     23  H   UNL     1       6.117   6.125  20.071  0.00  0.00    +0.000 HD
ENDBRANCH  13  15
ENDBRANCH   1  13
TORSDOF 5
ENDMDL
MODEL 3
REMARK VINA RESULT:      -7.0      4.253      7.211
REMARK  Name = 
REMARK  5 active torsions:
REMARK  status: ('A' for Active; 'I' for Inactive)
REMARK    1  A    between atoms: N_2  and  C_4
REMARK    2  A    between atoms: C_7  and  C_8
REMARK    3  A    between atoms: N_9  and  N_10
REMARK    4  A    between atoms: N_10  and  C_11
REMARK    5  A    between atoms: C_11  and  N_13
REMARK                            x       y       z     vdW  Elec       q    Type
REMARK                         _______ _______ _______ _____ _____    ______ ____
ROOT
ATOM      1  N   UNL     1       5.511   6.554  17.450  0.00  0.00    +0.000 N 
ATOM      2  H   UNL     1       5.417   7.528  17.184  0.00  0.00    +0.000 HD
ENDROOT
BRANCH   1   4
ATOM      3  C   UNL     1       4.089   4.793  17.849  0.00  0.00    +0.000 C 
ATOM      4  N   UNL     1       4.562   5.943  18.198  0.00  0.00    +0.000 NA
BRANCH   3   8
ATOM      5  C   UNL     1       2.108   3.260  20.364  0.00  0.00    +0.000 A 
ATOM      6  C   UNL     1       1.065   3.591  19.531  0.00  0.00    +0.000 A 
ATOM      7  C   UNL     1       1.661   4.255  18.438  0.00  0.00    +0.000 A 
ATOM      8  C   UNL     1       3.029   4.275  18.668  0.00  0.00    +0.000 A 
ATOM      9  O   UNL     1       3.310   3.666  19.861  0.00  0.00    +0.000 OA
BRANCH   5  11
ATOM     10  O   UNL     1       1.053   2.523  22.231  0.00  0.00    +0.000 OA
ATOM     11  N   UNL     1       2.128   2.572  21.615  0.00  0.00    +0.000 N 
ATOM     12  O   UNL     1       3.201   2.084  21.988  0.00  0.00    +0.000 OA
ENDBRANCH   5  11
ENDBRANCH   3   8
ENDBRANCH   1   4
BRANCH   1  13
ATOM     13  C   UNL     1       6.590   5.797  16.985  0.00  0.00    +0.000 C 
ATOM     14  S   UNL     1       7.527   4.811  17.985  0.00  0.00    +0.000 S 
BRANCH  13  15
ATOM     15  N   UNL     1       6.835   6.047  15.640  0.00  0.00    +0.000 N 
ATOM     16  C   UNL     1       6.565   5.164  14.584  0.00  0.00    +0.000 A 
ATOM     17  C   UNL     1       5.368   4.455  14.522  0.00  0.00    +0.000 A 
ATOM     18  C   UNL     1       5.170   3.546  13.486  0.00  0.00    +0.000 A 
ATOM     19  C   UNL     1       6.164   3.391  12.534  0.00  0.00    +0.000 A 
ATOM     20 CL   UNL     1       5.987   2.248  11.268  0.00  0.00    +0.000 Cl
ATOM     21  C   UNL     1       7.302   4.179  12.638  0.00  0.00    +0.000 A 
ATOM     22  N   UNL     1       7.513   5.085  13.630  0.00  0.00    +0.000 NA
ATOM     23  H   UNL     1       7.692   6.562  15.473  0.00  0.00    +0.000 HD
ENDBRANCH  13  15
ENDBRANCH   1  13
TORSDOF 5
ENDMDL
MODEL 4
REMARK VINA RESULT:      -7.0      1.214      1.511
REMARK  Name = 
REMARK  5 active torsions:
REMARK  status: ('A' for Active; 'I' for Inactive)
REMARK    1  A    between atoms: N_2  and  C_4
REMARK    2  A    between atoms: C_7  and  C_8
REMARK    3  A    between atoms: N_9  and  N_10
REMARK    4  A    between atoms: N_10  and  C_11
REMARK    5  A    between atoms: C_11  and  N_13
REMARK                            x       y       z     vdW  Elec       q    Type
REMARK                         _______ _______ _______ _____ _____    ______ ____
ROOT
ATOM      1  N   UNL     1       7.491   4.699  16.522  0.00  0.00    +0.000 N 
ATOM      2  H   UNL     1       8.486   4.808  16.684  0.00  0.00    +0.000 HD
ENDROOT
BRANCH   1   4
ATOM      3  C   UNL     1       6.660   4.676  14.379  0.00  0.00    +0.000 C 
ATOM      4  N   UNL     1       7.032   4.033  15.435  0.00  0.00    +0.000 NA
BRANCH   3   8
ATOM      5  C   UNL     1       6.091   2.388  11.727  0.00  0.00    +0.000 A 
ATOM      6  C   UNL     1       4.838   2.954  11.709  0.00  0.00    +0.000 A 
ATOM      7  C   UNL     1       4.851   3.912  12.744  0.00  0.00    +0.000 A 
ATOM      8  C   UNL     1       6.113   3.878  13.318  0.00  0.00    +0.000 A 
ATOM      9  O   UNL     1       6.882   2.932  12.696  0.00  0.00    +0.000 OA
BRANCH   5  11
ATOM     10  O   UNL     1       7.687   1.692  10.274  0.00  0.00    +0.000 OA
ATOM     11  N   UNL     1       6.673   1.370  10.911  0.00  0.00    +0.000 N 
ATOM     12  O   UNL     1       6.130   0.259  10.899  0.00  0.00    +0.000 OA
ENDBRANCH   5  11
ENDBRANCH   3   8
ENDBRANCH   1   4
BRANCH   1  13
ATOM     13  C   UNL     1       6.568   5.169  17.461  0.00  0.00    +0.000 C 
ATOM     14  S   UNL     1       6.180   6.802  17.638  0.00  0.00    +0.000 S 
BRANCH  13  15
ATOM     15  N   UNL     1       6.108   4.137  18.271  0.00  0.00    +0.000 N 
ATOM     16  C   UNL     1       4.776   3.705  18.363  0.00  0.00    +0.000 A 
ATOM     17  C   UNL     1       3.990   3.538  17.226  0.00  0.00    +0.000 A 
ATOM     18  C   UNL     1       2.657   3.164  17.372  0.00  0.00    +0.000 A 
ATOM     19  C   UNL     1       2.159   2.947  18.647  0.00  0.00    +0.000 A 
ATOM     20 CL   UNL     1       0.511   2.533  18.880  0.00  0.00    +0.000 Cl
ATOM     21  C   UNL     1       3.027   3.080  19.722  0.00  0.00    +0.000 A 
ATOM     22  N   UNL     1       4.336   3.428  19.607  0.00  0.00    +0.000 NA
ATOM     23  H   UNL     1       6.567   4.096  19.174  0.00  0.00    +0.000 HD
ENDBRANCH  13  15
ENDBRANCH   1  13
TORSDOF 5
ENDMDL
MODEL 5
REMARK VINA RESULT:      -7.0      4.734      6.417
REMARK  Name = 
REMARK  5 active torsions:
REMARK  status: ('A' for Active; 'I' for Inactive)
REMARK    1  A    between atoms: N_2  and  C_4
REMARK    2  A    between atoms: C_7  and  C_8
REMARK    3  A    between atoms: N_9  and  N_10
REMARK    4  A    between atoms: N_10  and  C_11
REMARK    5  A    between atoms: C_11  and  N_13
REMARK                            x       y       z     vdW  Elec       q    Type
REMARK                         _______ _______ _______ _____ _____    ______ ____
ROOT
ATOM      1  N   UNL     1       7.119   4.531  17.242  0.00  0.00    +0.000 N 
ATOM      2  H   UNL     1       7.474   3.885  17.940  0.00  0.00    +0.000 HD
ENDROOT
BRANCH   1   4
ATOM      3  C   UNL     1       7.841   6.402  18.365  0.00  0.00    +0.000 C 
ATOM      4  N   UNL     1       7.468   5.839  17.265  0.00  0.00    +0.000 NA
BRANCH   3   8
ATOM      5  C   UNL     1       8.939   9.736  18.889  0.00  0.00    +0.000 A 
ATOM      6  C   UNL     1       8.161  10.004  17.787  0.00  0.00    +0.000 A 
ATOM      7  C   UNL     1       7.631   8.757  17.396  0.00  0.00    +0.000 A 
ATOM      8  C   UNL     1       8.108   7.811  18.291  0.00  0.00    +0.000 A 
ATOM      9  O   UNL     1       8.923   8.410  19.213  0.00  0.00    +0.000 OA
BRANCH   5  11
ATOM     10  O   UNL     1      10.743  11.072  19.211  0.00  0.00    +0.000 OA
ATOM     11  N   UNL     1       9.718  10.597  19.721  0.00  0.00    +0.000 N 
ATOM     12  O   UNL     1       9.318  10.801  20.873  0.00  0.00    +0.000 OA
ENDBRANCH   5  11
ENDBRANCH   3   8
ENDBRANCH   1   4
BRANCH   1  13
ATOM     13  C   UNL     1       6.319   4.067  16.194  0.00  0.00    +0.000 C 
ATOM     14  S   UNL     1       6.507   4.572  14.595  0.00  0.00    +0.000 S 
BRANCH  13  15
ATOM     15  N   UNL     1       5.311   3.233  16.664  0.00  0.00    +0.000 N 
ATOM     16  C   UNL     1       4.286   3.609  17.544  0.00  0.00    +0.000 A 
ATOM     17  C   UNL     1       3.601   4.810  17.384  0.00  0.00    +0.000 A 
ATOM     18  C   UNL     1       2.631   5.168  18.317  0.00  0.00    +0.000 A 
ATOM     19  C   UNL     1       2.361   4.304  19.366  0.00  0.00    +0.000 A 
ATOM     20 CL   UNL     1       1.211   4.723  20.567  0.00  0.00    +0.000 Cl
ATOM     21  C   UNL     1       3.050   3.099  19.418  0.00  0.00    +0.000 A 
ATOM     22  N   UNL     1       3.989   2.719  18.512  0.00  0.00    +0.000 NA
ATOM     23  H   UNL     1       5.623   2.287  16.853  0.00  0.00    +0.000 HD
ENDBRANCH  13  15
ENDBRANCH   1  13
TORSDOF 5
ENDMDL
MODEL 6
REMARK VINA RESULT:      -6.9      1.686      1.996
REMARK  Name = 
REMARK  5 active torsions:
REMARK  status: ('A' for Active; 'I' for Inactive)
REMARK    1  A    between atoms: N_2  and  C_4
REMARK    2  A    between atoms: C_7  and  C_8
REMARK    3  A    between atoms: N_9  and  N_10
REMARK    4  A    between atoms: N_10  and  C_11
REMARK    5  A    between atoms: C_11  and  N_13
REMARK                            x       y       z     vdW  Elec       q    Type
REMARK                         _______ _______ _______ _____ _____    ______ ____
ROOT
ATOM      1  N   UNL     1       5.761   6.664  16.657  0.00  0.00    +0.000 N 
ATOM      2  H   UNL     1       5.996   7.644  16.774  0.00  0.00    +0.000 HD
ENDROOT
BRANCH   1   4
ATOM      3  C   UNL     1       6.629   5.095  15.219  0.00  0.00    +0.000 C 
ATOM      4  N   UNL     1       5.818   6.075  15.438  0.00  0.00    +0.000 NA
BRANCH   3   8
ATOM      5  C   UNL     1       6.067   3.409  12.147  0.00  0.00    +0.000 A 
ATOM      6  C   UNL     1       7.186   4.096  11.740  0.00  0.00    +0.000 A 
ATOM      7  C   UNL     1       7.569   4.872  12.853  0.00  0.00    +0.000 A 
ATOM      8  C   UNL     1       6.667   4.600  13.871  0.00  0.00    +0.000 A 
ATOM      9  O   UNL     1       5.732   3.700  13.437  0.00  0.00    +0.000 OA
BRANCH   5  11
ATOM     10  O   UNL     1       5.750   1.356  11.237  0.00  0.00    +0.000 OA
ATOM     11  N   UNL     1       5.243   2.465  11.461  0.00  0.00    +0.000 N 
ATOM     12  O   UNL     1       4.101   2.819  11.143  0.00  0.00    +0.000 OA
ENDBRANCH   5  11
ENDBRANCH   3   8
ENDBRANCH   1   4
BRANCH   1  13
ATOM     13  C   UNL     1       5.445   5.877  17.768  0.00  0.00    +0.000 C 
ATOM     14  S   UNL     1       6.487   5.668  19.078  0.00  0.00    +0.000 S 
BRANCH  13  15
ATOM     15  N   UNL     1       4.227   5.230  17.594  0.00  0.00    +0.000 N 
ATOM     16  C   UNL     1       3.453   4.660  18.616  0.00  0.00    +0.000 A 
ATOM     17  C   UNL     1       3.246   5.326  19.822  0.00  0.00    +0.000 A 
ATOM     18  C   UNL     1       2.519   4.695  20.829  0.00  0.00    +0.000 A 
ATOM     19  C   UNL     1       2.005   3.430  20.591  0.00  0.00    +0.000 A 
ATOM     20 CL   UNL     1       1.147   2.594  21.817  0.00  0.00    +0.000 Cl
ATOM     21  C   UNL     1       2.210   2.864  19.340  0.00  0.00    +0.000 A 
ATOM     22  N   UNL     1       2.900   3.464  18.334  0.00  0.00    +0.000 NA
ATOM     23  H   UNL     1       4.182   4.671  16.750  0.00  0.00    +0.000 HD
ENDBRANCH  13  15
ENDBRANCH   1  13
TORSDOF 5
ENDMDL
MODEL 7
REMARK VINA RESULT:      -6.9      1.611      1.824
REMARK  Name = 
REMARK  5 active torsions:
REMARK  status: ('A' for Active; 'I' for Inactive)
REMARK    1  A    between atoms: N_2  and  C_4
REMARK    2  A    between atoms: C_7  and  C_8
REMARK    3  A    between atoms: N_9  and  N_10
REMARK    4  A    between atoms: N_10  and  C_11
REMARK    5  A    between atoms: C_11  and  N_13
REMARK                            x       y       z     vdW  Elec       q    Type
REMARK                         _______ _______ _______ _____ _____    ______ ____
ROOT
ATOM      1  N   UNL     1       7.250   5.502  16.551  0.00  0.00    +0.000 N 
ATOM      2  H   UNL     1       7.768   6.341  16.313  0.00  0.00    +0.000 HD
ENDROOT
BRANCH   1   4
ATOM      3  C   UNL     1       6.988   4.939  14.339  0.00  0.00    +0.000 C 
ATOM      4  N   UNL     1       6.764   4.687  15.585  0.00  0.00    +0.000 NA
BRANCH   3   8
ATOM      5  C   UNL     1       6.222   2.502  11.875  0.00  0.00    +0.000 A 
ATOM      6  C   UNL     1       4.939   2.973  12.025  0.00  0.00    +0.000 A 
ATOM      7  C   UNL     1       5.026   3.973  13.016  0.00  0.00    +0.000 A 
ATOM      8  C   UNL     1       6.357   4.057  13.396  0.00  0.00    +0.000 A 
ATOM      9  O   UNL     1       7.100   3.144  12.698  0.00  0.00    +0.000 OA
BRANCH   5  11
ATOM     10  O   UNL     1       7.804   1.785  10.418  0.00  0.00    +0.000 OA
ATOM     11  N   UNL     1       6.757   1.495  11.015  0.00  0.00    +0.000 N 
ATOM     12  O   UNL     1       6.145   0.424  10.929  0.00  0.00    +0.000 OA
ENDBRANCH   5  11
ENDBRANCH   3   8
ENDBRANCH   1   4
BRANCH   1  13
ATOM     13  C   UNL     1       7.091   5.126  17.888  0.00  0.00    +0.000 C 
ATOM     14  S   UNL     1       7.897   5.884  19.163  0.00  0.00    +0.000 S 
BRANCH  13  15
ATOM     15  N   UNL     1       6.277   4.005  18.001  0.00  0.00    +0.000 N 
ATOM     16  C   UNL     1       4.998   3.981  18.575  0.00  0.00    +0.000 A 
ATOM     17  C   UNL     1       4.064   4.977  18.301  0.00  0.00    +0.000 A 
ATOM     18  C   UNL     1       2.827   4.942  18.941  0.00  0.00    +0.000 A 
ATOM     19  C   UNL     1       2.556   3.902  19.815  0.00  0.00    +0.000 A 
ATOM     20 CL   UNL     1       1.067   3.843  20.663  0.00  0.00    +0.000 Cl
ATOM     21  C   UNL     1       3.521   2.919  19.986  0.00  0.00    +0.000 A 
ATOM     22  N   UNL     1       4.729   2.920  19.362  0.00  0.00    +0.000 NA
ATOM     23  H   UNL     1       6.786   3.154  18.212  0.00  0.00    +0.000 HD
ENDBRANCH  13  15
ENDBRANCH   1  13
TORSDOF 5
ENDMDL
MODEL 8
REMARK VINA RESULT:      -6.9      3.971      6.791
REMARK  Name = 
REMARK  5 active torsions:
REMARK  status: ('A' for Active; 'I' for Inactive)
REMARK    1  A    between atoms: N_2  and  C_4
REMARK    2  A    between atoms: C_7  and  C_8
REMARK    3  A    between atoms: N_9  and  N_10
REMARK    4  A    between atoms: N_10  and  C_11
REMARK    5  A    between atoms: C_11  and  N_13
REMARK                            x       y       z     vdW  Elec       q    Type
REMARK                         _______ _______ _______ _____ _____    ______ ____
ROOT
ATOM      1  N   UNL     1       5.700   6.542  17.653  0.00  0.00    +0.000 N 
ATOM      2  H   UNL     1       5.688   7.556  17.635  0.00  0.00    +0.000 HD
ENDROOT
BRANCH   1   4
ATOM      3  C   UNL     1       4.100   6.024  19.220  0.00  0.00    +0.000 C 
ATOM      4  N   UNL     1       4.611   5.840  18.049  0.00  0.00    +0.000 NA
BRANCH   3   8
ATOM      5  C   UNL     1       1.666   3.450  19.430  0.00  0.00    +0.000 A 
ATOM      6  C   UNL     1       1.140   4.237  20.427  0.00  0.00    +0.000 A 
ATOM      7  C   UNL     1       2.008   5.345  20.520  0.00  0.00    +0.000 A 
ATOM      8  C   UNL     1       2.999   5.170  19.566  0.00  0.00    +0.000 A 
ATOM      9  O   UNL     1       2.795   3.995  18.893  0.00  0.00    +0.000 OA
BRANCH   5  11
ATOM     10  O   UNL     1       0.052   2.177  18.473  0.00  0.00    +0.000 OA
ATOM     11  N   UNL     1       1.222   2.208  18.882  0.00  0.00    +0.000 N 
ATOM     12  O   UNL     1       2.025   1.268  18.858  0.00  0.00    +0.000 OA
ENDBRANCH   5  11
ENDBRANCH   3   8
ENDBRANCH   1   4
BRANCH   1  13
ATOM     13  C   UNL     1       6.821   5.842  17.197  0.00  0.00    +0.000 C 
ATOM     14  S   UNL     1       7.804   4.912  18.205  0.00  0.00    +0.000 S 
BRANCH  13  15
ATOM     15  N   UNL     1       7.058   6.099  15.851  0.00  0.00    +0.000 N 
ATOM     16  C   UNL     1       6.725   5.248  14.787  0.00  0.00    +0.000 A 
ATOM     17  C   UNL     1       5.491   4.606  14.734  0.00  0.00    +0.000 A 
ATOM     18  C   UNL     1       5.229   3.725  13.688  0.00  0.00    +0.000 A 
ATOM     19  C   UNL     1       6.199   3.531  12.718  0.00  0.00    +0.000 A 
ATOM     20 CL   UNL     1       5.941   2.419  11.438  0.00  0.00    +0.000 Cl
ATOM     21  C   UNL     1       7.379   4.255  12.816  0.00  0.00    +0.000 A 
ATOM     22  N   UNL     1       7.654   5.134  13.817  0.00  0.00    +0.000 NA
ATOM     23  H   UNL     1       7.939   6.570  15.678  0.00  0.00    +0.000 HD
ENDBRANCH  13  15
ENDBRANCH   1  13
TORSDOF 5
ENDMDL
MODEL 9
REMARK VINA RESULT:      -6.8      4.605      6.263
REMARK  Name = 
REMARK  5 active torsions:
REMARK  status: ('A' for Active; 'I' for Inactive)
REMARK    1  A    between atoms: N_2  and  C_4
REMARK    2  A    between atoms: C_7  and  C_8
REMARK    3  A    between atoms: N_9  and  N_10
REMARK    4  A    between atoms: N_10  and  C_11
REMARK    5  A    between atoms: C_11  and  N_13
REMARK                            x       y       z     vdW  Elec       q    Type
REMARK                         _______ _______ _______ _____ _____    ______ ____
ROOT
ATOM      1  N   UNL     1       6.202   5.819  16.880  0.00  0.00    +0.000 N 
ATOM      2  H   UNL     1       7.070   6.320  16.721  0.00  0.00    +0.000 HD
ENDROOT
BRANCH   1   4
ATOM      3  C   UNL     1       4.212   6.963  16.989  0.00  0.00    +0.000 C 
ATOM      4  N   UNL     1       5.195   6.382  17.590  0.00  0.00    +0.000 NA
BRANCH   3   8
ATOM      5  C   UNL     1       1.974   7.870  19.590  0.00  0.00    +0.000 A 
ATOM      6  C   UNL     1       1.647   8.902  18.742  0.00  0.00    +0.000 A 
ATOM      7  C   UNL     1       2.475   8.730  17.613  0.00  0.00    +0.000 A 
ATOM      8  C   UNL     1       3.242   7.597  17.838  0.00  0.00    +0.000 A 
ATOM      9  O   UNL     1       2.941   7.065  19.062  0.00  0.00    +0.000 OA
BRANCH   5  11
ATOM     10  O   UNL     1       1.300   6.304  21.086  0.00  0.00    +0.000 OA
ATOM     11  N   UNL     1       1.467   7.515  20.877  0.00  0.00    +0.000 N 
ATOM     12  O   UNL     1       1.233   8.429  21.676  0.00  0.00    +0.000 OA
ENDBRANCH   5  11
ENDBRANCH   3   8
ENDBRANCH   1   4
BRANCH   1  13
ATOM     13  C   UNL     1       5.997   4.563  16.303  0.00  0.00    +0.000 C 
ATOM     14  S   UNL     1       5.994   4.301  14.637  0.00  0.00    +0.000 S 
BRANCH  13  15
ATOM     15  N   UNL     1       5.703   3.609  17.271  0.00  0.00    +0.000 N 
ATOM     16  C   UNL     1       4.462   3.446  17.904  0.00  0.00    +0.000 A 
ATOM     17  C   UNL     1       3.272   3.487  17.182  0.00  0.00    +0.000 A 
ATOM     18  C   UNL     1       2.061   3.378  17.862  0.00  0.00    +0.000 A 
ATOM     19  C   UNL     1       2.080   3.210  19.238  0.00  0.00    +0.000 A 
ATOM     20 CL   UNL     1       0.615   3.121  20.125  0.00  0.00    +0.000 Cl
ATOM     21  C   UNL     1       3.312   3.122  19.872  0.00  0.00    +0.000 A 
ATOM     22  N   UNL     1       4.508   3.208  19.230  0.00  0.00    +0.000 NA
ATOM     23  H   UNL     1       6.465   3.439  17.917  0.00  0.00    +0.000 HD
ENDBRANCH  13  15
ENDBRANCH   1  13
TORSDOF 5
ENDMDL
