MODEL 1
REMARK VINA RESULT:      -8.5      0.000      0.000
REMARK  Name = 
REMARK  4 active torsions:
REMARK  status: ('A' for Active; 'I' for Inactive)
REMARK    1  A    between atoms: C_4  and  C_5
REMARK    2  A    between atoms: C_12  and  O_13
REMARK    3  A    between atoms: C_14  and  N_15
REMARK    4  A    between atoms: N_15  and  C_16
REMARK                            x       y       z     vdW  Elec       q    Type
REMARK                         _______ _______ _______ _____ _____    ______ ____
ROOT
ATOM      1  O   UNL     1       5.428   7.451  15.960  0.00  0.00    +0.000 OA
ATOM      2  C   UNL     1       5.681   6.630  16.836  0.00  0.00    +0.000 C 
ATOM      3  N   UNL     1       4.944   6.576  17.995  0.00  0.00    +0.000 N 
ATOM      4  C   UNL     1       4.975   5.429  18.884  0.00  0.00    +0.000 C 
ATOM      5  C   UNL     1       6.437   4.985  19.087  0.00  0.00    +0.000 C 
ATOM      6  C   UNL     1       7.178   4.932  17.780  0.00  0.00    +0.000 C 
ATOM      7  C   UNL     1       6.799   5.625  16.687  0.00  0.00    +0.000 C 
ATOM      8  H   UNL     1       4.143   7.196  18.019  0.00  0.00    +0.000 HD
ENDROOT
BRANCH   4   9
ATOM      9  C   UNL     1       4.036   4.311  18.448  0.00  0.00    +0.000 A 
ATOM     10  C   UNL     1       2.800   4.569  17.811  0.00  0.00    +0.000 A 
ATOM     11  C   UNL     1       1.921   3.544  17.480  0.00  0.00    +0.000 A 
ATOM     12  C   UNL     1       2.242   2.221  17.777  0.00  0.00    +0.000 A 
ATOM     13  C   UNL     1       3.460   1.935  18.397  0.00  0.00    +0.000 A 
ATOM     14  C   UNL     1       4.341   2.966  18.727  0.00  0.00    +0.000 A 
ENDBRANCH   4   9
BRANCH   6  15
ATOM     15  O   UNL     1       8.299   4.110  17.737  0.00  0.00    +0.000 OA
ATOM     16  H   UNL     1       9.079   4.627  17.491  0.00  0.00    +0.000 HD
ENDBRANCH   6  15
BRANCH   7  17
ATOM     17  N   UNL     1       7.449   5.522  15.462  0.00  0.00    +0.000 N 
ATOM     18  H   UNL     1       7.905   6.389  15.178  0.00  0.00    +0.000 HD
BRANCH  17  19
ATOM     19  C   UNL     1       6.924   4.819  14.341  0.00  0.00    +0.000 A 
ATOM     20  C   UNL     1       5.819   3.955  14.450  0.00  0.00    +0.000 A 
ATOM     21  C   UNL     1       5.323   3.260  13.339  0.00  0.00    +0.000 A 
ATOM     22  C   UNL     1       5.931   3.405  12.097  0.00  0.00    +0.000 A 
ATOM     23  C   UNL     1       7.039   4.236  11.964  0.00  0.00    +0.000 A 
ATOM     24  C   UNL     1       7.532   4.935  13.075  0.00  0.00    +0.000 A 
ATOM     25 CL   UNL     1       8.946   5.912  12.850  0.00  0.00    +0.000 Cl
ENDBRANCH  17  19
ENDBRANCH   7  17
TORSDOF 4
ENDMDL
MODEL 2
REMARK VINA RESULT:      -8.5      0.109      1.030
REMARK  Name = 
REMARK  4 active torsions:
REMARK  status: ('A' for Active; 'I' for Inactive)
REMARK    1  A    between atoms: C_4  and  C_5
REMARK    2  A    between atoms: C_12  and  O_13
REMARK    3  A    between atoms: C_14  and  N_15
REMARK    4  A    between atoms: N_15  and  C_16
REMARK                            x       y       z     vdW  Elec       q    Type
REMARK                         _______ _______ _______ _____ _____    ______ ____
ROOT
ATOM      1  O   UNL     1       5.476   7.365  15.884  0.00  0.00    +0.000 OA
ATOM      2  C   UNL     1       5.731   6.585  16.796  0.00  0.00    +0.000 C 
ATOM      3  N   UNL     1       4.994   6.579  17.956  0.00  0.00    +0.000 N 
ATOM      4  C   UNL     1       5.029   5.473  18.895  0.00  0.00    +0.000 C 
ATOM      5  C   UNL     1       6.493   5.044  19.117  0.00  0.00    +0.000 C 
ATOM      6  C   UNL     1       7.234   4.936  17.814  0.00  0.00    +0.000 C 
ATOM      7  C   UNL     1       6.853   5.578  16.692  0.00  0.00    +0.000 C 
ATOM      8  H   UNL     1       4.190   7.196  17.953  0.00  0.00    +0.000 HD
ENDROOT
BRANCH   4   9
ATOM      9  C   UNL     1       4.095   4.333  18.509  0.00  0.00    +0.000 A 
ATOM     10  C   UNL     1       4.369   2.986  18.843  0.00  0.00    +0.000 A 
ATOM     11  C   UNL     1       3.544   1.947  18.426  0.00  0.00    +0.000 A 
ATOM     12  C   UNL     1       2.415   2.216  17.655  0.00  0.00    +0.000 A 
ATOM     13  C   UNL     1       2.113   3.537  17.319  0.00  0.00    +0.000 A 
ATOM     14  C   UNL     1       2.942   4.578  17.741  0.00  0.00    +0.000 A 
ENDBRANCH   4   9
BRANCH   6  15
ATOM     15  O   UNL     1       8.359   4.118  17.808  0.00  0.00    +0.000 OA
ATOM     16  H   UNL     1       8.878   4.262  18.611  0.00  0.00    +0.000 HD
ENDBRANCH   6  15
BRANCH   7  17
ATOM     17  N   UNL     1       7.504   5.424  15.473  0.00  0.00    +0.000 N 
ATOM     18  H   UNL     1       8.021   6.255  15.188  0.00  0.00    +0.000 HD
BRANCH  17  19
ATOM     19  C   UNL     1       6.939   4.754  14.350  0.00  0.00    +0.000 A 
ATOM     20  C   UNL     1       5.843   3.880  14.474  0.00  0.00    +0.000 A 
ATOM     21  C   UNL     1       5.307   3.218  13.361  0.00  0.00    +0.000 A 
ATOM     22  C   UNL     1       5.867   3.406  12.102  0.00  0.00    +0.000 A 
ATOM     23  C   UNL     1       6.967   4.246  11.954  0.00  0.00    +0.000 A 
ATOM     24  C   UNL     1       7.498   4.912  13.067  0.00  0.00    +0.000 A 
ATOM     25 CL   UNL     1       8.899   5.902  12.820  0.00  0.00    +0.000 Cl
ENDBRANCH  17  19
ENDBRANCH   7  17
TORSDOF 4
ENDMDL
MODEL 3
REMARK VINA RESULT:      -7.3      1.263      1.614
REMARK  Name = 
REMARK  4 active torsions:
REMARK  status: ('A' for Active; 'I' for Inactive)
REMARK    1  A    between atoms: C_4  and  C_5
REMARK    2  A    between atoms: C_12  and  O_13
REMARK    3  A    between atoms: C_14  and  N_15
REMARK    4  A    between atoms: N_15  and  C_16
REMARK                            x       y       z     vdW  Elec       q    Type
REMARK                         _______ _______ _______ _____ _____    ______ ____
ROOT
ATOM      1  O   UNL     1       5.337   6.984  15.333  0.00  0.00    +0.000 OA
ATOM      2  C   UNL     1       5.483   6.482  16.443  0.00  0.00    +0.000 C 
ATOM      3  N   UNL     1       4.535   6.639  17.426  0.00  0.00    +0.000 N 
ATOM      4  C   UNL     1       4.492   5.799  18.608  0.00  0.00    +0.000 C 
ATOM      5  C   UNL     1       5.918   5.649  19.174  0.00  0.00    +0.000 C 
ATOM      6  C   UNL     1       6.909   5.348  18.085  0.00  0.00    +0.000 C 
ATOM      7  C   UNL     1       6.696   5.651  16.788  0.00  0.00    +0.000 C 
ATOM      8  H   UNL     1       3.691   7.117  17.131  0.00  0.00    +0.000 HD
ENDROOT
BRANCH   4   9
ATOM      9  C   UNL     1       3.769   4.478  18.375  0.00  0.00    +0.000 A 
ATOM     10  C   UNL     1       2.602   4.387  17.582  0.00  0.00    +0.000 A 
ATOM     11  C   UNL     1       1.912   3.188  17.432  0.00  0.00    +0.000 A 
ATOM     12  C   UNL     1       2.361   2.036  18.074  0.00  0.00    +0.000 A 
ATOM     13  C   UNL     1       3.517   2.094  18.855  0.00  0.00    +0.000 A 
ATOM     14  C   UNL     1       4.208   3.298  19.002  0.00  0.00    +0.000 A 
ENDBRANCH   4   9
BRANCH   6  15
ATOM     15  O   UNL     1       8.088   4.722  18.475  0.00  0.00    +0.000 OA
ATOM     16  H   UNL     1       7.965   3.762  18.485  0.00  0.00    +0.000 HD
ENDBRANCH   6  15
BRANCH   7  17
ATOM     17  N   UNL     1       7.587   5.313  15.775  0.00  0.00    +0.000 N 
ATOM     18  H   UNL     1       8.362   5.970  15.689  0.00  0.00    +0.000 HD
BRANCH  17  19
ATOM     19  C   UNL     1       7.190   4.809  14.504  0.00  0.00    +0.000 A 
ATOM     20  C   UNL     1       7.690   5.338  13.299  0.00  0.00    +0.000 A 
ATOM     21  C   UNL     1       7.279   4.840  12.056  0.00  0.00    +0.000 A 
ATOM     22  C   UNL     1       6.348   3.809  11.992  0.00  0.00    +0.000 A 
ATOM     23  C   UNL     1       5.819   3.282  13.167  0.00  0.00    +0.000 A 
ATOM     24  C   UNL     1       6.235   3.778  14.410  0.00  0.00    +0.000 A 
ATOM     25 CL   UNL     1       5.499   3.111  15.830  0.00  0.00    +0.000 Cl
ENDBRANCH  17  19
ENDBRANCH   7  17
TORSDOF 4
ENDMDL
MODEL 4
REMARK VINA RESULT:      -7.3      1.253      1.895
REMARK  Name = 
REMARK  4 active torsions:
REMARK  status: ('A' for Active; 'I' for Inactive)
REMARK    1  A    between atoms: C_4  and  C_5
REMARK    2  A    between atoms: C_12  and  O_13
REMARK    3  A    between atoms: C_14  and  N_15
REMARK    4  A    between atoms: N_15  and  C_16
REMARK                            x       y       z     vdW  Elec       q    Type
REMARK                         _______ _______ _______ _____ _____    ______ ____
ROOT
ATOM      1  O   UNL     1       5.459   6.984  15.478  0.00  0.00    +0.000 OA
ATOM      2  C   UNL     1       5.594   6.449  16.574  0.00  0.00    +0.000 C 
ATOM      3  N   UNL     1       4.661   6.616  17.569  0.00  0.00    +0.000 N 
ATOM      4  C   UNL     1       4.595   5.748  18.730  0.00  0.00    +0.000 C 
ATOM      5  C   UNL     1       6.019   5.531  19.279  0.00  0.00    +0.000 C 
ATOM      6  C   UNL     1       6.990   5.221  18.174  0.00  0.00    +0.000 C 
ATOM      7  C   UNL     1       6.779   5.564  16.888  0.00  0.00    +0.000 C 
ATOM      8  H   UNL     1       3.833   7.132  17.293  0.00  0.00    +0.000 HD
ENDROOT
BRANCH   4   9
ATOM      9  C   UNL     1       3.822   4.461  18.470  0.00  0.00    +0.000 A 
ATOM     10  C   UNL     1       4.199   3.225  19.043  0.00  0.00    +0.000 A 
ATOM     11  C   UNL     1       3.525   2.045  18.744  0.00  0.00    +0.000 A 
ATOM     12  C   UNL     1       2.452   2.057  17.856  0.00  0.00    +0.000 A 
ATOM     13  C   UNL     1       2.050   3.265  17.282  0.00  0.00    +0.000 A 
ATOM     14  C   UNL     1       2.727   4.448  17.586  0.00  0.00    +0.000 A 
ENDBRANCH   4   9
BRANCH   6  15
ATOM     15  O   UNL     1       8.147   4.542  18.539  0.00  0.00    +0.000 OA
ATOM     16  H   UNL     1       8.588   5.004  19.265  0.00  0.00    +0.000 HD
ENDBRANCH   6  15
BRANCH   7  17
ATOM     17  N   UNL     1       7.648   5.220  15.859  0.00  0.00    +0.000 N 
ATOM     18  H   UNL     1       8.452   5.844  15.788  0.00  0.00    +0.000 HD
BRANCH  17  19
ATOM     19  C   UNL     1       7.223   4.774  14.575  0.00  0.00    +0.000 A 
ATOM     20  C   UNL     1       7.723   5.334  13.385  0.00  0.00    +0.000 A 
ATOM     21  C   UNL     1       7.284   4.893  12.130  0.00  0.00    +0.000 A 
ATOM     22  C   UNL     1       6.324   3.891  12.039  0.00  0.00    +0.000 A 
ATOM     23  C   UNL     1       5.795   3.335  13.200  0.00  0.00    +0.000 A 
ATOM     24  C   UNL     1       6.239   3.773  14.455  0.00  0.00    +0.000 A 
ATOM     25 CL   UNL     1       5.502   3.074  15.859  0.00  0.00    +0.000 Cl
ENDBRANCH  17  19
ENDBRANCH   7  17
TORSDOF 4
ENDMDL
MODEL 5
REMARK VINA RESULT:      -7.1      2.692      6.272
REMARK  Name = 
REMARK  4 active torsions:
REMARK  status: ('A' for Active; 'I' for Inactive)
REMARK    1  A    between atoms: C_4  and  C_5
REMARK    2  A    between atoms: C_12  and  O_13
REMARK    3  A    between atoms: C_14  and  N_15
REMARK    4  A    between atoms: N_15  and  C_16
REMARK                            x       y       z     vdW  Elec       q    Type
REMARK                         _______ _______ _______ _____ _____    ______ ____
ROOT
ATOM      1  O   UNL     1       4.667   2.903  17.977  0.00  0.00    +0.000 OA
ATOM      2  C   UNL     1       5.114   3.949  17.517  0.00  0.00    +0.000 C 
ATOM      3  N   UNL     1       6.453   4.092  17.240  0.00  0.00    +0.000 N 
ATOM      4  C   UNL     1       6.964   5.152  16.390  0.00  0.00    +0.000 C 
ATOM      5  C   UNL     1       6.292   6.482  16.782  0.00  0.00    +0.000 C 
ATOM      6  C   UNL     1       4.807   6.316  16.950  0.00  0.00    +0.000 C 
ATOM      7  C   UNL     1       4.222   5.130  17.211  0.00  0.00    +0.000 C 
ATOM      8  H   UNL     1       7.005   3.250  17.363  0.00  0.00    +0.000 HD
ENDROOT
BRANCH   4   9
ATOM      9  C   UNL     1       6.878   4.820  14.905  0.00  0.00    +0.000 A 
ATOM     10  C   UNL     1       6.014   3.819  14.405  0.00  0.00    +0.000 A 
ATOM     11  C   UNL     1       5.993   3.478  13.057  0.00  0.00    +0.000 A 
ATOM     12  C   UNL     1       6.841   4.122  12.159  0.00  0.00    +0.000 A 
ATOM     13  C   UNL     1       7.698   5.122  12.622  0.00  0.00    +0.000 A 
ATOM     14  C   UNL     1       7.715   5.464  13.976  0.00  0.00    +0.000 A 
ENDBRANCH   4   9
BRANCH   6  15
ATOM     15  O   UNL     1       4.036   7.465  16.816  0.00  0.00    +0.000 OA
ATOM     16  H   UNL     1       3.335   7.473  17.483  0.00  0.00    +0.000 HD
ENDBRANCH   6  15
BRANCH   7  17
ATOM     17  N   UNL     1       2.843   4.969  17.301  0.00  0.00    +0.000 N 
ATOM     18  H   UNL     1       2.323   5.779  16.966  0.00  0.00    +0.000 HD
BRANCH  17  19
ATOM     19  C   UNL     1       2.187   4.349  18.402  0.00  0.00    +0.000 A 
ATOM     20  C   UNL     1       1.598   3.074  18.302  0.00  0.00    +0.000 A 
ATOM     21  C   UNL     1       0.944   2.484  19.391  0.00  0.00    +0.000 A 
ATOM     22  C   UNL     1       0.853   3.164  20.602  0.00  0.00    +0.000 A 
ATOM     23  C   UNL     1       1.405   4.436  20.722  0.00  0.00    +0.000 A 
ATOM     24  C   UNL     1       2.064   5.023  19.633  0.00  0.00    +0.000 A 
ATOM     25 CL   UNL     1       2.684   6.628  19.837  0.00  0.00    +0.000 Cl
ENDBRANCH  17  19
ENDBRANCH   7  17
TORSDOF 4
ENDMDL
MODEL 6
REMARK VINA RESULT:      -6.9      2.680      6.241
REMARK  Name = 
REMARK  4 active torsions:
REMARK  status: ('A' for Active; 'I' for Inactive)
REMARK    1  A    between atoms: C_4  and  C_5
REMARK    2  A    between atoms: C_12  and  O_13
REMARK    3  A    between atoms: C_14  and  N_15
REMARK    4  A    between atoms: N_15  and  C_16
REMARK                            x       y       z     vdW  Elec       q    Type
REMARK                         _______ _______ _______ _____ _____    ______ ____
ROOT
ATOM      1  O   UNL     1       4.728   2.951  18.079  0.00  0.00    +0.000 OA
ATOM      2  C   UNL     1       5.167   3.985  17.585  0.00  0.00    +0.000 C 
ATOM      3  N   UNL     1       6.508   4.135  17.320  0.00  0.00    +0.000 N 
ATOM      4  C   UNL     1       7.016   5.169  16.438  0.00  0.00    +0.000 C 
ATOM      5  C   UNL     1       6.321   6.504  16.771  0.00  0.00    +0.000 C 
ATOM      6  C   UNL     1       4.837   6.324  16.926  0.00  0.00    +0.000 C 
ATOM      7  C   UNL     1       4.264   5.141  17.224  0.00  0.00    +0.000 C 
ATOM      8  H   UNL     1       7.068   3.306  17.482  0.00  0.00    +0.000 HD
ENDROOT
BRANCH   4   9
ATOM      9  C   UNL     1       6.953   4.781  14.966  0.00  0.00    +0.000 A 
ATOM     10  C   UNL     1       7.761   5.403  13.986  0.00  0.00    +0.000 A 
ATOM     11  C   UNL     1       7.646   5.087  12.637  0.00  0.00    +0.000 A 
ATOM     12  C   UNL     1       6.714   4.142  12.215  0.00  0.00    +0.000 A 
ATOM     13  C   UNL     1       5.910   3.504  13.160  0.00  0.00    +0.000 A 
ATOM     14  C   UNL     1       6.029   3.821  14.515  0.00  0.00    +0.000 A 
ENDBRANCH   4   9
BRANCH   6  15
ATOM     15  O   UNL     1       4.053   7.458  16.740  0.00  0.00    +0.000 OA
ATOM     16  H   UNL     1       4.601   8.192  16.428  0.00  0.00    +0.000 HD
ENDBRANCH   6  15
BRANCH   7  17
ATOM     17  N   UNL     1       2.886   4.965  17.303  0.00  0.00    +0.000 N 
ATOM     18  H   UNL     1       2.360   5.757  16.935  0.00  0.00    +0.000 HD
BRANCH  17  19
ATOM     19  C   UNL     1       2.224   4.376  18.417  0.00  0.00    +0.000 A 
ATOM     20  C   UNL     1       1.628   3.103  18.345  0.00  0.00    +0.000 A 
ATOM     21  C   UNL     1       0.968   2.542  19.447  0.00  0.00    +0.000 A 
ATOM     22  C   UNL     1       0.878   3.250  20.641  0.00  0.00    +0.000 A 
ATOM     23  C   UNL     1       1.439   4.521  20.733  0.00  0.00    +0.000 A 
ATOM     24  C   UNL     1       2.104   5.078  19.632  0.00  0.00    +0.000 A 
ATOM     25 CL   UNL     1       2.733   6.684  19.800  0.00  0.00    +0.000 Cl
ENDBRANCH  17  19
ENDBRANCH   7  17
TORSDOF 4
ENDMDL
MODEL 7
REMARK VINA RESULT:      -6.9      2.713      6.319
REMARK  Name = 
REMARK  4 active torsions:
REMARK  status: ('A' for Active; 'I' for Inactive)
REMARK    1  A    between atoms: C_4  and  C_5
REMARK    2  A    between atoms: C_12  and  O_13
REMARK    3  A    between atoms: C_14  and  N_15
REMARK    4  A    between atoms: N_15  and  C_16
REMARK                            x       y       z     vdW  Elec       q    Type
REMARK                         _______ _______ _______ _____ _____    ______ ____
ROOT
ATOM      1  O   UNL     1       5.128   3.036  18.275  0.00  0.00    +0.000 OA
ATOM      2  C   UNL     1       5.435   4.083  17.715  0.00  0.00    +0.000 C 
ATOM      3  N   UNL     1       6.728   4.326  17.316  0.00  0.00    +0.000 N 
ATOM      4  C   UNL     1       7.067   5.366  16.363  0.00  0.00    +0.000 C 
ATOM      5  C   UNL     1       6.305   6.655  16.728  0.00  0.00    +0.000 C 
ATOM      6  C   UNL     1       4.861   6.368  17.032  0.00  0.00    +0.000 C 
ATOM      7  C   UNL     1       4.413   5.155  17.414  0.00  0.00    +0.000 C 
ATOM      8  H   UNL     1       7.365   3.548  17.444  0.00  0.00    +0.000 HD
ENDROOT
BRANCH   4   9
ATOM      9  C   UNL     1       6.895   4.926  14.914  0.00  0.00    +0.000 A 
ATOM     10  C   UNL     1       5.957   3.939  14.531  0.00  0.00    +0.000 A 
ATOM     11  C   UNL     1       5.857   3.497  13.217  0.00  0.00    +0.000 A 
ATOM     12  C   UNL     1       6.695   4.021  12.235  0.00  0.00    +0.000 A 
ATOM     13  C   UNL     1       7.624   5.004  12.581  0.00  0.00    +0.000 A 
ATOM     14  C   UNL     1       7.722   5.447  13.902  0.00  0.00    +0.000 A 
ENDBRANCH   4   9
BRANCH   6  15
ATOM     15  O   UNL     1       3.976   7.432  16.894  0.00  0.00    +0.000 OA
ATOM     16  H   UNL     1       3.825   7.618  15.956  0.00  0.00    +0.000 HD
ENDBRANCH   6  15
BRANCH   7  17
ATOM     17  N   UNL     1       3.068   4.878  17.631  0.00  0.00    +0.000 N 
ATOM     18  H   UNL     1       2.444   5.557  17.196  0.00  0.00    +0.000 HD
BRANCH  17  19
ATOM     19  C   UNL     1       2.543   4.412  18.870  0.00  0.00    +0.000 A 
ATOM     20  C   UNL     1       2.543   5.209  20.031  0.00  0.00    +0.000 A 
ATOM     21  C   UNL     1       2.035   4.730  21.245  0.00  0.00    +0.000 A 
ATOM     22  C   UNL     1       1.529   3.437  21.329  0.00  0.00    +0.000 A 
ATOM     23  C   UNL     1       1.537   2.619  20.203  0.00  0.00    +0.000 A 
ATOM     24  C   UNL     1       2.040   3.101  18.986  0.00  0.00    +0.000 A 
ATOM     25 CL   UNL     1       2.068   2.012  17.638  0.00  0.00    +0.000 Cl
ENDBRANCH  17  19
ENDBRANCH   7  17
TORSDOF 4
ENDMDL
MODEL 8
REMARK VINA RESULT:      -6.8      2.559      6.086
REMARK  Name = 
REMARK  4 active torsions:
REMARK  status: ('A' for Active; 'I' for Inactive)
REMARK    1  A    between atoms: C_4  and  C_5
REMARK    2  A    between atoms: C_12  and  O_13
REMARK    3  A    between atoms: C_14  and  N_15
REMARK    4  A    between atoms: N_15  and  C_16
REMARK                            x       y       z     vdW  Elec       q    Type
REMARK                         _______ _______ _______ _____ _____    ______ ____
ROOT
ATOM      1  O   UNL     1       7.856   4.396  18.472  0.00  0.00    +0.000 OA
ATOM      2  C   UNL     1       7.003   4.924  17.767  0.00  0.00    +0.000 C 
ATOM      3  N   UNL     1       7.347   5.814  16.778  0.00  0.00    +0.000 N 
ATOM      4  C   UNL     1       6.433   6.189  15.714  0.00  0.00    +0.000 C 
ATOM      5  C   UNL     1       5.045   6.478  16.320  0.00  0.00    +0.000 C 
ATOM      6  C   UNL     1       4.645   5.414  17.303  0.00  0.00    +0.000 C 
ATOM      7  C   UNL     1       5.532   4.617  17.931  0.00  0.00    +0.000 C 
ATOM      8  H   UNL     1       8.344   5.921  16.630  0.00  0.00    +0.000 HD
ENDROOT
BRANCH   4   9
ATOM      9  C   UNL     1       6.418   5.191  14.562  0.00  0.00    +0.000 A 
ATOM     10  C   UNL     1       7.495   5.072  13.654  0.00  0.00    +0.000 A 
ATOM     11  C   UNL     1       7.441   4.207  12.566  0.00  0.00    +0.000 A 
ATOM     12  C   UNL     1       6.305   3.432  12.343  0.00  0.00    +0.000 A 
ATOM     13  C   UNL     1       5.230   3.521  13.229  0.00  0.00    +0.000 A 
ATOM     14  C   UNL     1       5.288   4.389  14.321  0.00  0.00    +0.000 A 
ENDBRANCH   4   9
BRANCH   6  15
ATOM     15  O   UNL     1       3.282   5.273  17.542  0.00  0.00    +0.000 OA
ATOM     16  H   UNL     1       3.022   5.813  18.302  0.00  0.00    +0.000 HD
ENDBRANCH   6  15
BRANCH   7  17
ATOM     17  N   UNL     1       5.154   3.591  18.790  0.00  0.00    +0.000 N 
ATOM     18  H   UNL     1       5.468   2.673  18.479  0.00  0.00    +0.000 HD
BRANCH  17  19
ATOM     19  C   UNL     1       3.882   3.517  19.427  0.00  0.00    +0.000 A 
ATOM     20  C   UNL     1       3.443   4.495  20.339  0.00  0.00    +0.000 A 
ATOM     21  C   UNL     1       2.195   4.400  20.967  0.00  0.00    +0.000 A 
ATOM     22  C   UNL     1       1.363   3.316  20.706  0.00  0.00    +0.000 A 
ATOM     23  C   UNL     1       1.781   2.322  19.825  0.00  0.00    +0.000 A 
ATOM     24  C   UNL     1       3.028   2.422  19.193  0.00  0.00    +0.000 A 
ATOM     25 CL   UNL     1       3.507   1.123  18.149  0.00  0.00    +0.000 Cl
ENDBRANCH  17  19
ENDBRANCH   7  17
TORSDOF 4
ENDMDL
MODEL 9
REMARK VINA RESULT:      -6.7      2.723      6.258
REMARK  Name = 
REMARK  4 active torsions:
REMARK  status: ('A' for Active; 'I' for Inactive)
REMARK    1  A    between atoms: C_4  and  C_5
REMARK    2  A    between atoms: C_12  and  O_13
REMARK    3  A    between atoms: C_14  and  N_15
REMARK    4  A    between atoms: N_15  and  C_16
REMARK                            x       y       z     vdW  Elec       q    Type
REMARK                         _______ _______ _______ _____ _____    ______ ____
ROOT
ATOM      1  O   UNL     1       5.189   3.219  18.768  0.00  0.00    +0.000 OA
ATOM      2  C   UNL     1       5.474   4.233  18.139  0.00  0.00    +0.000 C 
ATOM      3  N   UNL     1       6.765   4.481  17.734  0.00  0.00    +0.000 N 
ATOM      4  C   UNL     1       7.086   5.461  16.713  0.00  0.00    +0.000 C 
ATOM      5  C   UNL     1       6.288   6.752  16.984  0.00  0.00    +0.000 C 
ATOM      6  C   UNL     1       4.850   6.451  17.297  0.00  0.00    +0.000 C 
ATOM      7  C   UNL     1       4.429   5.256  17.759  0.00  0.00    +0.000 C 
ATOM      8  H   UNL     1       7.420   3.730  17.919  0.00  0.00    +0.000 HD
ENDROOT
BRANCH   4   9
ATOM      9  C   UNL     1       6.937   4.919  15.297  0.00  0.00    +0.000 A 
ATOM     10  C   UNL     1       7.697   5.418  14.214  0.00  0.00    +0.000 A 
ATOM     11  C   UNL     1       7.503   4.962  12.915  0.00  0.00    +0.000 A 
ATOM     12  C   UNL     1       6.539   3.993  12.648  0.00  0.00    +0.000 A 
ATOM     13  C   UNL     1       5.781   3.473  13.699  0.00  0.00    +0.000 A 
ATOM     14  C   UNL     1       5.979   3.932  15.003  0.00  0.00    +0.000 A 
ENDBRANCH   4   9
BRANCH   6  15
ATOM     15  O   UNL     1       3.940   7.479  17.080  0.00  0.00    +0.000 OA
ATOM     16  H   UNL     1       3.098   7.117  16.769  0.00  0.00    +0.000 HD
ENDBRANCH   6  15
BRANCH   7  17
ATOM     17  N   UNL     1       3.089   4.960  17.986  0.00  0.00    +0.000 N 
ATOM     18  H   UNL     1       2.459   5.705  17.688  0.00  0.00    +0.000 HD
BRANCH  17  19
ATOM     19  C   UNL     1       2.607   4.310  19.157  0.00  0.00    +0.000 A 
ATOM     20  C   UNL     1       2.595   4.943  20.414  0.00  0.00    +0.000 A 
ATOM     21  C   UNL     1       2.130   4.284  21.559  0.00  0.00    +0.000 A 
ATOM     22  C   UNL     1       1.678   2.971  21.474  0.00  0.00    +0.000 A 
ATOM     23  C   UNL     1       1.699   2.313  20.248  0.00  0.00    +0.000 A 
ATOM     24  C   UNL     1       2.160   2.975  19.102  0.00  0.00    +0.000 A 
ATOM     25 CL   UNL     1       2.208   2.079  17.618  0.00  0.00    +0.000 Cl
ENDBRANCH  17  19
ENDBRANCH   7  17
TORSDOF 4
ENDMDL
