MODEL 1
REMARK VINA RESULT:      -5.9      0.000      0.000
REMARK  Name = 
REMARK  1 active torsions:
REMARK  status: ('A' for Active; 'I' for Inactive)
REMARK    1  A    between atoms: O_1  and  C_2
REMARK                            x       y       z     vdW  Elec       q    Type
REMARK                         _______ _______ _______ _____ _____    ______ ____
ROOT
ATOM      1  C   UNL     1       7.069   5.233  16.396  0.00  0.00    +0.000 A 
ATOM      2  N   UNL     1       7.887   4.463  17.098  0.00  0.00    +0.000 NA
ATOM      3  N   UNL     1       7.164   4.227  18.215  0.00  0.00    +0.000 N 
ATOM      4  C   UNL     1       5.929   4.832  18.224  0.00  0.00    +0.000 A 
ATOM      5  C   UNL     1       4.899   4.841  19.172  0.00  0.00    +0.000 A 
ATOM      6  C   UNL     1       3.754   5.576  18.847  0.00  0.00    +0.000 A 
ATOM      7 BR   UNL     1       2.318   5.637  20.082  0.00  0.00    +0.000 Br
ATOM      8  C   UNL     1       3.639   6.266  17.639  0.00  0.00    +0.000 A 
ATOM      9  C   UNL     1       4.683   6.243  16.706  0.00  0.00    +0.000 A 
ATOM     10  C   UNL     1       5.843   5.511  17.012  0.00  0.00    +0.000 A 
ATOM     11  H   UNL     1       7.574   3.648  18.940  0.00  0.00    +0.000 HD
ENDROOT
BRANCH   1  12
ATOM     12  O   UNL     1       7.532   5.629  15.211  0.00  0.00    +0.000 OA
ATOM     13  H   UNL     1       6.827   5.402  14.581  0.00  0.00    +0.000 HD
ENDBRANCH   1  12
TORSDOF 1
ENDMDL
MODEL 2
REMARK VINA RESULT:      -5.9      1.565      1.629
REMARK  Name = 
REMARK  1 active torsions:
REMARK  status: ('A' for Active; 'I' for Inactive)
REMARK    1  A    between atoms: O_1  and  C_2
REMARK                            x       y       z     vdW  Elec       q    Type
REMARK                         _______ _______ _______ _____ _____    ______ ____
ROOT
ATOM      1  C   UNL     1       6.930   5.867  16.616  0.00  0.00    +0.000 A 
ATOM      2  N   UNL     1       7.516   4.760  16.185  0.00  0.00    +0.000 NA
ATOM      3  N   UNL     1       6.536   3.842  16.339  0.00  0.00    +0.000 N 
ATOM      4  C   UNL     1       5.367   4.349  16.855  0.00  0.00    +0.000 A 
ATOM      5  C   UNL     1       4.142   3.746  17.163  0.00  0.00    +0.000 A 
ATOM      6  C   UNL     1       3.146   4.580  17.685  0.00  0.00    +0.000 A 
ATOM      7 BR   UNL     1       1.462   3.834  18.129  0.00  0.00    +0.000 Br
ATOM      8  C   UNL     1       3.359   5.944  17.887  0.00  0.00    +0.000 A 
ATOM      9  C   UNL     1       4.593   6.525  17.572  0.00  0.00    +0.000 A 
ATOM     10  C   UNL     1       5.607   5.707  17.048  0.00  0.00    +0.000 A 
ATOM     11  H   UNL     1       6.731   2.882  16.077  0.00  0.00    +0.000 HD
ENDROOT
BRANCH   1  12
ATOM     12  O   UNL     1       7.682   6.966  16.577  0.00  0.00    +0.000 OA
ATOM     13  H   UNL     1       7.452   7.394  15.735  0.00  0.00    +0.000 HD
ENDBRANCH   1  12
TORSDOF 1
ENDMDL
MODEL 3
REMARK VINA RESULT:      -5.8      1.590      1.671
REMARK  Name = 
REMARK  1 active torsions:
REMARK  status: ('A' for Active; 'I' for Inactive)
REMARK    1  A    between atoms: O_1  and  C_2
REMARK                            x       y       z     vdW  Elec       q    Type
REMARK                         _______ _______ _______ _____ _____    ______ ____
ROOT
ATOM      1  C   UNL     1       7.104   4.624  17.451  0.00  0.00    +0.000 A 
ATOM      2  N   UNL     1       7.696   5.019  18.568  0.00  0.00    +0.000 NA
ATOM      3  N   UNL     1       6.671   5.018  19.448  0.00  0.00    +0.000 N 
ATOM      4  C   UNL     1       5.465   4.639  18.906  0.00  0.00    +0.000 A 
ATOM      5  C   UNL     1       4.188   4.510  19.465  0.00  0.00    +0.000 A 
ATOM      6  C   UNL     1       3.167   4.091  18.604  0.00  0.00    +0.000 A 
ATOM      7 BR   UNL     1       1.410   3.898  19.288  0.00  0.00    +0.000 Br
ATOM      8  C   UNL     1       3.405   3.812  17.258  0.00  0.00    +0.000 A 
ATOM      9  C   UNL     1       4.691   3.948  16.722  0.00  0.00    +0.000 A 
ATOM     10  C   UNL     1       5.732   4.368  17.567  0.00  0.00    +0.000 A 
ATOM     11  H   UNL     1       6.859   5.292  20.406  0.00  0.00    +0.000 HD
ENDROOT
BRANCH   1  12
ATOM     12  O   UNL     1       7.897   4.530  16.385  0.00  0.00    +0.000 OA
ATOM     13  H   UNL     1       8.313   3.655  16.461  0.00  0.00    +0.000 HD
ENDBRANCH   1  12
TORSDOF 1
ENDMDL
MODEL 4
REMARK VINA RESULT:      -5.7      1.066      1.066
REMARK  Name = 
REMARK  1 active torsions:
REMARK  status: ('A' for Active; 'I' for Inactive)
REMARK    1  A    between atoms: O_1  and  C_2
REMARK                            x       y       z     vdW  Elec       q    Type
REMARK                         _______ _______ _______ _____ _____    ______ ____
ROOT
ATOM      1  C   UNL     1       6.991   5.957  17.173  0.00  0.00    +0.000 A 
ATOM      2  N   UNL     1       7.750   4.917  17.479  0.00  0.00    +0.000 NA
ATOM      3  N   UNL     1       6.862   4.077  18.055  0.00  0.00    +0.000 N 
ATOM      4  C   UNL     1       5.580   4.570  18.116  0.00  0.00    +0.000 A 
ATOM      5  C   UNL     1       4.393   4.030  18.624  0.00  0.00    +0.000 A 
ATOM      6  C   UNL     1       3.246   4.825  18.517  0.00  0.00    +0.000 A 
ATOM      7 BR   UNL     1       1.602   4.162  19.187  0.00  0.00    +0.000 Br
ATOM      8  C   UNL     1       3.278   6.091  17.932  0.00  0.00    +0.000 A 
ATOM      9  C   UNL     1       4.477   6.611  17.430  0.00  0.00    +0.000 A 
ATOM     10  C   UNL     1       5.642   5.831  17.528  0.00  0.00    +0.000 A 
ATOM     11  H   UNL     1       7.196   3.181  18.392  0.00  0.00    +0.000 HD
ENDROOT
BRANCH   1  12
ATOM     12  O   UNL     1       7.619   6.968  16.575  0.00  0.00    +0.000 OA
ATOM     13  H   UNL     1       8.464   6.593  16.276  0.00  0.00    +0.000 HD
ENDBRANCH   1  12
TORSDOF 1
ENDMDL
MODEL 5
REMARK VINA RESULT:      -5.6      4.401      5.130
REMARK  Name = 
REMARK  1 active torsions:
REMARK  status: ('A' for Active; 'I' for Inactive)
REMARK    1  A    between atoms: O_1  and  C_2
REMARK                            x       y       z     vdW  Elec       q    Type
REMARK                         _______ _______ _______ _____ _____    ______ ____
ROOT
ATOM      1  C   UNL     1       1.263   3.098  19.335  0.00  0.00    +0.000 A 
ATOM      2  N   UNL     1       1.363   1.854  18.892  0.00  0.00    +0.000 NA
ATOM      3  N   UNL     1       2.339   1.961  17.964  0.00  0.00    +0.000 N 
ATOM      4  C   UNL     1       2.841   3.233  17.820  0.00  0.00    +0.000 A 
ATOM      5  C   UNL     1       3.835   3.757  16.985  0.00  0.00    +0.000 A 
ATOM      6  C   UNL     1       4.097   5.127  17.105  0.00  0.00    +0.000 A 
ATOM      7 BR   UNL     1       5.428   5.908  16.006  0.00  0.00    +0.000 Br
ATOM      8  C   UNL     1       3.406   5.932  18.011  0.00  0.00    +0.000 A 
ATOM      9  C   UNL     1       2.415   5.386  18.835  0.00  0.00    +0.000 A 
ATOM     10  C   UNL     1       2.135   4.013  18.731  0.00  0.00    +0.000 A 
ATOM     11  H   UNL     1       2.615   1.126  17.458  0.00  0.00    +0.000 HD
ENDROOT
BRANCH   1  12
ATOM     12  O   UNL     1       0.352   3.296  20.286  0.00  0.00    +0.000 OA
ATOM     13  H   UNL     1       0.275   2.439  20.738  0.00  0.00    +0.000 HD
ENDBRANCH   1  12
TORSDOF 1
ENDMDL
MODEL 6
REMARK VINA RESULT:      -5.5      2.263      2.684
REMARK  Name = 
REMARK  1 active torsions:
REMARK  status: ('A' for Active; 'I' for Inactive)
REMARK    1  A    between atoms: O_1  and  C_2
REMARK                            x       y       z     vdW  Elec       q    Type
REMARK                         _______ _______ _______ _____ _____    ______ ____
ROOT
ATOM      1  C   UNL     1       7.477   6.605  18.006  0.00  0.00    +0.000 A 
ATOM      2  N   UNL     1       7.657   6.989  16.752  0.00  0.00    +0.000 NA
ATOM      3  N   UNL     1       6.635   6.373  16.117  0.00  0.00    +0.000 N 
ATOM      4  C   UNL     1       5.834   5.620  16.943  0.00  0.00    +0.000 A 
ATOM      5  C   UNL     1       4.698   4.842  16.688  0.00  0.00    +0.000 A 
ATOM      6  C   UNL     1       4.120   4.197  17.788  0.00  0.00    +0.000 A 
ATOM      7 BR   UNL     1       2.582   3.123  17.520  0.00  0.00    +0.000 Br
ATOM      8  C   UNL     1       4.645   4.323  19.075  0.00  0.00    +0.000 A 
ATOM      9  C   UNL     1       5.781   5.106  19.305  0.00  0.00    +0.000 A 
ATOM     10  C   UNL     1       6.379   5.762  18.216  0.00  0.00    +0.000 A 
ATOM     11  H   UNL     1       6.542   6.504  15.116  0.00  0.00    +0.000 HD
ENDROOT
BRANCH   1  12
ATOM     12  O   UNL     1       8.364   7.075  18.882  0.00  0.00    +0.000 OA
ATOM     13  H   UNL     1       7.869   7.721  19.413  0.00  0.00    +0.000 HD
ENDBRANCH   1  12
TORSDOF 1
ENDMDL
MODEL 7
REMARK VINA RESULT:      -5.5      1.780      2.019
REMARK  Name = 
REMARK  1 active torsions:
REMARK  status: ('A' for Active; 'I' for Inactive)
REMARK    1  A    between atoms: O_1  and  C_2
REMARK                            x       y       z     vdW  Elec       q    Type
REMARK                         _______ _______ _______ _____ _____    ______ ____
ROOT
ATOM      1  C   UNL     1       6.519   4.360  14.894  0.00  0.00    +0.000 A 
ATOM      2  N   UNL     1       7.495   5.253  14.950  0.00  0.00    +0.000 NA
ATOM      3  N   UNL     1       7.144   5.991  16.026  0.00  0.00    +0.000 N 
ATOM      4  C   UNL     1       5.979   5.583  16.631  0.00  0.00    +0.000 A 
ATOM      5  C   UNL     1       5.284   6.068  17.745  0.00  0.00    +0.000 A 
ATOM      6  C   UNL     1       4.106   5.396  18.091  0.00  0.00    +0.000 A 
ATOM      7 BR   UNL     1       3.109   5.998  19.586  0.00  0.00    +0.000 Br
ATOM      8  C   UNL     1       3.645   4.296  17.367  0.00  0.00    +0.000 A 
ATOM      9  C   UNL     1       4.358   3.828  16.256  0.00  0.00    +0.000 A 
ATOM     10  C   UNL     1       5.542   4.488  15.890  0.00  0.00    +0.000 A 
ATOM     11  H   UNL     1       7.741   6.766  16.292  0.00  0.00    +0.000 HD
ENDROOT
BRANCH   1  12
ATOM     12  O   UNL     1       6.608   3.475  13.903  0.00  0.00    +0.000 OA
ATOM     13  H   UNL     1       5.944   2.797  14.115  0.00  0.00    +0.000 HD
ENDBRANCH   1  12
TORSDOF 1
ENDMDL
MODEL 8
REMARK VINA RESULT:      -5.5      1.991      2.028
REMARK  Name = 
REMARK  1 active torsions:
REMARK  status: ('A' for Active; 'I' for Inactive)
REMARK    1  A    between atoms: O_1  and  C_2
REMARK                            x       y       z     vdW  Elec       q    Type
REMARK                         _______ _______ _______ _____ _____    ______ ____
ROOT
ATOM      1  C   UNL     1       7.150   6.187  17.578  0.00  0.00    +0.000 A 
ATOM      2  N   UNL     1       7.695   6.204  18.784  0.00  0.00    +0.000 NA
ATOM      3  N   UNL     1       6.929   5.315  19.455  0.00  0.00    +0.000 N 
ATOM      4  C   UNL     1       5.927   4.755  18.699  0.00  0.00    +0.000 A 
ATOM      5  C   UNL     1       4.937   3.814  19.008  0.00  0.00    +0.000 A 
ATOM      6  C   UNL     1       4.062   3.462  17.974  0.00  0.00    +0.000 A 
ATOM      7 BR   UNL     1       2.694   2.197  18.318  0.00  0.00    +0.000 Br
ATOM      8  C   UNL     1       4.169   4.015  16.697  0.00  0.00    +0.000 A 
ATOM      9  C   UNL     1       5.167   4.954  16.411  0.00  0.00    +0.000 A 
ATOM     10  C   UNL     1       6.056   5.324  17.435  0.00  0.00    +0.000 A 
ATOM     11  H   UNL     1       7.140   5.138  20.431  0.00  0.00    +0.000 HD
ENDROOT
BRANCH   1  12
ATOM     12  O   UNL     1       7.718   6.991  16.681  0.00  0.00    +0.000 OA
ATOM     13  H   UNL     1       7.348   6.711  15.827  0.00  0.00    +0.000 HD
ENDBRANCH   1  12
TORSDOF 1
ENDMDL
MODEL 9
REMARK VINA RESULT:      -5.5      2.234      2.505
REMARK  Name = 
REMARK  1 active torsions:
REMARK  status: ('A' for Active; 'I' for Inactive)
REMARK    1  A    between atoms: O_1  and  C_2
REMARK                            x       y       z     vdW  Elec       q    Type
REMARK                         _______ _______ _______ _____ _____    ______ ____
ROOT
ATOM      1  C   UNL     1       5.124   4.231  16.651  0.00  0.00    +0.000 A 
ATOM      2  N   UNL     1       6.297   4.273  17.263  0.00  0.00    +0.000 NA
ATOM      3  N   UNL     1       5.963   3.969  18.537  0.00  0.00    +0.000 N 
ATOM      4  C   UNL     1       4.620   3.745  18.728  0.00  0.00    +0.000 A 
ATOM      5  C   UNL     1       3.880   3.414  19.869  0.00  0.00    +0.000 A 
ATOM      6  C   UNL     1       2.500   3.257  19.698  0.00  0.00    +0.000 A 
ATOM      7 BR   UNL     1       1.431   2.812  21.198  0.00  0.00    +0.000 Br
ATOM      8  C   UNL     1       1.888   3.419  18.454  0.00  0.00    +0.000 A 
ATOM      9  C   UNL     1       2.649   3.750  17.326  0.00  0.00    +0.000 A 
ATOM     10  C   UNL     1       4.037   3.914  17.475  0.00  0.00    +0.000 A 
ATOM     11  H   UNL     1       6.700   3.935  19.233  0.00  0.00    +0.000 HD
ENDROOT
BRANCH   1  12
ATOM     12  O   UNL     1       5.149   4.496  15.346  0.00  0.00    +0.000 OA
ATOM     13  H   UNL     1       6.049   4.261  15.062  0.00  0.00    +0.000 HD
ENDBRANCH   1  12
TORSDOF 1
ENDMDL
