MODEL 1
REMARK VINA RESULT:      -8.7      0.000      0.000
REMARK  Name = 
REMARK  3 active torsions:
REMARK  status: ('A' for Active; 'I' for Inactive)
REMARK    1  A    between atoms: C_1  and  O_2
REMARK    2  A    between atoms: O_2  and  C_3
REMARK    3  A    between atoms: N_12  and  C_13
REMARK                            x       y       z     vdW  Elec       q    Type
REMARK                         _______ _______ _______ _____ _____    ______ ____
ROOT
ATOM      1  C   UNL     1       5.677   3.381  12.212  0.00  0.00    +0.000 A 
ATOM      2  C   UNL     1       6.894   3.924  11.755  0.00  0.00    +0.000 A 
ATOM      3  C   UNL     1       7.695   4.695  12.599  0.00  0.00    +0.000 A 
ATOM      4  C   UNL     1       7.248   4.896  13.881  0.00  0.00    +0.000 A 
ATOM      5  C   UNL     1       6.053   4.374  14.374  0.00  0.00    +0.000 A 
ATOM      6  C   UNL     1       5.252   3.606  13.536  0.00  0.00    +0.000 A 
ATOM      7  C   UNL     1       5.869   4.815  15.822  0.00  0.00    +0.000 C 
ATOM      8  C   UNL     1       4.646   5.735  15.980  0.00  0.00    +0.000 C 
ATOM      9  C   UNL     1       4.421   6.119  17.441  0.00  0.00    +0.000 C 
ATOM     10  N   UNL     1       4.341   4.895  18.235  0.00  0.00    +0.000 N 
ATOM     11  C   UNL     1       5.547   4.074  18.250  0.00  0.00    +0.000 C 
ATOM     12  C   UNL     1       5.846   3.633  16.808  0.00  0.00    +0.000 C 
ATOM     13  C   UNL     1       7.170   5.645  16.039  0.00  0.00    +0.000 C 
ATOM     14  O   UNL     1       7.532   6.222  17.050  0.00  0.00    +0.000 OA
ATOM     15  N   UNL     1       7.887   5.637  14.855  0.00  0.00    +0.000 N 
ATOM     16  H   UNL     1       8.766   6.115  14.751  0.00  0.00    +0.000 HD
ENDROOT
BRANCH  10  17
ATOM     17  C   UNL     1       3.206   4.612  18.970  0.00  0.00    +0.000 A 
ATOM     18  C   UNL     1       2.406   3.501  18.649  0.00  0.00    +0.000 A 
ATOM     19  C   UNL     1       1.209   3.226  19.311  0.00  0.00    +0.000 A 
ATOM     20  C   UNL     1       0.786   4.056  20.340  0.00  0.00    +0.000 A 
ATOM     21  C   UNL     1       1.576   5.136  20.716  0.00  0.00    +0.000 A 
ATOM     22  C   UNL     1       2.777   5.404  20.042  0.00  0.00    +0.000 A 
ENDBRANCH  10  17
BRANCH   1  24
ATOM     23  C   UNL     1       3.710   3.296  10.881  0.00  0.00    +0.000 C 
ATOM     24  O   UNL     1       4.835   2.619  11.442  0.00  0.00    +0.000 OA
ENDBRANCH   1  24
TORSDOF 2
ENDMDL
MODEL 2
REMARK VINA RESULT:      -8.7      0.136      1.006
REMARK  Name = 
REMARK  3 active torsions:
REMARK  status: ('A' for Active; 'I' for Inactive)
REMARK    1  A    between atoms: C_1  and  O_2
REMARK    2  A    between atoms: O_2  and  C_3
REMARK    3  A    between atoms: N_12  and  C_13
REMARK                            x       y       z     vdW  Elec       q    Type
REMARK                         _______ _______ _______ _____ _____    ______ ____
ROOT
ATOM      1  C   UNL     1       5.606   3.385  12.145  0.00  0.00    +0.000 A 
ATOM      2  C   UNL     1       6.840   3.888  11.692  0.00  0.00    +0.000 A 
ATOM      3  C   UNL     1       7.659   4.640  12.536  0.00  0.00    +0.000 A 
ATOM      4  C   UNL     1       7.212   4.861  13.815  0.00  0.00    +0.000 A 
ATOM      5  C   UNL     1       5.999   4.378  14.303  0.00  0.00    +0.000 A 
ATOM      6  C   UNL     1       5.180   3.630  13.465  0.00  0.00    +0.000 A 
ATOM      7  C   UNL     1       5.821   4.834  15.748  0.00  0.00    +0.000 C 
ATOM      8  C   UNL     1       4.625   5.790  15.893  0.00  0.00    +0.000 C 
ATOM      9  C   UNL     1       4.404   6.190  17.351  0.00  0.00    +0.000 C 
ATOM     10  N   UNL     1       4.283   4.974  18.152  0.00  0.00    +0.000 N 
ATOM     11  C   UNL     1       5.463   4.117  18.178  0.00  0.00    +0.000 C 
ATOM     12  C   UNL     1       5.757   3.658  16.741  0.00  0.00    +0.000 C 
ATOM     13  C   UNL     1       7.145   5.624  15.967  0.00  0.00    +0.000 C 
ATOM     14  O   UNL     1       7.518   6.197  16.977  0.00  0.00    +0.000 OA
ATOM     15  N   UNL     1       7.868   5.588  14.787  0.00  0.00    +0.000 N 
ATOM     16  H   UNL     1       8.761   6.039  14.686  0.00  0.00    +0.000 HD
ENDROOT
BRANCH  10  17
ATOM     17  C   UNL     1       3.136   4.728  18.882  0.00  0.00    +0.000 A 
ATOM     18  C   UNL     1       2.806   5.532  19.988  0.00  0.00    +0.000 A 
ATOM     19  C   UNL     1       1.703   5.268  20.800  0.00  0.00    +0.000 A 
ATOM     20  C   UNL     1       0.878   4.191  20.512  0.00  0.00    +0.000 A 
ATOM     21  C   UNL     1       1.146   3.403  19.398  0.00  0.00    +0.000 A 
ATOM     22  C   UNL     1       2.259   3.676  18.588  0.00  0.00    +0.000 A 
ENDBRANCH  10  17
BRANCH   1  24
ATOM     23  C   UNL     1       3.678   3.362  10.755  0.00  0.00    +0.000 C 
ATOM     24  O   UNL     1       4.744   2.644  11.374  0.00  0.00    +0.000 OA
ENDBRANCH   1  24
TORSDOF 2
ENDMDL
MODEL 3
REMARK VINA RESULT:      -8.1      2.599      7.187
REMARK  Name = 
REMARK  3 active torsions:
REMARK  status: ('A' for Active; 'I' for Inactive)
REMARK    1  A    between atoms: C_1  and  O_2
REMARK    2  A    between atoms: O_2  and  C_3
REMARK    3  A    between atoms: N_12  and  C_13
REMARK                            x       y       z     vdW  Elec       q    Type
REMARK                         _______ _______ _______ _____ _____    ______ ____
ROOT
ATOM      1  C   UNL     1       1.826   8.448  18.502  0.00  0.00    +0.000 A 
ATOM      2  C   UNL     1       1.523   8.142  19.843  0.00  0.00    +0.000 A 
ATOM      3  C   UNL     1       2.124   7.056  20.482  0.00  0.00    +0.000 A 
ATOM      4  C   UNL     1       3.017   6.310  19.752  0.00  0.00    +0.000 A 
ATOM      5  C   UNL     1       3.346   6.582  18.425  0.00  0.00    +0.000 A 
ATOM      6  C   UNL     1       2.749   7.662  17.785  0.00  0.00    +0.000 A 
ATOM      7  C   UNL     1       4.346   5.541  17.931  0.00  0.00    +0.000 C 
ATOM      8  C   UNL     1       3.750   4.676  16.808  0.00  0.00    +0.000 C 
ATOM      9  C   UNL     1       4.775   3.681  16.266  0.00  0.00    +0.000 C 
ATOM     10  N   UNL     1       5.971   4.419  15.866  0.00  0.00    +0.000 N 
ATOM     11  C   UNL     1       6.667   5.120  16.940  0.00  0.00    +0.000 C 
ATOM     12  C   UNL     1       5.704   6.155  17.543  0.00  0.00    +0.000 C 
ATOM     13  C   UNL     1       4.519   4.675  19.214  0.00  0.00    +0.000 C 
ATOM     14  O   UNL     1       5.230   3.697  19.369  0.00  0.00    +0.000 OA
ATOM     15  N   UNL     1       3.699   5.198  20.200  0.00  0.00    +0.000 N 
ATOM     16  H   UNL     1       3.637   4.798  21.121  0.00  0.00    +0.000 HD
ENDROOT
BRANCH  10  17
ATOM     17  C   UNL     1       6.420   4.368  14.561  0.00  0.00    +0.000 A 
ATOM     18  C   UNL     1       7.493   5.174  14.142  0.00  0.00    +0.000 A 
ATOM     19  C   UNL     1       7.924   5.213  12.815  0.00  0.00    +0.000 A 
ATOM     20  C   UNL     1       7.297   4.422  11.864  0.00  0.00    +0.000 A 
ATOM     21  C   UNL     1       6.263   3.577  12.252  0.00  0.00    +0.000 A 
ATOM     22  C   UNL     1       5.836   3.546  13.588  0.00  0.00    +0.000 A 
ENDBRANCH  10  17
BRANCH   1  24
ATOM     23  C   UNL     1       0.449  10.384  18.556  0.00  0.00    +0.000 C 
ATOM     24  O   UNL     1       1.272   9.493  17.805  0.00  0.00    +0.000 OA
ENDBRANCH   1  24
TORSDOF 2
ENDMDL
MODEL 4
REMARK VINA RESULT:      -8.1      2.592      7.144
REMARK  Name = 
REMARK  3 active torsions:
REMARK  status: ('A' for Active; 'I' for Inactive)
REMARK    1  A    between atoms: C_1  and  O_2
REMARK    2  A    between atoms: O_2  and  C_3
REMARK    3  A    between atoms: N_12  and  C_13
REMARK                            x       y       z     vdW  Elec       q    Type
REMARK                         _______ _______ _______ _____ _____    ______ ____
ROOT
ATOM      1  C   UNL     1       1.826   8.496  18.537  0.00  0.00    +0.000 A 
ATOM      2  C   UNL     1       1.535   8.168  19.875  0.00  0.00    +0.000 A 
ATOM      3  C   UNL     1       2.147   7.076  20.492  0.00  0.00    +0.000 A 
ATOM      4  C   UNL     1       3.039   6.347  19.745  0.00  0.00    +0.000 A 
ATOM      5  C   UNL     1       3.357   6.642  18.419  0.00  0.00    +0.000 A 
ATOM      6  C   UNL     1       2.748   7.727  17.801  0.00  0.00    +0.000 A 
ATOM      7  C   UNL     1       4.359   5.615  17.902  0.00  0.00    +0.000 C 
ATOM      8  C   UNL     1       3.760   4.764  16.770  0.00  0.00    +0.000 C 
ATOM      9  C   UNL     1       4.787   3.784  16.205  0.00  0.00    +0.000 C 
ATOM     10  N   UNL     1       5.976   4.536  15.807  0.00  0.00    +0.000 N 
ATOM     11  C   UNL     1       6.676   5.223  16.887  0.00  0.00    +0.000 C 
ATOM     12  C   UNL     1       5.711   6.243  17.513  0.00  0.00    +0.000 C 
ATOM     13  C   UNL     1       4.547   4.730  19.170  0.00  0.00    +0.000 C 
ATOM     14  O   UNL     1       5.265   3.754  19.305  0.00  0.00    +0.000 OA
ATOM     15  N   UNL     1       3.731   5.232  20.170  0.00  0.00    +0.000 N 
ATOM     16  H   UNL     1       3.678   4.818  21.085  0.00  0.00    +0.000 HD
ENDROOT
BRANCH  10  17
ATOM     17  C   UNL     1       6.416   4.507  14.499  0.00  0.00    +0.000 A 
ATOM     18  C   UNL     1       5.848   3.615  13.572  0.00  0.00    +0.000 A 
ATOM     19  C   UNL     1       6.318   3.496  12.264  0.00  0.00    +0.000 A 
ATOM     20  C   UNL     1       7.371   4.292  11.836  0.00  0.00    +0.000 A 
ATOM     21  C   UNL     1       7.926   5.220  12.711  0.00  0.00    +0.000 A 
ATOM     22  C   UNL     1       7.446   5.330  14.025  0.00  0.00    +0.000 A 
ENDBRANCH  10  17
BRANCH   1  24
ATOM     23  C   UNL     1       0.074  10.099  18.431  0.00  0.00    +0.000 C 
ATOM     24  O   UNL     1       1.260   9.549  17.860  0.00  0.00    +0.000 OA
ENDBRANCH   1  24
TORSDOF 2
ENDMDL
MODEL 5
REMARK VINA RESULT:      -7.2      3.663      6.925
REMARK  Name = 
REMARK  3 active torsions:
REMARK  status: ('A' for Active; 'I' for Inactive)
REMARK    1  A    between atoms: C_1  and  O_2
REMARK    2  A    between atoms: O_2  and  C_3
REMARK    3  A    between atoms: N_12  and  C_13
REMARK                            x       y       z     vdW  Elec       q    Type
REMARK                         _______ _______ _______ _____ _____    ______ ____
ROOT
ATOM      1  C   UNL     1       2.517   4.844  19.551  0.00  0.00    +0.000 A 
ATOM      2  C   UNL     1       2.370   3.584  18.941  0.00  0.00    +0.000 A 
ATOM      3  C   UNL     1       3.362   3.076  18.100  0.00  0.00    +0.000 A 
ATOM      4  C   UNL     1       4.477   3.852  17.901  0.00  0.00    +0.000 A 
ATOM      5  C   UNL     1       4.662   5.103  18.488  0.00  0.00    +0.000 A 
ATOM      6  C   UNL     1       3.676   5.612  19.325  0.00  0.00    +0.000 A 
ATOM      7  C   UNL     1       5.995   5.683  18.028  0.00  0.00    +0.000 C 
ATOM      8  C   UNL     1       5.796   6.955  17.187  0.00  0.00    +0.000 C 
ATOM      9  C   UNL     1       7.133   7.575  16.785  0.00  0.00    +0.000 C 
ATOM     10  N   UNL     1       7.926   7.790  17.994  0.00  0.00    +0.000 N 
ATOM     11  C   UNL     1       8.284   6.584  18.735  0.00  0.00    +0.000 C 
ATOM     12  C   UNL     1       6.987   5.895  19.188  0.00  0.00    +0.000 C 
ATOM     13  C   UNL     1       6.510   4.533  17.111  0.00  0.00    +0.000 C 
ATOM     14  O   UNL     1       7.557   4.481  16.489  0.00  0.00    +0.000 OA
ATOM     15  N   UNL     1       5.553   3.533  17.099  0.00  0.00    +0.000 N 
ATOM     16  H   UNL     1       5.663   2.686  16.567  0.00  0.00    +0.000 HD
ENDROOT
BRANCH  10  17
ATOM     17  C   UNL     1       8.352   9.058  18.335  0.00  0.00    +0.000 A 
ATOM     18  C   UNL     1       8.040  10.160  17.519  0.00  0.00    +0.000 A 
ATOM     19  C   UNL     1       8.520  11.444  17.781  0.00  0.00    +0.000 A 
ATOM     20  C   UNL     1       9.318  11.666  18.894  0.00  0.00    +0.000 A 
ATOM     21  C   UNL     1       9.607  10.608  19.750  0.00  0.00    +0.000 A 
ATOM     22  C   UNL     1       9.121   9.321  19.476  0.00  0.00    +0.000 A 
ENDBRANCH  10  17
BRANCH   1  24
ATOM     23  C   UNL     1       1.708   6.817  20.602  0.00  0.00    +0.000 C 
ATOM     24  O   UNL     1       1.584   5.412  20.383  0.00  0.00    +0.000 OA
ENDBRANCH   1  24
TORSDOF 2
ENDMDL
MODEL 6
REMARK VINA RESULT:      -7.0      3.695      7.030
REMARK  Name = 
REMARK  3 active torsions:
REMARK  status: ('A' for Active; 'I' for Inactive)
REMARK    1  A    between atoms: C_1  and  O_2
REMARK    2  A    between atoms: O_2  and  C_3
REMARK    3  A    between atoms: N_12  and  C_13
REMARK                            x       y       z     vdW  Elec       q    Type
REMARK                         _______ _______ _______ _____ _____    ______ ____
ROOT
ATOM      1  C   UNL     1       2.659   4.891  19.855  0.00  0.00    +0.000 A 
ATOM      2  C   UNL     1       2.487   3.623  19.267  0.00  0.00    +0.000 A 
ATOM      3  C   UNL     1       3.436   3.110  18.382  0.00  0.00    +0.000 A 
ATOM      4  C   UNL     1       4.535   3.889  18.116  0.00  0.00    +0.000 A 
ATOM      5  C   UNL     1       4.744   5.148  18.680  0.00  0.00    +0.000 A 
ATOM      6  C   UNL     1       3.800   5.662  19.560  0.00  0.00    +0.000 A 
ATOM      7  C   UNL     1       6.049   5.728  18.144  0.00  0.00    +0.000 C 
ATOM      8  C   UNL     1       5.800   6.989  17.300  0.00  0.00    +0.000 C 
ATOM      9  C   UNL     1       7.112   7.610  16.823  0.00  0.00    +0.000 C 
ATOM     10  N   UNL     1       7.965   7.842  17.986  0.00  0.00    +0.000 N 
ATOM     11  C   UNL     1       8.367   6.648  18.721  0.00  0.00    +0.000 C 
ATOM     12  C   UNL     1       7.098   5.958  19.248  0.00  0.00    +0.000 C 
ATOM     13  C   UNL     1       6.522   4.570  17.215  0.00  0.00    +0.000 C 
ATOM     14  O   UNL     1       7.535   4.515  16.540  0.00  0.00    +0.000 OA
ATOM     15  N   UNL     1       5.571   3.565  17.264  0.00  0.00    +0.000 N 
ATOM     16  H   UNL     1       5.656   2.713  16.737  0.00  0.00    +0.000 HD
ENDROOT
BRANCH  10  17
ATOM     17  C   UNL     1       8.401   9.117  18.290  0.00  0.00    +0.000 A 
ATOM     18  C   UNL     1       9.116   9.365  19.476  0.00  0.00    +0.000 A 
ATOM     19  C   UNL     1       9.503  10.649  19.860  0.00  0.00    +0.000 A 
ATOM     20  C   UNL     1       9.198  11.732  19.048  0.00  0.00    +0.000 A 
ATOM     21  C   UNL     1       8.534  11.519  17.845  0.00  0.00    +0.000 A 
ATOM     22  C   UNL     1       8.148  10.223  17.468  0.00  0.00    +0.000 A 
ENDBRANCH  10  17
BRANCH   1  24
ATOM     23  C   UNL     1       1.577   6.873  20.599  0.00  0.00    +0.000 C 
ATOM     24  O   UNL     1       1.767   5.465  20.727  0.00  0.00    +0.000 OA
ENDBRANCH   1  24
TORSDOF 2
ENDMDL
MODEL 7
REMARK VINA RESULT:      -6.5      3.270      5.504
REMARK  Name = 
REMARK  3 active torsions:
REMARK  status: ('A' for Active; 'I' for Inactive)
REMARK    1  A    between atoms: C_1  and  O_2
REMARK    2  A    between atoms: O_2  and  C_3
REMARK    3  A    between atoms: N_12  and  C_13
REMARK                            x       y       z     vdW  Elec       q    Type
REMARK                         _______ _______ _______ _____ _____    ______ ____
ROOT
ATOM      1  C   UNL     1       6.995   6.301  16.795  0.00  0.00    +0.000 A 
ATOM      2  C   UNL     1       7.018   5.045  16.158  0.00  0.00    +0.000 A 
ATOM      3  C   UNL     1       5.896   4.216  16.172  0.00  0.00    +0.000 A 
ATOM      4  C   UNL     1       4.779   4.677  16.825  0.00  0.00    +0.000 A 
ATOM      5  C   UNL     1       4.715   5.915  17.464  0.00  0.00    +0.000 A 
ATOM      6  C   UNL     1       5.831   6.743  17.453  0.00  0.00    +0.000 A 
ATOM      7  C   UNL     1       3.337   6.083  18.097  0.00  0.00    +0.000 C 
ATOM      8  C   UNL     1       3.428   6.152  19.631  0.00  0.00    +0.000 C 
ATOM      9  C   UNL     1       2.056   6.391  20.260  0.00  0.00    +0.000 C 
ATOM     10  N   UNL     1       1.469   7.584  19.653  0.00  0.00    +0.000 N 
ATOM     11  C   UNL     1       1.208   7.498  18.220  0.00  0.00    +0.000 C 
ATOM     12  C   UNL     1       2.547   7.263  17.501  0.00  0.00    +0.000 C 
ATOM     13  C   UNL     1       2.661   4.743  17.679  0.00  0.00    +0.000 C 
ATOM     14  O   UNL     1       1.528   4.366  17.924  0.00  0.00    +0.000 OA
ATOM     15  N   UNL     1       3.583   4.003  16.960  0.00  0.00    +0.000 N 
ATOM     16  H   UNL     1       3.374   3.091  16.588  0.00  0.00    +0.000 HD
ENDROOT
BRANCH  10  17
ATOM     17  C   UNL     1       1.128   8.671  20.434  0.00  0.00    +0.000 A 
ATOM     18  C   UNL     1       0.940   8.525  21.820  0.00  0.00    +0.000 A 
ATOM     19  C   UNL     1       0.516   9.577  22.632  0.00  0.00    +0.000 A 
ATOM     20  C   UNL     1       0.284  10.826  22.074  0.00  0.00    +0.000 A 
ATOM     21  C   UNL     1       0.506  11.020  20.714  0.00  0.00    +0.000 A 
ATOM     22  C   UNL     1       0.932   9.954  19.907  0.00  0.00    +0.000 A 
ENDBRANCH  10  17
BRANCH   1  24
ATOM     23  C   UNL     1       7.927   8.293  17.697  0.00  0.00    +0.000 C 
ATOM     24  O   UNL     1       8.060   7.168  16.830  0.00  0.00    +0.000 OA
ENDBRANCH   1  24
TORSDOF 2
ENDMDL
MODEL 8
REMARK VINA RESULT:      -6.4      7.309      9.834
REMARK  Name = 
REMARK  3 active torsions:
REMARK  status: ('A' for Active; 'I' for Inactive)
REMARK    1  A    between atoms: C_1  and  O_2
REMARK    2  A    between atoms: O_2  and  C_3
REMARK    3  A    between atoms: N_12  and  C_13
REMARK                            x       y       z     vdW  Elec       q    Type
REMARK                         _______ _______ _______ _____ _____    ______ ____
ROOT
ATOM      1  C   UNL     1       1.841   7.321  19.997  0.00  0.00    +0.000 A 
ATOM      2  C   UNL     1       2.471   7.338  18.738  0.00  0.00    +0.000 A 
ATOM      3  C   UNL     1       2.443   8.482  17.940  0.00  0.00    +0.000 A 
ATOM      4  C   UNL     1       1.782   9.579  18.434  0.00  0.00    +0.000 A 
ATOM      5  C   UNL     1       1.148   9.604  19.676  0.00  0.00    +0.000 A 
ATOM      6  C   UNL     1       1.173   8.466  20.473  0.00  0.00    +0.000 A 
ATOM      7  C   UNL     1       0.503  10.970  19.884  0.00  0.00    +0.000 C 
ATOM      8  C   UNL     1      -1.030  10.864  19.958  0.00  0.00    +0.000 C 
ATOM      9  C   UNL     1      -1.671  12.222  20.237  0.00  0.00    +0.000 C 
ATOM     10  N   UNL     1      -1.064  12.782  21.443  0.00  0.00    +0.000 N 
ATOM     11  C   UNL     1       0.366  13.059  21.357  0.00  0.00    +0.000 C 
ATOM     12  C   UNL     1       1.097  11.735  21.083  0.00  0.00    +0.000 C 
ATOM     13  C   UNL     1       0.908  11.687  18.562  0.00  0.00    +0.000 C 
ATOM     14  O   UNL     1       0.650  12.827  18.217  0.00  0.00    +0.000 OA
ATOM     15  N   UNL     1       1.632  10.792  17.793  0.00  0.00    +0.000 N 
ATOM     16  H   UNL     1       1.997  11.029  16.886  0.00  0.00    +0.000 HD
ENDROOT
BRANCH  10  17
ATOM     17  C   UNL     1      -1.843  13.086  22.542  0.00  0.00    +0.000 A 
ATOM     18  C   UNL     1      -2.960  12.296  22.867  0.00  0.00    +0.000 A 
ATOM     19  C   UNL     1      -3.820  12.614  23.918  0.00  0.00    +0.000 A 
ATOM     20  C   UNL     1      -3.571  13.737  24.695  0.00  0.00    +0.000 A 
ATOM     21  C   UNL     1      -2.449  14.515  24.432  0.00  0.00    +0.000 A 
ATOM     22  C   UNL     1      -1.591  14.186  23.371  0.00  0.00    +0.000 A 
ENDBRANCH  10  17
BRANCH   1  24
ATOM     23  C   UNL     1       1.895   4.954  20.207  0.00  0.00    +0.000 C 
ATOM     24  O   UNL     1       1.820   6.233  20.834  0.00  0.00    +0.000 OA
ENDBRANCH   1  24
TORSDOF 2
ENDMDL
MODEL 9
REMARK VINA RESULT:      -6.3      7.299      9.860
REMARK  Name = 
REMARK  3 active torsions:
REMARK  status: ('A' for Active; 'I' for Inactive)
REMARK    1  A    between atoms: C_1  and  O_2
REMARK    2  A    between atoms: O_2  and  C_3
REMARK    3  A    between atoms: N_12  and  C_13
REMARK                            x       y       z     vdW  Elec       q    Type
REMARK                         _______ _______ _______ _____ _____    ______ ____
ROOT
ATOM      1  C   UNL     1       1.806   7.310  19.974  0.00  0.00    +0.000 A 
ATOM      2  C   UNL     1       2.476   7.325  18.735  0.00  0.00    +0.000 A 
ATOM      3  C   UNL     1       2.485   8.474  17.942  0.00  0.00    +0.000 A 
ATOM      4  C   UNL     1       1.821   9.576  18.421  0.00  0.00    +0.000 A 
ATOM      5  C   UNL     1       1.149   9.602  19.643  0.00  0.00    +0.000 A 
ATOM      6  C   UNL     1       1.137   8.460  20.435  0.00  0.00    +0.000 A 
ATOM      7  C   UNL     1       0.513  10.975  19.838  0.00  0.00    +0.000 C 
ATOM      8  C   UNL     1      -1.022  10.885  19.863  0.00  0.00    +0.000 C 
ATOM      9  C   UNL     1      -1.656  12.250  20.129  0.00  0.00    +0.000 C 
ATOM     10  N   UNL     1      -1.081  12.798  21.355  0.00  0.00    +0.000 N 
ATOM     11  C   UNL     1       0.354  13.058  21.315  0.00  0.00    +0.000 C 
ATOM     12  C   UNL     1       1.078  11.727  21.057  0.00  0.00    +0.000 C 
ATOM     13  C   UNL     1       0.968  11.693  18.532  0.00  0.00    +0.000 C 
ATOM     14  O   UNL     1       0.734  12.837  18.184  0.00  0.00    +0.000 OA
ATOM     15  N   UNL     1       1.705  10.793  17.781  0.00  0.00    +0.000 N 
ATOM     16  H   UNL     1       2.102  11.030  16.888  0.00  0.00    +0.000 HD
ENDROOT
BRANCH  10  17
ATOM     17  C   UNL     1      -1.890  13.105  22.431  0.00  0.00    +0.000 A 
ATOM     18  C   UNL     1      -1.624  14.233  23.227  0.00  0.00    +0.000 A 
ATOM     19  C   UNL     1      -2.366  14.533  24.370  0.00  0.00    +0.000 A 
ATOM     20  C   UNL     1      -3.421  13.712  24.740  0.00  0.00    +0.000 A 
ATOM     21  C   UNL     1      -3.743  12.614  23.950  0.00  0.00    +0.000 A 
ATOM     22  C   UNL     1      -2.990  12.321  22.803  0.00  0.00    +0.000 A 
ENDBRANCH  10  17
BRANCH   1  24
ATOM     23  C   UNL     1       2.450   5.056  20.369  0.00  0.00    +0.000 C 
ATOM     24  O   UNL     1       1.746   6.218  20.805  0.00  0.00    +0.000 OA
ENDBRANCH   1  24
TORSDOF 2
ENDMDL
