MODEL 1
REMARK VINA RESULT:      -9.6      0.000      0.000
REMARK  Name = 
REMARK  6 active torsions:
REMARK  status: ('A' for Active; 'I' for Inactive)
REMARK    1  A    between atoms: C_1  and  C_2
REMARK    2  A    between atoms: C_5  and  C_6
REMARK    3  A    between atoms: C_9  and  C_10
REMARK    4  A    between atoms: C_18  and  C_19
REMARK    5  A    between atoms: C_19  and  O_21
REMARK    6  A    between atoms: C_22  and  C_23
REMARK                            x       y       z     vdW  Elec       q    Type
REMARK                         _______ _______ _______ _____ _____    ______ ____
ROOT
ATOM      1  C   UNL     1       3.473   6.422  18.033  0.00  0.00    +0.000 A 
ATOM      2  N   UNL     1       4.213   6.803  16.963  0.00  0.00    +0.000 NA
ATOM      3  C   UNL     1       4.954   5.817  16.351  0.00  0.00    +0.000 A 
ATOM      4  C   UNL     1       6.143   6.023  15.661  0.00  0.00    +0.000 A 
ATOM      5  C   UNL     1       6.881   4.948  15.137  0.00  0.00    +0.000 A 
ATOM      6  C   UNL     1       6.359   3.654  15.152  0.00  0.00    +0.000 A 
ATOM      7  C   UNL     1       5.182   3.413  15.833  0.00  0.00    +0.000 A 
ATOM      8  C   UNL     1       4.607   4.466  16.558  0.00  0.00    +0.000 A 
ATOM      9  C   UNL     1       3.808   4.248  17.665  0.00  0.00    +0.000 A 
ATOM     10  C   UNL     1       3.865   5.249  18.613  0.00  0.00    +0.000 A 
ATOM     11  C   UNL     1       5.230   5.485  19.339  0.00  0.00    +0.000 C 
ENDROOT
BRANCH   1  15
ATOM     12  C   UNL     1       0.945   9.087  20.311  0.00  0.00    +0.000 A 
ATOM     13  C   UNL     1       1.356   7.861  20.837  0.00  0.00    +0.000 A 
ATOM     14  C   UNL     1       2.135   6.988  20.068  0.00  0.00    +0.000 A 
ATOM     15  C   UNL     1       2.553   7.309  18.754  0.00  0.00    +0.000 A 
ATOM     16  C   UNL     1       2.108   8.509  18.216  0.00  0.00    +0.000 A 
ATOM     17  C   UNL     1       1.318   9.377  18.980  0.00  0.00    +0.000 A 
BRANCH  12  22
ATOM     18  C   UNL     1      -2.389  12.659  23.349  0.00  0.00    +0.000 C 
ATOM     19  C   UNL     1      -1.476  11.785  22.542  0.00  0.00    +0.000 A 
ATOM     20  C   UNL     1      -1.470  11.871  21.161  0.00  0.00    +0.000 A 
ATOM     21  C   UNL     1      -0.636  11.020  20.441  0.00  0.00    +0.000 A 
ATOM     22  C   UNL     1       0.167  10.071  21.093  0.00  0.00    +0.000 A 
ATOM     23  C   UNL     1       0.117  10.102  22.490  0.00  0.00    +0.000 A 
ATOM     24  F   UNL     1       0.877   9.257  23.203  0.00  0.00    +0.000 F 
ATOM     25  N   UNL     1      -0.673  10.936  23.219  0.00  0.00    +0.000 NA
ENDBRANCH  12  22
ENDBRANCH   1  15
BRANCH   9  26
ATOM     26  C   UNL     1       2.547   3.496  17.466  0.00  0.00    +0.000 C 
ATOM     27  O   UNL     1       1.479   3.935  17.089  0.00  0.00    +0.000 OA
BRANCH  26  28
ATOM     28  O   UNL     1       2.695   2.199  17.785  0.00  0.00    +0.000 OA
ATOM     29  H   UNL     1       3.091   2.228  18.683  0.00  0.00    +0.000 HD
ENDBRANCH  26  28
ENDBRANCH   9  26
TORSDOF 4
ENDMDL
MODEL 2
REMARK VINA RESULT:      -9.3      1.053      1.232
REMARK  Name = 
REMARK  6 active torsions:
REMARK  status: ('A' for Active; 'I' for Inactive)
REMARK    1  A    between atoms: C_1  and  C_2
REMARK    2  A    between atoms: C_5  and  C_6
REMARK    3  A    between atoms: C_9  and  C_10
REMARK    4  A    between atoms: C_18  and  C_19
REMARK    5  A    between atoms: C_19  and  O_21
REMARK    6  A    between atoms: C_22  and  C_23
REMARK                            x       y       z     vdW  Elec       q    Type
REMARK                         _______ _______ _______ _____ _____    ______ ____
ROOT
ATOM      1  C   UNL     1       3.442   6.448  18.047  0.00  0.00    +0.000 A 
ATOM      2  N   UNL     1       4.207   6.815  16.990  0.00  0.00    +0.000 NA
ATOM      3  C   UNL     1       4.934   5.814  16.385  0.00  0.00    +0.000 A 
ATOM      4  C   UNL     1       6.137   5.995  15.713  0.00  0.00    +0.000 A 
ATOM      5  C   UNL     1       6.858   4.905  15.196  0.00  0.00    +0.000 A 
ATOM      6  C   UNL     1       6.305   3.624  15.198  0.00  0.00    +0.000 A 
ATOM      7  C   UNL     1       5.113   3.408  15.860  0.00  0.00    +0.000 A 
ATOM      8  C   UNL     1       4.551   4.471  16.580  0.00  0.00    +0.000 A 
ATOM      9  C   UNL     1       3.731   4.268  17.675  0.00  0.00    +0.000 A 
ATOM     10  C   UNL     1       3.797   5.263  18.628  0.00  0.00    +0.000 A 
ATOM     11  C   UNL     1       5.157   5.464  19.375  0.00  0.00    +0.000 C 
ENDROOT
BRANCH   1  15
ATOM     12  C   UNL     1       0.947   9.171  20.292  0.00  0.00    +0.000 A 
ATOM     13  C   UNL     1       1.365   7.959  20.843  0.00  0.00    +0.000 A 
ATOM     14  C   UNL     1       2.133   7.066  20.086  0.00  0.00    +0.000 A 
ATOM     15  C   UNL     1       2.533   7.353  18.759  0.00  0.00    +0.000 A 
ATOM     16  C   UNL     1       2.080   8.539  18.196  0.00  0.00    +0.000 A 
ATOM     17  C   UNL     1       1.302   9.428  18.949  0.00  0.00    +0.000 A 
BRANCH  12  22
ATOM     18  C   UNL     1      -1.700  13.166  23.476  0.00  0.00    +0.000 C 
ATOM     19  C   UNL     1      -1.076  12.098  22.628  0.00  0.00    +0.000 A 
ATOM     20  C   UNL     1      -1.053  10.785  23.067  0.00  0.00    +0.000 A 
ATOM     21  C   UNL     1      -0.434   9.825  22.271  0.00  0.00    +0.000 A 
ATOM     22  C   UNL     1       0.180  10.175  21.059  0.00  0.00    +0.000 A 
ATOM     23  C   UNL     1       0.058  11.520  20.691  0.00  0.00    +0.000 A 
ATOM     24  F   UNL     1       0.581  11.943  19.531  0.00  0.00    +0.000 F 
ATOM     25  N   UNL     1      -0.558  12.474  21.439  0.00  0.00    +0.000 NA
ENDBRANCH  12  22
ENDBRANCH   1  15
BRANCH   9  26
ATOM     26  C   UNL     1       2.455   3.547  17.454  0.00  0.00    +0.000 C 
ATOM     27  O   UNL     1       1.398   4.016  17.085  0.00  0.00    +0.000 OA
BRANCH  26  28
ATOM     28  O   UNL     1       2.576   2.240  17.741  0.00  0.00    +0.000 OA
ATOM     29  H   UNL     1       2.041   2.134  18.556  0.00  0.00    +0.000 HD
ENDBRANCH  26  28
ENDBRANCH   9  26
TORSDOF 4
ENDMDL
MODEL 3
REMARK VINA RESULT:      -9.2      1.092      1.596
REMARK  Name = 
REMARK  6 active torsions:
REMARK  status: ('A' for Active; 'I' for Inactive)
REMARK    1  A    between atoms: C_1  and  C_2
REMARK    2  A    between atoms: C_5  and  C_6
REMARK    3  A    between atoms: C_9  and  C_10
REMARK    4  A    between atoms: C_18  and  C_19
REMARK    5  A    between atoms: C_19  and  O_21
REMARK    6  A    between atoms: C_22  and  C_23
REMARK                            x       y       z     vdW  Elec       q    Type
REMARK                         _______ _______ _______ _____ _____    ______ ____
ROOT
ATOM      1  C   UNL     1       3.421   6.511  18.221  0.00  0.00    +0.000 A 
ATOM      2  N   UNL     1       4.157   6.872  17.141  0.00  0.00    +0.000 NA
ATOM      3  C   UNL     1       4.801   5.855  16.472  0.00  0.00    +0.000 A 
ATOM      4  C   UNL     1       5.981   5.994  15.752  0.00  0.00    +0.000 A 
ATOM      5  C   UNL     1       6.617   4.885  15.169  0.00  0.00    +0.000 A 
ATOM      6  C   UNL     1       5.997   3.636  15.156  0.00  0.00    +0.000 A 
ATOM      7  C   UNL     1       4.825   3.461  15.867  0.00  0.00    +0.000 A 
ATOM      8  C   UNL     1       4.355   4.528  16.644  0.00  0.00    +0.000 A 
ATOM      9  C   UNL     1       3.574   4.333  17.768  0.00  0.00    +0.000 A 
ATOM     10  C   UNL     1       3.737   5.291  18.748  0.00  0.00    +0.000 A 
ATOM     11  C   UNL     1       5.137   5.395  19.437  0.00  0.00    +0.000 C 
ENDROOT
BRANCH   1  15
ATOM     12  C   UNL     1       0.802   9.198  20.366  0.00  0.00    +0.000 A 
ATOM     13  C   UNL     1       1.281   9.522  19.096  0.00  0.00    +0.000 A 
ATOM     14  C   UNL     1       2.167   8.663  18.434  0.00  0.00    +0.000 A 
ATOM     15  C   UNL     1       2.594   7.439  19.001  0.00  0.00    +0.000 A 
ATOM     16  C   UNL     1       2.151   7.137  20.282  0.00  0.00    +0.000 A 
ATOM     17  C   UNL     1       1.275   8.001  20.949  0.00  0.00    +0.000 A 
BRANCH  12  22
ATOM     18  C   UNL     1      -2.704  12.728  23.256  0.00  0.00    +0.000 C 
ATOM     19  C   UNL     1      -1.841  11.754  22.510  0.00  0.00    +0.000 A 
ATOM     20  C   UNL     1      -1.180  10.746  23.191  0.00  0.00    +0.000 A 
ATOM     21  C   UNL     1      -0.358   9.882  22.473  0.00  0.00    +0.000 A 
ATOM     22  C   UNL     1      -0.175  10.038  21.090  0.00  0.00    +0.000 A 
ATOM     23  C   UNL     1      -0.925  11.059  20.498  0.00  0.00    +0.000 A 
ATOM     24  F   UNL     1      -0.845  11.262  19.174  0.00  0.00    +0.000 F 
ATOM     25  N   UNL     1      -1.751  11.904  21.171  0.00  0.00    +0.000 NA
ENDBRANCH  12  22
ENDBRANCH   1  15
BRANCH   9  26
ATOM     26  C   UNL     1       2.253   3.687  17.584  0.00  0.00    +0.000 C 
ATOM     27  O   UNL     1       1.218   4.216  17.232  0.00  0.00    +0.000 OA
BRANCH  26  28
ATOM     28  O   UNL     1       2.301   2.379  17.886  0.00  0.00    +0.000 OA
ATOM     29  H   UNL     1       3.077   2.055  17.381  0.00  0.00    +0.000 HD
ENDBRANCH  26  28
ENDBRANCH   9  26
TORSDOF 4
ENDMDL
MODEL 4
REMARK VINA RESULT:      -9.1      3.170      9.269
REMARK  Name = 
REMARK  6 active torsions:
REMARK  status: ('A' for Active; 'I' for Inactive)
REMARK    1  A    between atoms: C_1  and  C_2
REMARK    2  A    between atoms: C_5  and  C_6
REMARK    3  A    between atoms: C_9  and  C_10
REMARK    4  A    between atoms: C_18  and  C_19
REMARK    5  A    between atoms: C_19  and  O_21
REMARK    6  A    between atoms: C_22  and  C_23
REMARK                            x       y       z     vdW  Elec       q    Type
REMARK                         _______ _______ _______ _____ _____    ______ ____
ROOT
ATOM      1  C   UNL     1       0.239  10.427  20.157  0.00  0.00    +0.000 A 
ATOM      2  N   UNL     1      -0.354  10.351  21.374  0.00  0.00    +0.000 NA
ATOM      3  C   UNL     1      -1.110  11.437  21.754  0.00  0.00    +0.000 A 
ATOM      4  C   UNL     1      -1.330  11.838  23.066  0.00  0.00    +0.000 A 
ATOM      5  C   UNL     1      -2.046  13.010  23.364  0.00  0.00    +0.000 A 
ATOM      6  C   UNL     1      -2.698  13.719  22.355  0.00  0.00    +0.000 A 
ATOM      7  C   UNL     1      -2.498  13.351  21.039  0.00  0.00    +0.000 A 
ATOM      8  C   UNL     1      -1.574  12.332  20.768  0.00  0.00    +0.000 A 
ATOM      9  C   UNL     1      -0.896  12.253  19.566  0.00  0.00    +0.000 A 
ATOM     10  C   UNL     1       0.361  11.693  19.657  0.00  0.00    +0.000 A 
ATOM     11  C   UNL     1       1.438  12.456  20.496  0.00  0.00    +0.000 C 
ENDROOT
BRANCH   1  15
ATOM     12  C   UNL     1       2.680   7.366  18.327  0.00  0.00    +0.000 A 
ATOM     13  C   UNL     1       2.169   8.424  17.573  0.00  0.00    +0.000 A 
ATOM     14  C   UNL     1       1.341   9.381  18.171  0.00  0.00    +0.000 A 
ATOM     15  C   UNL     1       1.004   9.335  19.545  0.00  0.00    +0.000 A 
ATOM     16  C   UNL     1       1.477   8.259  20.284  0.00  0.00    +0.000 A 
ATOM     17  C   UNL     1       2.296   7.294  19.684  0.00  0.00    +0.000 A 
BRANCH  12  22
ATOM     18  C   UNL     1       6.112   3.516  15.776  0.00  0.00    +0.000 C 
ATOM     19  C   UNL     1       5.232   4.488  16.506  0.00  0.00    +0.000 A 
ATOM     20  C   UNL     1       3.999   4.084  16.985  0.00  0.00    +0.000 A 
ATOM     21  C   UNL     1       3.191   5.020  17.627  0.00  0.00    +0.000 A 
ATOM     22  C   UNL     1       3.601   6.356  17.764  0.00  0.00    +0.000 A 
ATOM     23  C   UNL     1       4.883   6.642  17.284  0.00  0.00    +0.000 A 
ATOM     24  F   UNL     1       5.377   7.884  17.404  0.00  0.00    +0.000 F 
ATOM     25  N   UNL     1       5.700   5.743  16.673  0.00  0.00    +0.000 NA
ENDBRANCH  12  22
ENDBRANCH   1  15
BRANCH   9  26
ATOM     26  C   UNL     1      -1.698  12.060  18.334  0.00  0.00    +0.000 C 
ATOM     27  O   UNL     1      -2.706  11.394  18.209  0.00  0.00    +0.000 OA
BRANCH  26  28
ATOM     28  O   UNL     1      -1.160  12.715  17.292  0.00  0.00    +0.000 OA
ATOM     29  H   UNL     1      -1.337  12.120  16.531  0.00  0.00    +0.000 HD
ENDBRANCH  26  28
ENDBRANCH   9  26
TORSDOF 4
ENDMDL
MODEL 5
REMARK VINA RESULT:      -9.1      3.184      9.262
REMARK  Name = 
REMARK  6 active torsions:
REMARK  status: ('A' for Active; 'I' for Inactive)
REMARK    1  A    between atoms: C_1  and  C_2
REMARK    2  A    between atoms: C_5  and  C_6
REMARK    3  A    between atoms: C_9  and  C_10
REMARK    4  A    between atoms: C_18  and  C_19
REMARK    5  A    between atoms: C_19  and  O_21
REMARK    6  A    between atoms: C_22  and  C_23
REMARK                            x       y       z     vdW  Elec       q    Type
REMARK                         _______ _______ _______ _____ _____    ______ ____
ROOT
ATOM      1  C   UNL     1       0.043  10.668  20.229  0.00  0.00    +0.000 A 
ATOM      2  N   UNL     1      -0.534  10.500  21.444  0.00  0.00    +0.000 NA
ATOM      3  C   UNL     1      -1.444  11.460  21.826  0.00  0.00    +0.000 A 
ATOM      4  C   UNL     1      -1.723  11.819  23.139  0.00  0.00    +0.000 A 
ATOM      5  C   UNL     1      -2.606  12.870  23.439  0.00  0.00    +0.000 A 
ATOM      6  C   UNL     1      -3.355  13.478  22.431  0.00  0.00    +0.000 A 
ATOM      7  C   UNL     1      -3.099  13.150  21.114  0.00  0.00    +0.000 A 
ATOM      8  C   UNL     1      -2.034  12.280  20.842  0.00  0.00    +0.000 A 
ATOM      9  C   UNL     1      -1.350  12.307  19.641  0.00  0.00    +0.000 A 
ATOM     10  C   UNL     1      -0.023  11.939  19.733  0.00  0.00    +0.000 A 
ATOM     11  C   UNL     1       0.926  12.851  20.578  0.00  0.00    +0.000 C 
ENDROOT
BRANCH   1  15
ATOM     12  C   UNL     1       2.571   7.668  18.415  0.00  0.00    +0.000 A 
ATOM     13  C   UNL     1       2.144   7.544  19.738  0.00  0.00    +0.000 A 
ATOM     14  C   UNL     1       1.366   8.548  20.326  0.00  0.00    +0.000 A 
ATOM     15  C   UNL     1       0.963   9.704  19.615  0.00  0.00    +0.000 A 
ATOM     16  C   UNL     1       1.424   9.847  18.313  0.00  0.00    +0.000 A 
ATOM     17  C   UNL     1       2.213   8.849  17.728  0.00  0.00    +0.000 A 
BRANCH  12  22
ATOM     18  C   UNL     1       5.813   3.536  16.066  0.00  0.00    +0.000 C 
ATOM     19  C   UNL     1       4.946   4.632  16.610  0.00  0.00    +0.000 A 
ATOM     20  C   UNL     1       5.339   5.954  16.489  0.00  0.00    +0.000 A 
ATOM     21  C   UNL     1       4.528   6.945  17.037  0.00  0.00    +0.000 A 
ATOM     22  C   UNL     1       3.349   6.618  17.725  0.00  0.00    +0.000 A 
ATOM     23  C   UNL     1       3.026   5.257  17.748  0.00  0.00    +0.000 A 
ATOM     24  F   UNL     1       1.899   4.850  18.350  0.00  0.00    +0.000 F 
ATOM     25  N   UNL     1       3.788   4.271  17.203  0.00  0.00    +0.000 NA
ENDBRANCH  12  22
ENDBRANCH   1  15
BRANCH   9  26
ATOM     26  C   UNL     1      -2.112  12.002  18.407  0.00  0.00    +0.000 C 
ATOM     27  O   UNL     1      -3.162  11.398  18.321  0.00  0.00    +0.000 OA
BRANCH  26  28
ATOM     28  O   UNL     1      -1.481  12.464  17.315  0.00  0.00    +0.000 OA
ATOM     29  H   UNL     1      -2.019  12.112  16.573  0.00  0.00    +0.000 HD
ENDBRANCH  26  28
ENDBRANCH   9  26
TORSDOF 4
ENDMDL
MODEL 6
REMARK VINA RESULT:      -8.9      3.775      8.900
REMARK  Name = 
REMARK  6 active torsions:
REMARK  status: ('A' for Active; 'I' for Inactive)
REMARK    1  A    between atoms: C_1  and  C_2
REMARK    2  A    between atoms: C_5  and  C_6
REMARK    3  A    between atoms: C_9  and  C_10
REMARK    4  A    between atoms: C_18  and  C_19
REMARK    5  A    between atoms: C_19  and  O_21
REMARK    6  A    between atoms: C_22  and  C_23
REMARK                            x       y       z     vdW  Elec       q    Type
REMARK                         _______ _______ _______ _____ _____    ______ ____
ROOT
ATOM      1  C   UNL     1       0.661  10.617  19.624  0.00  0.00    +0.000 A 
ATOM      2  N   UNL     1       1.210  11.793  19.233  0.00  0.00    +0.000 NA
ATOM      3  C   UNL     1       0.519  12.934  19.576  0.00  0.00    +0.000 A 
ATOM      4  C   UNL     1       0.546  14.128  18.865  0.00  0.00    +0.000 A 
ATOM      5  C   UNL     1      -0.257  15.219  19.238  0.00  0.00    +0.000 A 
ATOM      6  C   UNL     1      -0.982  15.193  20.430  0.00  0.00    +0.000 A 
ATOM      7  C   UNL     1      -1.035  14.021  21.158  0.00  0.00    +0.000 A 
ATOM      8  C   UNL     1      -0.426  12.878  20.621  0.00  0.00    +0.000 A 
ATOM      9  C   UNL     1      -0.852  11.601  20.933  0.00  0.00    +0.000 A 
ATOM     10  C   UNL     1      -0.670  10.677  19.924  0.00  0.00    +0.000 A 
ATOM     11  C   UNL     1      -1.470  10.885  18.596  0.00  0.00    +0.000 C 
ENDROOT
BRANCH   1  15
ATOM     12  C   UNL     1       2.311   6.659  19.075  0.00  0.00    +0.000 A 
ATOM     13  C   UNL     1       1.827   7.071  20.319  0.00  0.00    +0.000 A 
ATOM     14  C   UNL     1       1.340   8.372  20.491  0.00  0.00    +0.000 A 
ATOM     15  C   UNL     1       1.296   9.308  19.430  0.00  0.00    +0.000 A 
ATOM     16  C   UNL     1       1.816   8.912  18.206  0.00  0.00    +0.000 A 
ATOM     17  C   UNL     1       2.315   7.614  18.035  0.00  0.00    +0.000 A 
BRANCH  12  22
ATOM     18  C   UNL     1       3.945   1.186  18.390  0.00  0.00    +0.000 C 
ATOM     19  C   UNL     1       3.576   2.633  18.526  0.00  0.00    +0.000 A 
ATOM     20  C   UNL     1       4.330   3.471  19.329  0.00  0.00    +0.000 A 
ATOM     21  C   UNL     1       3.938   4.801  19.461  0.00  0.00    +0.000 A 
ATOM     22  C   UNL     1       2.787   5.284  18.819  0.00  0.00    +0.000 A 
ATOM     23  C   UNL     1       2.128   4.363  17.998  0.00  0.00    +0.000 A 
ATOM     24  F   UNL     1       1.038   4.743  17.314  0.00  0.00    +0.000 F 
ATOM     25  N   UNL     1       2.500   3.066  17.834  0.00  0.00    +0.000 NA
ENDBRANCH  12  22
ENDBRANCH   1  15
BRANCH   9  26
ATOM     26  C   UNL     1      -0.758  11.170  22.348  0.00  0.00    +0.000 C 
ATOM     27  O   UNL     1       0.202  10.677  22.905  0.00  0.00    +0.000 OA
BRANCH  26  28
ATOM     28  O   UNL     1      -1.917  11.367  22.998  0.00  0.00    +0.000 OA
ATOM     29  H   UNL     1      -1.706  12.085  23.632  0.00  0.00    +0.000 HD
ENDBRANCH  26  28
ENDBRANCH   9  26
TORSDOF 4
ENDMDL
MODEL 7
REMARK VINA RESULT:      -8.9      0.495      1.032
REMARK  Name = 
REMARK  6 active torsions:
REMARK  status: ('A' for Active; 'I' for Inactive)
REMARK    1  A    between atoms: C_1  and  C_2
REMARK    2  A    between atoms: C_5  and  C_6
REMARK    3  A    between atoms: C_9  and  C_10
REMARK    4  A    between atoms: C_18  and  C_19
REMARK    5  A    between atoms: C_19  and  O_21
REMARK    6  A    between atoms: C_22  and  C_23
REMARK                            x       y       z     vdW  Elec       q    Type
REMARK                         _______ _______ _______ _____ _____    ______ ____
ROOT
ATOM      1  C   UNL     1       3.361   6.601  18.234  0.00  0.00    +0.000 A 
ATOM      2  N   UNL     1       4.169   6.922  17.194  0.00  0.00    +0.000 NA
ATOM      3  C   UNL     1       4.781   5.870  16.549  0.00  0.00    +0.000 A 
ATOM      4  C   UNL     1       6.000   5.940  15.886  0.00  0.00    +0.000 A 
ATOM      5  C   UNL     1       6.595   4.797  15.325  0.00  0.00    +0.000 A 
ATOM      6  C   UNL     1       5.901   3.588  15.274  0.00  0.00    +0.000 A 
ATOM      7  C   UNL     1       4.688   3.482  15.926  0.00  0.00    +0.000 A 
ATOM      8  C   UNL     1       4.247   4.572  16.689  0.00  0.00    +0.000 A 
ATOM      9  C   UNL     1       3.403   4.419  17.773  0.00  0.00    +0.000 A 
ATOM     10  C   UNL     1       3.576   5.361  18.766  0.00  0.00    +0.000 A 
ATOM     11  C   UNL     1       4.946   5.376  19.522  0.00  0.00    +0.000 C 
ENDROOT
BRANCH   1  15
ATOM     12  C   UNL     1       0.805   9.421  20.283  0.00  0.00    +0.000 A 
ATOM     13  C   UNL     1       1.299   9.694  19.006  0.00  0.00    +0.000 A 
ATOM     14  C   UNL     1       2.165   8.792  18.376  0.00  0.00    +0.000 A 
ATOM     15  C   UNL     1       2.556   7.574  18.981  0.00  0.00    +0.000 A 
ATOM     16  C   UNL     1       2.099   7.323  20.268  0.00  0.00    +0.000 A 
ATOM     17  C   UNL     1       1.243   8.231  20.904  0.00  0.00    +0.000 A 
BRANCH  12  22
ATOM     18  C   UNL     1      -3.198  12.592  22.933  0.00  0.00    +0.000 C 
ATOM     19  C   UNL     1      -2.114  11.826  22.234  0.00  0.00    +0.000 A 
ATOM     20  C   UNL     1      -1.947  11.949  20.865  0.00  0.00    +0.000 A 
ATOM     21  C   UNL     1      -0.954  11.197  20.243  0.00  0.00    +0.000 A 
ATOM     22  C   UNL     1      -0.152  10.309  20.975  0.00  0.00    +0.000 A 
ATOM     23  C   UNL     1      -0.376  10.298  22.356  0.00  0.00    +0.000 A 
ATOM     24  F   UNL     1       0.367   9.508  23.145  0.00  0.00    +0.000 F 
ATOM     25  N   UNL     1      -1.324  11.037  22.992  0.00  0.00    +0.000 NA
ENDBRANCH  12  22
ENDBRANCH   1  15
BRANCH   9  26
ATOM     26  C   UNL     1       2.055   3.857  17.521  0.00  0.00    +0.000 C 
ATOM     27  O   UNL     1       1.032   4.471  17.290  0.00  0.00    +0.000 OA
BRANCH  26  28
ATOM     28  O   UNL     1       2.061   2.516  17.601  0.00  0.00    +0.000 OA
ATOM     29  H   UNL     1       2.929   2.315  18.012  0.00  0.00    +0.000 HD
ENDBRANCH  26  28
ENDBRANCH   9  26
TORSDOF 4
ENDMDL
MODEL 8
REMARK VINA RESULT:      -8.7      3.751      8.831
REMARK  Name = 
REMARK  6 active torsions:
REMARK  status: ('A' for Active; 'I' for Inactive)
REMARK    1  A    between atoms: C_1  and  C_2
REMARK    2  A    between atoms: C_5  and  C_6
REMARK    3  A    between atoms: C_9  and  C_10
REMARK    4  A    between atoms: C_18  and  C_19
REMARK    5  A    between atoms: C_19  and  O_21
REMARK    6  A    between atoms: C_22  and  C_23
REMARK                            x       y       z     vdW  Elec       q    Type
REMARK                         _______ _______ _______ _____ _____    ______ ____
ROOT
ATOM      1  C   UNL     1       0.655  10.596  19.724  0.00  0.00    +0.000 A 
ATOM      2  N   UNL     1       1.266  11.733  19.311  0.00  0.00    +0.000 NA
ATOM      3  C   UNL     1       0.603  12.911  19.569  0.00  0.00    +0.000 A 
ATOM      4  C   UNL     1       0.708  14.070  18.810  0.00  0.00    +0.000 A 
ATOM      5  C   UNL     1      -0.070  15.205  19.094  0.00  0.00    +0.000 A 
ATOM      6  C   UNL     1      -0.853  15.258  20.248  0.00  0.00    +0.000 A 
ATOM      7  C   UNL     1      -0.985  14.123  21.022  0.00  0.00    +0.000 A 
ATOM      8  C   UNL     1      -0.394  12.936  20.567  0.00  0.00    +0.000 A 
ATOM      9  C   UNL     1      -0.882  11.690  20.912  0.00  0.00    +0.000 A 
ATOM     10  C   UNL     1      -0.686  10.716  19.955  0.00  0.00    +0.000 A 
ATOM     11  C   UNL     1      -1.412  10.892  18.580  0.00  0.00    +0.000 C 
ENDROOT
BRANCH   1  15
ATOM     12  C   UNL     1       2.180   6.562  19.434  0.00  0.00    +0.000 A 
ATOM     13  C   UNL     1       1.662   7.050  20.635  0.00  0.00    +0.000 A 
ATOM     14  C   UNL     1       1.216   8.374  20.725  0.00  0.00    +0.000 A 
ATOM     15  C   UNL     1       1.249   9.258  19.620  0.00  0.00    +0.000 A 
ATOM     16  C   UNL     1       1.804   8.785  18.439  0.00  0.00    +0.000 A 
ATOM     17  C   UNL     1       2.262   7.464  18.350  0.00  0.00    +0.000 A 
BRANCH  12  22
ATOM     18  C   UNL     1       3.923   1.181  18.379  0.00  0.00    +0.000 C 
ATOM     19  C   UNL     1       3.442   2.561  18.719  0.00  0.00    +0.000 A 
ATOM     20  C   UNL     1       2.092   2.859  18.664  0.00  0.00    +0.000 A 
ATOM     21  C   UNL     1       1.683   4.159  18.950  0.00  0.00    +0.000 A 
ATOM     22  C   UNL     1       2.616   5.160  19.263  0.00  0.00    +0.000 A 
ATOM     23  C   UNL     1       3.948   4.736  19.335  0.00  0.00    +0.000 A 
ATOM     24  F   UNL     1       4.908   5.614  19.663  0.00  0.00    +0.000 F 
ATOM     25  N   UNL     1       4.372   3.470  19.080  0.00  0.00    +0.000 NA
ENDBRANCH  12  22
ENDBRANCH   1  15
BRANCH   9  26
ATOM     26  C   UNL     1      -0.873  11.321  22.347  0.00  0.00    +0.000 C 
ATOM     27  O   UNL     1       0.036  10.812  22.971  0.00  0.00    +0.000 OA
BRANCH  26  28
ATOM     28  O   UNL     1      -2.051  11.597  22.932  0.00  0.00    +0.000 OA
ATOM     29  H   UNL     1      -1.880  11.430  23.883  0.00  0.00    +0.000 HD
ENDBRANCH  26  28
ENDBRANCH   9  26
TORSDOF 4
ENDMDL
MODEL 9
REMARK VINA RESULT:      -8.7      3.550      9.045
REMARK  Name = 
REMARK  6 active torsions:
REMARK  status: ('A' for Active; 'I' for Inactive)
REMARK    1  A    between atoms: C_1  and  C_2
REMARK    2  A    between atoms: C_5  and  C_6
REMARK    3  A    between atoms: C_9  and  C_10
REMARK    4  A    between atoms: C_18  and  C_19
REMARK    5  A    between atoms: C_19  and  O_21
REMARK    6  A    between atoms: C_22  and  C_23
REMARK                            x       y       z     vdW  Elec       q    Type
REMARK                         _______ _______ _______ _____ _____    ______ ____
ROOT
ATOM      1  C   UNL     1       0.409  10.537  20.273  0.00  0.00    +0.000 A 
ATOM      2  N   UNL     1      -0.080  10.842  21.500  0.00  0.00    +0.000 NA
ATOM      3  C   UNL     1      -0.768  12.031  21.606  0.00  0.00    +0.000 A 
ATOM      4  C   UNL     1      -0.863  12.799  22.759  0.00  0.00    +0.000 A 
ATOM      5  C   UNL     1      -1.515  14.044  22.758  0.00  0.00    +0.000 A 
ATOM      6  C   UNL     1      -2.229  14.470  21.638  0.00  0.00    +0.000 A 
ATOM      7  C   UNL     1      -2.153  13.733  20.473  0.00  0.00    +0.000 A 
ATOM      8  C   UNL     1      -1.287  12.631  20.440  0.00  0.00    +0.000 A 
ATOM      9  C   UNL     1      -0.717  12.178  19.265  0.00  0.00    +0.000 A 
ATOM     10  C   UNL     1       0.527  11.600  19.422  0.00  0.00    +0.000 A 
ATOM     11  C   UNL     1       1.693  12.512  19.925  0.00  0.00    +0.000 C 
ENDROOT
BRANCH   1  15
ATOM     12  C   UNL     1       2.188   6.713  19.327  0.00  0.00    +0.000 A 
ATOM     13  C   UNL     1       1.708   6.986  20.610  0.00  0.00    +0.000 A 
ATOM     14  C   UNL     1       1.179   8.246  20.913  0.00  0.00    +0.000 A 
ATOM     15  C   UNL     1       1.086   9.277  19.948  0.00  0.00    +0.000 A 
ATOM     16  C   UNL     1       1.602   9.020  18.685  0.00  0.00    +0.000 A 
ATOM     17  C   UNL     1       2.143   7.763  18.384  0.00  0.00    +0.000 A 
BRANCH  12  22
ATOM     18  C   UNL     1       3.993   1.392  18.091  0.00  0.00    +0.000 C 
ATOM     19  C   UNL     1       3.579   2.806  18.374  0.00  0.00    +0.000 A 
ATOM     20  C   UNL     1       4.298   3.574  19.273  0.00  0.00    +0.000 A 
ATOM     21  C   UNL     1       3.865   4.871  19.539  0.00  0.00    +0.000 A 
ATOM     22  C   UNL     1       2.708   5.387  18.934  0.00  0.00    +0.000 A 
ATOM     23  C   UNL     1       2.087   4.541  18.010  0.00  0.00    +0.000 A 
ATOM     24  F   UNL     1       0.995   4.960  17.353  0.00  0.00    +0.000 F 
ATOM     25  N   UNL     1       2.499   3.279  17.716  0.00  0.00    +0.000 NA
ENDBRANCH  12  22
ENDBRANCH   1  15
BRANCH   9  26
ATOM     26  C   UNL     1      -1.626  11.685  18.204  0.00  0.00    +0.000 C 
ATOM     27  O   UNL     1      -2.390  10.743  18.267  0.00  0.00    +0.000 OA
BRANCH  26  28
ATOM     28  O   UNL     1      -1.504  12.410  17.079  0.00  0.00    +0.000 OA
ATOM     29  H   UNL     1      -1.321  13.316  17.409  0.00  0.00    +0.000 HD
ENDBRANCH  26  28
ENDBRANCH   9  26
TORSDOF 4
ENDMDL
