MODEL 1
REMARK VINA RESULT:      -8.5      0.000      0.000
REMARK  Name = 
REMARK  6 active torsions:
REMARK  status: ('A' for Active; 'I' for Inactive)
REMARK    1  A    between atoms: C_1  and  C_2
REMARK    2  A    between atoms: C_6  and  C_7
REMARK    3  A    between atoms: C_11  and  C_12
REMARK    4  A    between atoms: C_14  and  N_15
REMARK    5  A    between atoms: C_17  and  C_18
REMARK    6  A    between atoms: C_20  and  C_21
REMARK                            x       y       z     vdW  Elec       q    Type
REMARK                         _______ _______ _______ _____ _____    ______ ____
ROOT
ATOM      1  C   UNL     1       5.807   4.244  14.128  0.00  0.00    +0.000 A 
ATOM      2  C   UNL     1       7.024   4.881  14.452  0.00  0.00    +0.000 A 
ATOM      3  C   UNL     1       6.847   5.448  15.687  0.00  0.00    +0.000 A 
ATOM      4  N   UNL     1       7.707   6.182  16.449  0.00  0.00    +0.000 NA
ATOM      5  C   UNL     1       7.251   6.593  17.591  0.00  0.00    +0.000 A 
ATOM      6  C   UNL     1       8.156   7.405  18.481  0.00  0.00    +0.000 C 
ATOM      7  C   UNL     1       5.884   6.316  18.116  0.00  0.00    +0.000 A 
ATOM      8  C   UNL     1       5.046   5.571  17.365  0.00  0.00    +0.000 A 
ATOM      9  N   UNL     1       5.541   5.126  16.092  0.00  0.00    +0.000 N 
ATOM     10  N   UNL     1       4.909   4.400  15.111  0.00  0.00    +0.000 NA
ENDROOT
BRANCH   8  11
ATOM     11  N   UNL     1       3.746   5.241  17.817  0.00  0.00    +0.000 N 
ATOM     12  C   UNL     1       3.150   3.904  17.649  0.00  0.00    +0.000 C 
ATOM     13  C   UNL     1       2.793   3.334  19.032  0.00  0.00    +0.000 C 
ATOM     14  C   UNL     1       2.173   1.946  18.907  0.00  0.00    +0.000 C 
ATOM     15  C   UNL     1       1.853   4.284  19.782  0.00  0.00    +0.000 C 
ATOM     16  C   UNL     1       2.470   5.685  19.884  0.00  0.00    +0.000 C 
ATOM     17  C   UNL     1       1.502   6.640  20.581  0.00  0.00    +0.000 C 
ATOM     18  C   UNL     1       2.850   6.201  18.488  0.00  0.00    +0.000 C 
ENDBRANCH   8  11
BRANCH   1  24
ATOM     19  C   UNL     1       2.939   3.519  10.089  0.00  0.00    +0.000 C 
ATOM     20  C   UNL     1       4.133   3.137  10.913  0.00  0.00    +0.000 A 
ATOM     21  C   UNL     1       4.994   2.113  10.505  0.00  0.00    +0.000 A 
ATOM     22  C   UNL     1       6.099   1.772  11.285  0.00  0.00    +0.000 A 
ATOM     23  C   UNL     1       6.356   2.452  12.479  0.00  0.00    +0.000 A 
ATOM     24  C   UNL     1       5.516   3.489  12.906  0.00  0.00    +0.000 A 
ATOM     25  C   UNL     1       4.399   3.814  12.113  0.00  0.00    +0.000 A 
ENDBRANCH   1  24
TORSDOF 2
ENDMDL
MODEL 2
REMARK VINA RESULT:      -8.5      2.642      7.876
REMARK  Name = 
REMARK  6 active torsions:
REMARK  status: ('A' for Active; 'I' for Inactive)
REMARK    1  A    between atoms: C_1  and  C_2
REMARK    2  A    between atoms: C_6  and  C_7
REMARK    3  A    between atoms: C_11  and  C_12
REMARK    4  A    between atoms: C_14  and  N_15
REMARK    5  A    between atoms: C_17  and  C_18
REMARK    6  A    between atoms: C_20  and  C_21
REMARK                            x       y       z     vdW  Elec       q    Type
REMARK                         _______ _______ _______ _____ _____    ______ ____
ROOT
ATOM      1  C   UNL     1       2.049   7.375  19.632  0.00  0.00    +0.000 A 
ATOM      2  C   UNL     1       1.386   6.521  20.539  0.00  0.00    +0.000 A 
ATOM      3  C   UNL     1       2.055   5.325  20.503  0.00  0.00    +0.000 A 
ATOM      4  N   UNL     1       1.819   4.164  21.179  0.00  0.00    +0.000 NA
ATOM      5  C   UNL     1       2.632   3.185  20.934  0.00  0.00    +0.000 A 
ATOM      6  C   UNL     1       2.425   1.877  21.655  0.00  0.00    +0.000 C 
ATOM      7  C   UNL     1       3.784   3.244  19.990  0.00  0.00    +0.000 A 
ATOM      8  C   UNL     1       4.022   4.402  19.339  0.00  0.00    +0.000 A 
ATOM      9  N   UNL     1       3.116   5.487  19.596  0.00  0.00    +0.000 N 
ATOM     10  N   UNL     1       3.085   6.750  19.056  0.00  0.00    +0.000 NA
ENDROOT
BRANCH   8  11
ATOM     11  N   UNL     1       5.118   4.539  18.455  0.00  0.00    +0.000 N 
ATOM     12  C   UNL     1       5.164   3.911  17.124  0.00  0.00    +0.000 C 
ATOM     13  C   UNL     1       5.330   5.003  16.055  0.00  0.00    +0.000 C 
ATOM     14  C   UNL     1       5.379   4.397  14.656  0.00  0.00    +0.000 C 
ATOM     15  C   UNL     1       6.585   5.841  16.329  0.00  0.00    +0.000 C 
ATOM     16  C   UNL     1       6.541   6.430  17.746  0.00  0.00    +0.000 C 
ATOM     17  C   UNL     1       7.821   7.213  18.031  0.00  0.00    +0.000 C 
ATOM     18  C   UNL     1       6.333   5.312  18.779  0.00  0.00    +0.000 C 
ENDBRANCH   8  11
BRANCH   1  24
ATOM     19  C   UNL     1      -0.211  11.635  20.978  0.00  0.00    +0.000 C 
ATOM     20  C   UNL     1       0.621  10.867  19.993  0.00  0.00    +0.000 A 
ATOM     21  C   UNL     1       1.112  11.476  18.834  0.00  0.00    +0.000 A 
ATOM     22  C   UNL     1       1.884  10.745  17.930  0.00  0.00    +0.000 A 
ATOM     23  C   UNL     1       2.175   9.400  18.178  0.00  0.00    +0.000 A 
ATOM     24  C   UNL     1       1.705   8.769  19.336  0.00  0.00    +0.000 A 
ATOM     25  C   UNL     1       0.918   9.517  20.233  0.00  0.00    +0.000 A 
ENDBRANCH   1  24
TORSDOF 2
ENDMDL
MODEL 3
REMARK VINA RESULT:      -8.4      2.859      8.606
REMARK  Name = 
REMARK  6 active torsions:
REMARK  status: ('A' for Active; 'I' for Inactive)
REMARK    1  A    between atoms: C_1  and  C_2
REMARK    2  A    between atoms: C_6  and  C_7
REMARK    3  A    between atoms: C_11  and  C_12
REMARK    4  A    between atoms: C_14  and  N_15
REMARK    5  A    between atoms: C_17  and  C_18
REMARK    6  A    between atoms: C_20  and  C_21
REMARK                            x       y       z     vdW  Elec       q    Type
REMARK                         _______ _______ _______ _____ _____    ______ ____
ROOT
ATOM      1  C   UNL     1       1.555   8.052  20.025  0.00  0.00    +0.000 A 
ATOM      2  C   UNL     1       1.223   7.028  20.937  0.00  0.00    +0.000 A 
ATOM      3  C   UNL     1       1.966   5.934  20.579  0.00  0.00    +0.000 A 
ATOM      4  N   UNL     1       2.015   4.685  21.125  0.00  0.00    +0.000 NA
ATOM      5  C   UNL     1       2.824   3.845  20.561  0.00  0.00    +0.000 A 
ATOM      6  C   UNL     1       2.925   2.450  21.124  0.00  0.00    +0.000 C 
ATOM      7  C   UNL     1       3.690   4.148  19.386  0.00  0.00    +0.000 A 
ATOM      8  C   UNL     1       3.651   5.391  18.863  0.00  0.00    +0.000 A 
ATOM      9  N   UNL     1       2.744   6.323  19.476  0.00  0.00    +0.000 N 
ATOM     10  N   UNL     1       2.465   7.625  19.138  0.00  0.00    +0.000 NA
ENDROOT
BRANCH   8  11
ATOM     11  N   UNL     1       4.471   5.758  17.770  0.00  0.00    +0.000 N 
ATOM     12  C   UNL     1       5.352   6.937  17.783  0.00  0.00    +0.000 C 
ATOM     13  C   UNL     1       6.804   6.486  17.553  0.00  0.00    +0.000 C 
ATOM     14  C   UNL     1       7.756   7.678  17.562  0.00  0.00    +0.000 C 
ATOM     15  C   UNL     1       6.924   5.704  16.240  0.00  0.00    +0.000 C 
ATOM     16  C   UNL     1       5.948   4.519  16.226  0.00  0.00    +0.000 C 
ATOM     17  C   UNL     1       6.033   3.781  14.891  0.00  0.00    +0.000 C 
ATOM     18  C   UNL     1       4.518   5.007  16.501  0.00  0.00    +0.000 C 
ENDBRANCH   8  11
BRANCH   1  24
ATOM     19  C   UNL     1      -0.784  11.783  22.404  0.00  0.00    +0.000 C 
ATOM     20  C   UNL     1      -0.103  11.260  21.175  0.00  0.00    +0.000 A 
ATOM     21  C   UNL     1       0.078  12.070  20.049  0.00  0.00    +0.000 A 
ATOM     22  C   UNL     1       0.715  11.564  18.915  0.00  0.00    +0.000 A 
ATOM     23  C   UNL     1       1.181  10.247  18.896  0.00  0.00    +0.000 A 
ATOM     24  C   UNL     1       1.023   9.417  20.014  0.00  0.00    +0.000 A 
ATOM     25  C   UNL     1       0.369   9.938  21.146  0.00  0.00    +0.000 A 
ENDBRANCH   1  24
TORSDOF 2
ENDMDL
MODEL 4
REMARK VINA RESULT:      -8.3      2.402      8.423
REMARK  Name = 
REMARK  6 active torsions:
REMARK  status: ('A' for Active; 'I' for Inactive)
REMARK    1  A    between atoms: C_1  and  C_2
REMARK    2  A    between atoms: C_6  and  C_7
REMARK    3  A    between atoms: C_11  and  C_12
REMARK    4  A    between atoms: C_14  and  N_15
REMARK    5  A    between atoms: C_17  and  C_18
REMARK    6  A    between atoms: C_20  and  C_21
REMARK                            x       y       z     vdW  Elec       q    Type
REMARK                         _______ _______ _______ _____ _____    ______ ____
ROOT
ATOM      1  C   UNL     1       1.958   6.857  19.865  0.00  0.00    +0.000 A 
ATOM      2  C   UNL     1       1.654   5.574  20.369  0.00  0.00    +0.000 A 
ATOM      3  C   UNL     1       2.436   4.690  19.671  0.00  0.00    +0.000 A 
ATOM      4  N   UNL     1       2.523   3.332  19.760  0.00  0.00    +0.000 NA
ATOM      5  C   UNL     1       3.364   2.759  18.956  0.00  0.00    +0.000 A 
ATOM      6  C   UNL     1       3.509   1.260  19.012  0.00  0.00    +0.000 C 
ATOM      7  C   UNL     1       4.225   3.470  17.970  0.00  0.00    +0.000 A 
ATOM      8  C   UNL     1       4.148   4.816  17.901  0.00  0.00    +0.000 A 
ATOM      9  N   UNL     1       3.207   5.456  18.780  0.00  0.00    +0.000 N 
ATOM     10  N   UNL     1       2.886   6.786  18.901  0.00  0.00    +0.000 NA
ENDROOT
BRANCH   8  11
ATOM     11  N   UNL     1       4.961   5.558  17.012  0.00  0.00    +0.000 N 
ATOM     12  C   UNL     1       5.624   6.818  17.388  0.00  0.00    +0.000 C 
ATOM     13  C   UNL     1       7.143   6.661  17.210  0.00  0.00    +0.000 C 
ATOM     14  C   UNL     1       7.874   7.945  17.591  0.00  0.00    +0.000 C 
ATOM     15  C   UNL     1       7.480   6.250  15.773  0.00  0.00    +0.000 C 
ATOM     16  C   UNL     1       6.725   4.971  15.386  0.00  0.00    +0.000 C 
ATOM     17  C   UNL     1       7.021   4.602  13.934  0.00  0.00    +0.000 C 
ATOM     18  C   UNL     1       5.218   5.155  15.616  0.00  0.00    +0.000 C 
ENDBRANCH   8  11
BRANCH   1  24
ATOM     19  C   UNL     1      -0.118   9.607  23.497  0.00  0.00    +0.000 C 
ATOM     20  C   UNL     1       0.382   9.492  22.088  0.00  0.00    +0.000 A 
ATOM     21  C   UNL     1       0.354  10.589  21.220  0.00  0.00    +0.000 A 
ATOM     22  C   UNL     1       0.825  10.461  19.912  0.00  0.00    +0.000 A 
ATOM     23  C   UNL     1       1.330   9.239  19.461  0.00  0.00    +0.000 A 
ATOM     24  C   UNL     1       1.380   8.128  20.312  0.00  0.00    +0.000 A 
ATOM     25  C   UNL     1       0.892   8.269  21.624  0.00  0.00    +0.000 A 
ENDBRANCH   1  24
TORSDOF 2
ENDMDL
MODEL 5
REMARK VINA RESULT:      -8.2      2.391      8.286
REMARK  Name = 
REMARK  6 active torsions:
REMARK  status: ('A' for Active; 'I' for Inactive)
REMARK    1  A    between atoms: C_1  and  C_2
REMARK    2  A    between atoms: C_6  and  C_7
REMARK    3  A    between atoms: C_11  and  C_12
REMARK    4  A    between atoms: C_14  and  N_15
REMARK    5  A    between atoms: C_17  and  C_18
REMARK    6  A    between atoms: C_20  and  C_21
REMARK                            x       y       z     vdW  Elec       q    Type
REMARK                         _______ _______ _______ _____ _____    ______ ____
ROOT
ATOM      1  C   UNL     1       1.952   6.958  19.996  0.00  0.00    +0.000 A 
ATOM      2  C   UNL     1       1.614   5.681  20.492  0.00  0.00    +0.000 A 
ATOM      3  C   UNL     1       2.357   4.779  19.777  0.00  0.00    +0.000 A 
ATOM      4  N   UNL     1       2.402   3.418  19.853  0.00  0.00    +0.000 NA
ATOM      5  C   UNL     1       3.213   2.826  19.033  0.00  0.00    +0.000 A 
ATOM      6  C   UNL     1       3.310   1.322  19.074  0.00  0.00    +0.000 C 
ATOM      7  C   UNL     1       4.083   3.517  18.041  0.00  0.00    +0.000 A 
ATOM      8  C   UNL     1       4.048   4.865  17.985  0.00  0.00    +0.000 A 
ATOM      9  N   UNL     1       3.141   5.527  18.881  0.00  0.00    +0.000 N 
ATOM     10  N   UNL     1       2.864   6.865  19.018  0.00  0.00    +0.000 NA
ENDROOT
BRANCH   8  11
ATOM     11  N   UNL     1       4.873   5.588  17.090  0.00  0.00    +0.000 N 
ATOM     12  C   UNL     1       5.567   6.833  17.462  0.00  0.00    +0.000 C 
ATOM     13  C   UNL     1       7.081   6.642  17.276  0.00  0.00    +0.000 C 
ATOM     14  C   UNL     1       7.843   7.909  17.652  0.00  0.00    +0.000 C 
ATOM     15  C   UNL     1       7.400   6.223  15.836  0.00  0.00    +0.000 C 
ATOM     16  C   UNL     1       6.614   4.961  15.454  0.00  0.00    +0.000 C 
ATOM     17  C   UNL     1       6.892   4.585  14.000  0.00  0.00    +0.000 C 
ATOM     18  C   UNL     1       5.112   5.179  15.693  0.00  0.00    +0.000 C 
ENDBRANCH   8  11
BRANCH   1  24
ATOM     19  C   UNL     1       0.319  11.575  18.958  0.00  0.00    +0.000 C 
ATOM     20  C   UNL     1       0.599  10.498  19.964  0.00  0.00    +0.000 A 
ATOM     21  C   UNL     1       0.311  10.684  21.320  0.00  0.00    +0.000 A 
ATOM     22  C   UNL     1       0.579   9.670  22.240  0.00  0.00    +0.000 A 
ATOM     23  C   UNL     1       1.133   8.459  21.814  0.00  0.00    +0.000 A 
ATOM     24  C   UNL     1       1.421   8.243  20.461  0.00  0.00    +0.000 A 
ATOM     25  C   UNL     1       1.156   9.279  19.546  0.00  0.00    +0.000 A 
ENDBRANCH   1  24
TORSDOF 2
ENDMDL
MODEL 6
REMARK VINA RESULT:      -8.2      2.853      6.617
REMARK  Name = 
REMARK  6 active torsions:
REMARK  status: ('A' for Active; 'I' for Inactive)
REMARK    1  A    between atoms: C_1  and  C_2
REMARK    2  A    between atoms: C_6  and  C_7
REMARK    3  A    between atoms: C_11  and  C_12
REMARK    4  A    between atoms: C_14  and  N_15
REMARK    5  A    between atoms: C_17  and  C_18
REMARK    6  A    between atoms: C_20  and  C_21
REMARK                            x       y       z     vdW  Elec       q    Type
REMARK                         _______ _______ _______ _____ _____    ______ ____
ROOT
ATOM      1  C   UNL     1       3.113   7.433  17.831  0.00  0.00    +0.000 A 
ATOM      2  C   UNL     1       4.052   7.777  16.835  0.00  0.00    +0.000 A 
ATOM      3  C   UNL     1       4.662   6.609  16.459  0.00  0.00    +0.000 A 
ATOM      4  N   UNL     1       5.646   6.385  15.542  0.00  0.00    +0.000 NA
ATOM      5  C   UNL     1       6.028   5.155  15.401  0.00  0.00    +0.000 A 
ATOM      6  C   UNL     1       7.110   4.844  14.398  0.00  0.00    +0.000 C 
ATOM      7  C   UNL     1       5.473   3.994  16.154  0.00  0.00    +0.000 A 
ATOM      8  C   UNL     1       4.485   4.221  17.046  0.00  0.00    +0.000 A 
ATOM      9  N   UNL     1       4.067   5.585  17.216  0.00  0.00    +0.000 N 
ATOM     10  N   UNL     1       3.128   6.114  18.068  0.00  0.00    +0.000 NA
ENDROOT
BRANCH   8  11
ATOM     11  N   UNL     1       3.888   3.161  17.770  0.00  0.00    +0.000 N 
ATOM     12  C   UNL     1       4.625   2.330  18.736  0.00  0.00    +0.000 C 
ATOM     13  C   UNL     1       3.954   2.444  20.115  0.00  0.00    +0.000 C 
ATOM     14  C   UNL     1       4.688   1.599  21.152  0.00  0.00    +0.000 C 
ATOM     15  C   UNL     1       2.477   2.043  20.032  0.00  0.00    +0.000 C 
ATOM     16  C   UNL     1       1.749   2.879  18.972  0.00  0.00    +0.000 C 
ATOM     17  C   UNL     1       0.293   2.432  18.855  0.00  0.00    +0.000 C 
ATOM     18  C   UNL     1       2.473   2.771  17.621  0.00  0.00    +0.000 C 
ENDBRANCH   8  11
BRANCH   1  24
ATOM     19  C   UNL     1       0.659   8.721  22.000  0.00  0.00    +0.000 C 
ATOM     20  C   UNL     1       1.018   9.004  20.571  0.00  0.00    +0.000 A 
ATOM     21  C   UNL     1       0.548  10.149  19.922  0.00  0.00    +0.000 A 
ATOM     22  C   UNL     1       0.893  10.394  18.592  0.00  0.00    +0.000 A 
ATOM     23  C   UNL     1       1.714   9.499  17.900  0.00  0.00    +0.000 A 
ATOM     24  C   UNL     1       2.208   8.350  18.530  0.00  0.00    +0.000 A 
ATOM     25  C   UNL     1       1.842   8.111  19.868  0.00  0.00    +0.000 A 
ENDBRANCH   1  24
TORSDOF 2
ENDMDL
MODEL 7
REMARK VINA RESULT:      -8.2      3.004      8.382
REMARK  Name = 
REMARK  6 active torsions:
REMARK  status: ('A' for Active; 'I' for Inactive)
REMARK    1  A    between atoms: C_1  and  C_2
REMARK    2  A    between atoms: C_6  and  C_7
REMARK    3  A    between atoms: C_11  and  C_12
REMARK    4  A    between atoms: C_14  and  N_15
REMARK    5  A    between atoms: C_17  and  C_18
REMARK    6  A    between atoms: C_20  and  C_21
REMARK                            x       y       z     vdW  Elec       q    Type
REMARK                         _______ _______ _______ _____ _____    ______ ____
ROOT
ATOM      1  C   UNL     1       1.500   8.190  19.848  0.00  0.00    +0.000 A 
ATOM      2  C   UNL     1       1.145   7.200  20.789  0.00  0.00    +0.000 A 
ATOM      3  C   UNL     1       1.892   6.092  20.486  0.00  0.00    +0.000 A 
ATOM      4  N   UNL     1       1.926   4.864  21.078  0.00  0.00    +0.000 NA
ATOM      5  C   UNL     1       2.745   4.002  20.562  0.00  0.00    +0.000 A 
ATOM      6  C   UNL     1       2.830   2.628  21.176  0.00  0.00    +0.000 C 
ATOM      7  C   UNL     1       3.637   4.261  19.396  0.00  0.00    +0.000 A 
ATOM      8  C   UNL     1       3.612   5.485  18.828  0.00  0.00    +0.000 A 
ATOM      9  N   UNL     1       2.696   6.440  19.387  0.00  0.00    +0.000 N 
ATOM     10  N   UNL     1       2.427   7.729  18.996  0.00  0.00    +0.000 NA
ENDROOT
BRANCH   8  11
ATOM     11  N   UNL     1       4.457   5.810  17.740  0.00  0.00    +0.000 N 
ATOM     12  C   UNL     1       5.317   7.005  17.717  0.00  0.00    +0.000 C 
ATOM     13  C   UNL     1       6.782   6.569  17.550  0.00  0.00    +0.000 C 
ATOM     14  C   UNL     1       7.713   7.778  17.524  0.00  0.00    +0.000 C 
ATOM     15  C   UNL     1       6.954   5.723  16.283  0.00  0.00    +0.000 C 
ATOM     16  C   UNL     1       5.999   4.522  16.304  0.00  0.00    +0.000 C 
ATOM     17  C   UNL     1       6.134   3.718  15.012  0.00  0.00    +0.000 C 
ATOM     18  C   UNL     1       4.553   4.996  16.513  0.00  0.00    +0.000 C 
ENDBRANCH   8  11
BRANCH   1  24
ATOM     19  C   UNL     1       1.931  12.896  18.198  0.00  0.00    +0.000 C 
ATOM     20  C   UNL     1       1.160  11.858  18.957  0.00  0.00    +0.000 A 
ATOM     21  C   UNL     1      -0.073  12.160  19.545  0.00  0.00    +0.000 A 
ATOM     22  C   UNL     1      -0.775  11.180  20.247  0.00  0.00    +0.000 A 
ATOM     23  C   UNL     1      -0.255   9.888  20.365  0.00  0.00    +0.000 A 
ATOM     24  C   UNL     1       0.972   9.555  19.777  0.00  0.00    +0.000 A 
ATOM     25  C   UNL     1       1.673  10.557  19.081  0.00  0.00    +0.000 A 
ENDBRANCH   1  24
TORSDOF 2
ENDMDL
MODEL 8
REMARK VINA RESULT:      -8.1      0.331      1.371
REMARK  Name = 
REMARK  6 active torsions:
REMARK  status: ('A' for Active; 'I' for Inactive)
REMARK    1  A    between atoms: C_1  and  C_2
REMARK    2  A    between atoms: C_6  and  C_7
REMARK    3  A    between atoms: C_11  and  C_12
REMARK    4  A    between atoms: C_14  and  N_15
REMARK    5  A    between atoms: C_17  and  C_18
REMARK    6  A    between atoms: C_20  and  C_21
REMARK                            x       y       z     vdW  Elec       q    Type
REMARK                         _______ _______ _______ _____ _____    ______ ____
ROOT
ATOM      1  C   UNL     1       5.683   4.345  14.166  0.00  0.00    +0.000 A 
ATOM      2  C   UNL     1       6.923   4.936  14.486  0.00  0.00    +0.000 A 
ATOM      3  C   UNL     1       6.783   5.477  15.737  0.00  0.00    +0.000 A 
ATOM      4  N   UNL     1       7.675   6.167  16.504  0.00  0.00    +0.000 NA
ATOM      5  C   UNL     1       7.249   6.562  17.663  0.00  0.00    +0.000 A 
ATOM      6  C   UNL     1       8.193   7.325  18.557  0.00  0.00    +0.000 C 
ATOM      7  C   UNL     1       5.883   6.313  18.202  0.00  0.00    +0.000 A 
ATOM      8  C   UNL     1       5.011   5.613  17.446  0.00  0.00    +0.000 A 
ATOM      9  N   UNL     1       5.473   5.185  16.155  0.00  0.00    +0.000 N 
ATOM     10  N   UNL     1       4.805   4.503  15.167  0.00  0.00    +0.000 NA
ENDROOT
BRANCH   8  11
ATOM     11  N   UNL     1       3.709   5.311  17.911  0.00  0.00    +0.000 N 
ATOM     12  C   UNL     1       3.104   3.973  17.798  0.00  0.00    +0.000 C 
ATOM     13  C   UNL     1       2.742   3.463  19.203  0.00  0.00    +0.000 C 
ATOM     14  C   UNL     1       2.113   2.075  19.136  0.00  0.00    +0.000 C 
ATOM     15  C   UNL     1       1.808   4.450  19.912  0.00  0.00    +0.000 C 
ATOM     16  C   UNL     1       2.435   5.850  19.957  0.00  0.00    +0.000 C 
ATOM     17  C   UNL     1       1.473   6.839  20.613  0.00  0.00    +0.000 C 
ATOM     18  C   UNL     1       2.819   6.305  18.541  0.00  0.00    +0.000 C 
ENDBRANCH   8  11
BRANCH   1  24
ATOM     19  C   UNL     1       6.672   0.664  10.921  0.00  0.00    +0.000 C 
ATOM     20  C   UNL     1       5.811   1.817  11.346  0.00  0.00    +0.000 A 
ATOM     21  C   UNL     1       4.675   2.178  10.614  0.00  0.00    +0.000 A 
ATOM     22  C   UNL     1       3.887   3.253  11.026  0.00  0.00    +0.000 A 
ATOM     23  C   UNL     1       4.224   3.975  12.174  0.00  0.00    +0.000 A 
ATOM     24  C   UNL     1       5.351   3.628  12.931  0.00  0.00    +0.000 A 
ATOM     25  C   UNL     1       6.142   2.548  12.497  0.00  0.00    +0.000 A 
ENDBRANCH   1  24
TORSDOF 2
ENDMDL
MODEL 9
REMARK VINA RESULT:      -8.1      2.955      8.391
REMARK  Name = 
REMARK  6 active torsions:
REMARK  status: ('A' for Active; 'I' for Inactive)
REMARK    1  A    between atoms: C_1  and  C_2
REMARK    2  A    between atoms: C_6  and  C_7
REMARK    3  A    between atoms: C_11  and  C_12
REMARK    4  A    between atoms: C_14  and  N_15
REMARK    5  A    between atoms: C_17  and  C_18
REMARK    6  A    between atoms: C_20  and  C_21
REMARK                            x       y       z     vdW  Elec       q    Type
REMARK                         _______ _______ _______ _____ _____    ______ ____
ROOT
ATOM      1  C   UNL     1       1.457   8.152  19.956  0.00  0.00    +0.000 A 
ATOM      2  C   UNL     1       1.131   7.143  20.887  0.00  0.00    +0.000 A 
ATOM      3  C   UNL     1       1.894   6.053  20.559  0.00  0.00    +0.000 A 
ATOM      4  N   UNL     1       1.957   4.817  21.132  0.00  0.00    +0.000 NA
ATOM      5  C   UNL     1       2.784   3.978  20.594  0.00  0.00    +0.000 A 
ATOM      6  C   UNL     1       2.901   2.597  21.187  0.00  0.00    +0.000 C 
ATOM      7  C   UNL     1       3.657   4.268  19.421  0.00  0.00    +0.000 A 
ATOM      8  C   UNL     1       3.604   5.500  18.871  0.00  0.00    +0.000 A 
ATOM      9  N   UNL     1       2.678   6.430  19.455  0.00  0.00    +0.000 N 
ATOM     10  N   UNL     1       2.382   7.720  19.086  0.00  0.00    +0.000 NA
ENDROOT
BRANCH   8  11
ATOM     11  N   UNL     1       4.429   5.855  17.778  0.00  0.00    +0.000 N 
ATOM     12  C   UNL     1       5.295   7.046  17.776  0.00  0.00    +0.000 C 
ATOM     13  C   UNL     1       6.754   6.609  17.567  0.00  0.00    +0.000 C 
ATOM     14  C   UNL     1       7.691   7.813  17.560  0.00  0.00    +0.000 C 
ATOM     15  C   UNL     1       6.896   5.803  16.270  0.00  0.00    +0.000 C 
ATOM     16  C   UNL     1       5.936   4.606  16.271  0.00  0.00    +0.000 C 
ATOM     17  C   UNL     1       6.041   3.842  14.952  0.00  0.00    +0.000 C 
ATOM     18  C   UNL     1       4.497   5.080  16.524  0.00  0.00    +0.000 C 
ENDBRANCH   8  11
BRANCH   1  24
ATOM     19  C   UNL     1      -1.523  11.519  17.756  0.00  0.00    +0.000 C 
ATOM     20  C   UNL     1      -0.568  11.161  18.856  0.00  0.00    +0.000 A 
ATOM     21  C   UNL     1      -0.245  12.079  19.860  0.00  0.00    +0.000 A 
ATOM     22  C   UNL     1       0.646  11.726  20.874  0.00  0.00    +0.000 A 
ATOM     23  C   UNL     1       1.219  10.451  20.898  0.00  0.00    +0.000 A 
ATOM     24  C   UNL     1       0.904   9.509  19.910  0.00  0.00    +0.000 A 
ATOM     25  C   UNL     1       0.013   9.883  18.888  0.00  0.00    +0.000 A 
ENDBRANCH   1  24
TORSDOF 2
ENDMDL
