MODEL 1
REMARK VINA RESULT:      -7.1      0.000      0.000
REMARK  Name = 
REMARK  5 active torsions:
REMARK  status: ('A' for Active; 'I' for Inactive)
REMARK    1  A    between atoms: C_2  and  C_3
REMARK    2  A    between atoms: C_3  and  S_4
REMARK    3  A    between atoms: N_5  and  C_6
REMARK    4  A    between atoms: C_6  and  C_7
REMARK    5  A    between atoms: C_7  and  C_8
REMARK                            x       y       z     vdW  Elec       q    Type
REMARK                         _______ _______ _______ _____ _____    ______ ____
ROOT
ATOM      1  C   UNL     1       3.698   6.027  18.251  0.00  0.00    +0.000 C 
ENDROOT
BRANCH   1   2
ATOM      2  C   UNL     1       3.146   4.632  18.682  0.00  0.00    +0.000 C 
ATOM      3  C   UNL     1       4.212   3.843  19.504  0.00  0.00    +0.000 C 
ATOM      4  C   UNL     1       3.645   2.482  19.949  0.00  0.00    +0.000 C 
ATOM      5  C   UNL     1       2.403   2.708  20.834  0.00  0.00    +0.000 C 
ATOM      6  C   UNL     1       1.329   3.469  20.029  0.00  0.00    +0.000 C 
ATOM      7  C   UNL     1       0.931   2.639  18.790  0.00  0.00    +0.000 C 
ATOM      8  C   UNL     1       2.172   2.418  17.900  0.00  0.00    +0.000 C 
ATOM      9  C   UNL     1       3.254   1.660  18.700  0.00  0.00    +0.000 C 
ATOM     10  C   UNL     1       2.732   3.783  17.443  0.00  0.00    +0.000 C 
ATOM     11  C   UNL     1       1.893   4.837  19.578  0.00  0.00    +0.000 C 
ENDBRANCH   1   2
BRANCH   1  12
ATOM     12  C   UNL     1       4.612   5.999  17.012  0.00  0.00    +0.000 C 
BRANCH  12  15
ATOM     13  N   UNL     1       7.875   4.292  17.076  0.00  0.00    +0.000 NA
ATOM     14  C   UNL     1       6.653   4.504  16.727  0.00  0.00    +0.000 C 
ATOM     15  N   UNL     1       5.951   5.573  17.373  0.00  0.00    +0.000 N 
ATOM     16  H   UNL     1       8.470   3.557  16.673  0.00  0.00    +0.000 HD
ATOM     17  H   UNL     1       6.432   6.095  18.120  0.00  0.00    +0.000 HD
BRANCH  14  18
ATOM     18  C   UNL     1       5.963   3.650  15.667  0.00  0.00    +0.000 C 
BRANCH  18  19
ATOM     19  S   UNL     1       6.288   4.111  13.932  0.00  0.00    +0.000 S 
ATOM     20  H   UNL     1       5.732   5.394  14.101  0.00  0.00    +0.000 HD
ENDBRANCH  18  19
ENDBRANCH  14  18
ENDBRANCH  12  15
ENDBRANCH   1  12
TORSDOF 5
ENDMDL
MODEL 2
REMARK VINA RESULT:      -7.1      1.059      1.955
REMARK  Name = 
REMARK  5 active torsions:
REMARK  status: ('A' for Active; 'I' for Inactive)
REMARK    1  A    between atoms: C_2  and  C_3
REMARK    2  A    between atoms: C_3  and  S_4
REMARK    3  A    between atoms: N_5  and  C_6
REMARK    4  A    between atoms: C_6  and  C_7
REMARK    5  A    between atoms: C_7  and  C_8
REMARK                            x       y       z     vdW  Elec       q    Type
REMARK                         _______ _______ _______ _____ _____    ______ ____
ROOT
ATOM      1  C   UNL     1       3.375   6.227  18.486  0.00  0.00    +0.000 C 
ENDROOT
BRANCH   1   2
ATOM      2  C   UNL     1       2.849   4.870  19.049  0.00  0.00    +0.000 C 
ATOM      3  C   UNL     1       1.982   5.099  20.326  0.00  0.00    +0.000 C 
ATOM      4  C   UNL     1       1.443   3.757  20.854  0.00  0.00    +0.000 C 
ATOM      5  C   UNL     1       0.569   3.092  19.772  0.00  0.00    +0.000 C 
ATOM      6  C   UNL     1       1.417   2.839  18.508  0.00  0.00    +0.000 C 
ATOM      7  C   UNL     1       2.595   1.906  18.859  0.00  0.00    +0.000 C 
ATOM      8  C   UNL     1       3.476   2.572  19.937  0.00  0.00    +0.000 C 
ATOM      9  C   UNL     1       2.632   2.833  21.205  0.00  0.00    +0.000 C 
ATOM     10  C   UNL     1       4.026   3.912  19.402  0.00  0.00    +0.000 C 
ATOM     11  C   UNL     1       1.962   4.185  17.973  0.00  0.00    +0.000 C 
ENDBRANCH   1   2
BRANCH   1  12
ATOM     12  C   UNL     1       4.167   6.111  17.170  0.00  0.00    +0.000 C 
BRANCH  12  15
ATOM     13  N   UNL     1       7.709   7.088  16.916  0.00  0.00    +0.000 NA
ATOM     14  C   UNL     1       6.690   6.300  16.885  0.00  0.00    +0.000 C 
ATOM     15  N   UNL     1       5.417   6.842  17.257  0.00  0.00    +0.000 N 
ATOM     16  H   UNL     1       8.664   6.804  16.663  0.00  0.00    +0.000 HD
ATOM     17  H   UNL     1       5.375   7.820  17.580  0.00  0.00    +0.000 HD
BRANCH  14  18
ATOM     18  C   UNL     1       6.821   4.837  16.472  0.00  0.00    +0.000 C 
BRANCH  18  19
ATOM     19  S   UNL     1       6.618   4.486  14.693  0.00  0.00    +0.000 S 
ATOM     20  H   UNL     1       5.466   3.707  14.912  0.00  0.00    +0.000 HD
ENDBRANCH  18  19
ENDBRANCH  14  18
ENDBRANCH  12  15
ENDBRANCH   1  12
TORSDOF 5
ENDMDL
MODEL 3
REMARK VINA RESULT:      -7.1      1.087      2.293
REMARK  Name = 
REMARK  5 active torsions:
REMARK  status: ('A' for Active; 'I' for Inactive)
REMARK    1  A    between atoms: C_2  and  C_3
REMARK    2  A    between atoms: C_3  and  S_4
REMARK    3  A    between atoms: N_5  and  C_6
REMARK    4  A    between atoms: C_6  and  C_7
REMARK    5  A    between atoms: C_7  and  C_8
REMARK                            x       y       z     vdW  Elec       q    Type
REMARK                         _______ _______ _______ _____ _____    ______ ____
ROOT
ATOM      1  C   UNL     1       3.309   6.216  18.346  0.00  0.00    +0.000 C 
ENDROOT
BRANCH   1   2
ATOM      2  C   UNL     1       2.762   4.886  18.952  0.00  0.00    +0.000 C 
ATOM      3  C   UNL     1       1.873   4.129  17.917  0.00  0.00    +0.000 C 
ATOM      4  C   UNL     1       1.365   2.804  18.515  0.00  0.00    +0.000 C 
ATOM      5  C   UNL     1       2.567   1.912  18.883  0.00  0.00    +0.000 C 
ATOM      6  C   UNL     1       3.447   2.637  19.923  0.00  0.00    +0.000 C 
ATOM      7  C   UNL     1       2.614   2.923  21.191  0.00  0.00    +0.000 C 
ATOM      8  C   UNL     1       1.414   3.821  20.826  0.00  0.00    +0.000 C 
ATOM      9  C   UNL     1       0.530   3.104  19.781  0.00  0.00    +0.000 C 
ATOM     10  C   UNL     1       1.924   5.155  20.238  0.00  0.00    +0.000 C 
ATOM     11  C   UNL     1       3.960   3.970  19.328  0.00  0.00    +0.000 C 
ENDBRANCH   1   2
BRANCH   1  12
ATOM     12  C   UNL     1       4.219   6.034  17.117  0.00  0.00    +0.000 C 
BRANCH  12  15
ATOM     13  N   UNL     1       7.717   7.179  16.984  0.00  0.00    +0.000 NA
ATOM     14  C   UNL     1       6.737   6.345  16.908  0.00  0.00    +0.000 C 
ATOM     15  N   UNL     1       5.430   6.820  17.254  0.00  0.00    +0.000 N 
ATOM     16  H   UNL     1       8.691   6.945  16.753  0.00  0.00    +0.000 HD
ATOM     17  H   UNL     1       5.334   7.788  17.595  0.00  0.00    +0.000 HD
BRANCH  14  18
ATOM     18  C   UNL     1       6.947   4.899  16.470  0.00  0.00    +0.000 C 
BRANCH  18  19
ATOM     19  S   UNL     1       6.699   4.555  14.695  0.00  0.00    +0.000 S 
ATOM     20  H   UNL     1       7.926   5.151  14.343  0.00  0.00    +0.000 HD
ENDBRANCH  18  19
ENDBRANCH  14  18
ENDBRANCH  12  15
ENDBRANCH   1  12
TORSDOF 5
ENDMDL
MODEL 4
REMARK VINA RESULT:      -7.0      0.323      1.923
REMARK  Name = 
REMARK  5 active torsions:
REMARK  status: ('A' for Active; 'I' for Inactive)
REMARK    1  A    between atoms: C_2  and  C_3
REMARK    2  A    between atoms: C_3  and  S_4
REMARK    3  A    between atoms: N_5  and  C_6
REMARK    4  A    between atoms: C_6  and  C_7
REMARK    5  A    between atoms: C_7  and  C_8
REMARK                            x       y       z     vdW  Elec       q    Type
REMARK                         _______ _______ _______ _____ _____    ______ ____
ROOT
ATOM      1  C   UNL     1       3.752   6.110  18.611  0.00  0.00    +0.000 C 
ENDROOT
BRANCH   1   2
ATOM      2  C   UNL     1       3.063   4.760  18.979  0.00  0.00    +0.000 C 
ATOM      3  C   UNL     1       2.491   4.063  17.706  0.00  0.00    +0.000 C 
ATOM      4  C   UNL     1       1.841   2.717  18.077  0.00  0.00    +0.000 C 
ATOM      5  C   UNL     1       2.898   1.795  18.717  0.00  0.00    +0.000 C 
ATOM      6  C   UNL     1       3.459   2.461  19.991  0.00  0.00    +0.000 C 
ATOM      7  C   UNL     1       2.311   2.696  20.995  0.00  0.00    +0.000 C 
ATOM      8  C   UNL     1       1.255   3.625  20.360  0.00  0.00    +0.000 C 
ATOM      9  C   UNL     1       0.691   2.967  19.081  0.00  0.00    +0.000 C 
ATOM     10  C   UNL     1       1.905   4.978  19.999  0.00  0.00    +0.000 C 
ATOM     11  C   UNL     1       4.113   3.814  19.624  0.00  0.00    +0.000 C 
ENDBRANCH   1   2
BRANCH   1  12
ATOM     12  C   UNL     1       4.560   6.080  17.300  0.00  0.00    +0.000 C 
BRANCH  12  15
ATOM     13  N   UNL     1       7.827   4.393  17.089  0.00  0.00    +0.000 NA
ATOM     14  C   UNL     1       6.580   4.601  16.839  0.00  0.00    +0.000 C 
ATOM     15  N   UNL     1       5.926   5.659  17.549  0.00  0.00    +0.000 N 
ATOM     16  H   UNL     1       8.392   3.666  16.632  0.00  0.00    +0.000 HD
ATOM     17  H   UNL     1       6.461   6.177  18.263  0.00  0.00    +0.000 HD
BRANCH  14  18
ATOM     18  C   UNL     1       5.814   3.754  15.827  0.00  0.00    +0.000 C 
BRANCH  18  19
ATOM     19  S   UNL     1       6.211   4.049  14.071  0.00  0.00    +0.000 S 
ATOM     20  H   UNL     1       6.446   2.682  13.829  0.00  0.00    +0.000 HD
ENDBRANCH  18  19
ENDBRANCH  14  18
ENDBRANCH  12  15
ENDBRANCH   1  12
TORSDOF 5
ENDMDL
MODEL 5
REMARK VINA RESULT:      -7.0      1.067      1.487
REMARK  Name = 
REMARK  5 active torsions:
REMARK  status: ('A' for Active; 'I' for Inactive)
REMARK    1  A    between atoms: C_2  and  C_3
REMARK    2  A    between atoms: C_3  and  S_4
REMARK    3  A    between atoms: N_5  and  C_6
REMARK    4  A    between atoms: C_6  and  C_7
REMARK    5  A    between atoms: C_7  and  C_8
REMARK                            x       y       z     vdW  Elec       q    Type
REMARK                         _______ _______ _______ _____ _____    ______ ____
ROOT
ATOM      1  C   UNL     1       3.903   5.296  17.402  0.00  0.00    +0.000 C 
ENDROOT
BRANCH   1   2
ATOM      2  C   UNL     1       3.119   4.403  18.413  0.00  0.00    +0.000 C 
ATOM      3  C   UNL     1       3.161   5.020  19.846  0.00  0.00    +0.000 C 
ATOM      4  C   UNL     1       2.358   4.147  20.828  0.00  0.00    +0.000 C 
ATOM      5  C   UNL     1       0.890   4.068  20.364  0.00  0.00    +0.000 C 
ATOM      6  C   UNL     1       0.829   3.440  18.955  0.00  0.00    +0.000 C 
ATOM      7  C   UNL     1       1.429   2.018  19.000  0.00  0.00    +0.000 C 
ATOM      8  C   UNL     1       2.901   2.096  19.458  0.00  0.00    +0.000 C 
ATOM      9  C   UNL     1       2.971   2.728  20.866  0.00  0.00    +0.000 C 
ATOM     10  C   UNL     1       3.707   2.962  18.466  0.00  0.00    +0.000 C 
ATOM     11  C   UNL     1       1.634   4.312  17.964  0.00  0.00    +0.000 C 
ENDBRANCH   1   2
BRANCH   1  12
ATOM     12  C   UNL     1       5.085   6.071  18.014  0.00  0.00    +0.000 C 
BRANCH  12  15
ATOM     13  N   UNL     1       8.170   4.104  17.593  0.00  0.00    +0.000 NA
ATOM     14  C   UNL     1       7.157   4.815  17.233  0.00  0.00    +0.000 C 
ATOM     15  N   UNL     1       6.213   5.188  18.243  0.00  0.00    +0.000 N 
ATOM     16  H   UNL     1       8.909   3.788  16.951  0.00  0.00    +0.000 HD
ATOM     17  H   UNL     1       6.353   4.834  19.202  0.00  0.00    +0.000 HD
BRANCH  14  18
ATOM     18  C   UNL     1       6.956   5.248  15.784  0.00  0.00    +0.000 C 
BRANCH  18  19
ATOM     19  S   UNL     1       6.255   3.992  14.662  0.00  0.00    +0.000 S 
ATOM     20  H   UNL     1       5.348   4.909  14.098  0.00  0.00    +0.000 HD
ENDBRANCH  18  19
ENDBRANCH  14  18
ENDBRANCH  12  15
ENDBRANCH   1  12
TORSDOF 5
ENDMDL
MODEL 6
REMARK VINA RESULT:      -7.0      1.069      1.313
REMARK  Name = 
REMARK  5 active torsions:
REMARK  status: ('A' for Active; 'I' for Inactive)
REMARK    1  A    between atoms: C_2  and  C_3
REMARK    2  A    between atoms: C_3  and  S_4
REMARK    3  A    between atoms: N_5  and  C_6
REMARK    4  A    between atoms: C_6  and  C_7
REMARK    5  A    between atoms: C_7  and  C_8
REMARK                            x       y       z     vdW  Elec       q    Type
REMARK                         _______ _______ _______ _____ _____    ______ ____
ROOT
ATOM      1  C   UNL     1       3.884   5.215  17.343  0.00  0.00    +0.000 C 
ENDROOT
BRANCH   1   2
ATOM      2  C   UNL     1       3.084   4.344  18.360  0.00  0.00    +0.000 C 
ATOM      3  C   UNL     1       3.716   2.924  18.494  0.00  0.00    +0.000 C 
ATOM      4  C   UNL     1       2.937   2.085  19.523  0.00  0.00    +0.000 C 
ATOM      5  C   UNL     1       2.985   2.782  20.897  0.00  0.00    +0.000 C 
ATOM      6  C   UNL     1       2.343   4.181  20.788  0.00  0.00    +0.000 C 
ATOM      7  C   UNL     1       0.873   4.038  20.338  0.00  0.00    +0.000 C 
ATOM      8  C   UNL     1       0.823   3.346  18.959  0.00  0.00    +0.000 C 
ATOM      9  C   UNL     1       1.468   1.946  19.059  0.00  0.00    +0.000 C 
ATOM     10  C   UNL     1       1.595   4.195  17.925  0.00  0.00    +0.000 C 
ATOM     11  C   UNL     1       3.122   5.029  19.755  0.00  0.00    +0.000 C 
ENDBRANCH   1   2
BRANCH   1  12
ATOM     12  C   UNL     1       5.055   6.005  17.958  0.00  0.00    +0.000 C 
BRANCH  12  15
ATOM     13  N   UNL     1       8.179   4.081  17.640  0.00  0.00    +0.000 NA
ATOM     14  C   UNL     1       7.175   4.788  17.249  0.00  0.00    +0.000 C 
ATOM     15  N   UNL     1       6.181   5.131  18.222  0.00  0.00    +0.000 N 
ATOM     16  H   UNL     1       8.950   3.787  17.027  0.00  0.00    +0.000 HD
ATOM     17  H   UNL     1       6.283   4.759  19.179  0.00  0.00    +0.000 HD
BRANCH  14  18
ATOM     18  C   UNL     1       7.035   5.248  15.800  0.00  0.00    +0.000 C 
BRANCH  18  19
ATOM     19  S   UNL     1       6.272   4.053  14.651  0.00  0.00    +0.000 S 
ATOM     20  H   UNL     1       5.022   4.698  14.710  0.00  0.00    +0.000 HD
ENDBRANCH  18  19
ENDBRANCH  14  18
ENDBRANCH  12  15
ENDBRANCH   1  12
TORSDOF 5
ENDMDL
MODEL 7
REMARK VINA RESULT:      -7.0      1.088      2.265
REMARK  Name = 
REMARK  5 active torsions:
REMARK  status: ('A' for Active; 'I' for Inactive)
REMARK    1  A    between atoms: C_2  and  C_3
REMARK    2  A    between atoms: C_3  and  S_4
REMARK    3  A    between atoms: N_5  and  C_6
REMARK    4  A    between atoms: C_6  and  C_7
REMARK    5  A    between atoms: C_7  and  C_8
REMARK                            x       y       z     vdW  Elec       q    Type
REMARK                         _______ _______ _______ _____ _____    ______ ____
ROOT
ATOM      1  C   UNL     1       3.884   5.098  17.258  0.00  0.00    +0.000 C 
ENDROOT
BRANCH   1   2
ATOM      2  C   UNL     1       3.057   4.305  18.318  0.00  0.00    +0.000 C 
ATOM      3  C   UNL     1       1.556   4.223  17.903  0.00  0.00    +0.000 C 
ATOM      4  C   UNL     1       0.757   3.412  18.940  0.00  0.00    +0.000 C 
ATOM      5  C   UNL     1       1.328   1.983  19.025  0.00  0.00    +0.000 C 
ATOM      6  C   UNL     1       2.809   2.044  19.455  0.00  0.00    +0.000 C 
ATOM      7  C   UNL     1       2.913   2.720  20.839  0.00  0.00    +0.000 C 
ATOM      8  C   UNL     1       2.349   4.153  20.754  0.00  0.00    +0.000 C 
ATOM      9  C   UNL     1       0.867   4.101  20.320  0.00  0.00    +0.000 C 
ATOM     10  C   UNL     1       3.158   4.970  19.723  0.00  0.00    +0.000 C 
ATOM     11  C   UNL     1       3.616   2.858  18.417  0.00  0.00    +0.000 C 
ENDBRANCH   1   2
BRANCH   1  12
ATOM     12  C   UNL     1       5.032   5.943  17.841  0.00  0.00    +0.000 C 
BRANCH  12  15
ATOM     13  N   UNL     1       8.215   4.102  17.643  0.00  0.00    +0.000 NA
ATOM     14  C   UNL     1       7.201   4.769  17.211  0.00  0.00    +0.000 C 
ATOM     15  N   UNL     1       6.175   5.108  18.153  0.00  0.00    +0.000 N 
ATOM     16  H   UNL     1       9.008   3.814  17.055  0.00  0.00    +0.000 HD
ATOM     17  H   UNL     1       6.265   4.764  19.121  0.00  0.00    +0.000 HD
BRANCH  14  18
ATOM     18  C   UNL     1       7.082   5.188  15.749  0.00  0.00    +0.000 C 
BRANCH  18  19
ATOM     19  S   UNL     1       6.241   4.005  14.643  0.00  0.00    +0.000 S 
ATOM     20  H   UNL     1       6.852   2.896  15.260  0.00  0.00    +0.000 HD
ENDBRANCH  18  19
ENDBRANCH  14  18
ENDBRANCH  12  15
ENDBRANCH   1  12
TORSDOF 5
ENDMDL
MODEL 8
REMARK VINA RESULT:      -7.0      1.474      2.624
REMARK  Name = 
REMARK  5 active torsions:
REMARK  status: ('A' for Active; 'I' for Inactive)
REMARK    1  A    between atoms: C_2  and  C_3
REMARK    2  A    between atoms: C_3  and  S_4
REMARK    3  A    between atoms: N_5  and  C_6
REMARK    4  A    between atoms: C_6  and  C_7
REMARK    5  A    between atoms: C_7  and  C_8
REMARK                            x       y       z     vdW  Elec       q    Type
REMARK                         _______ _______ _______ _____ _____    ______ ____
ROOT
ATOM      1  C   UNL     1       5.565   5.419  17.310  0.00  0.00    +0.000 C 
ENDROOT
BRANCH   1   2
ATOM      2  C   UNL     1       4.349   4.691  17.963  0.00  0.00    +0.000 C 
ATOM      3  C   UNL     1       3.249   5.714  18.383  0.00  0.00    +0.000 C 
ATOM      4  C   UNL     1       2.042   4.982  18.997  0.00  0.00    +0.000 C 
ATOM      5  C   UNL     1       1.447   4.011  17.958  0.00  0.00    +0.000 C 
ATOM      6  C   UNL     1       2.516   2.977  17.547  0.00  0.00    +0.000 C 
ATOM      7  C   UNL     1       2.967   2.183  18.792  0.00  0.00    +0.000 C 
ATOM      8  C   UNL     1       3.569   3.152  19.830  0.00  0.00    +0.000 C 
ATOM      9  C   UNL     1       2.505   4.193  20.244  0.00  0.00    +0.000 C 
ATOM     10  C   UNL     1       4.787   3.877  19.218  0.00  0.00    +0.000 C 
ATOM     11  C   UNL     1       3.732   3.708  16.930  0.00  0.00    +0.000 C 
ENDBRANCH   1   2
BRANCH   1  12
ATOM     12  C   UNL     1       6.733   4.494  16.921  0.00  0.00    +0.000 C 
BRANCH  12  15
ATOM     13  N   UNL     1       7.890   5.565  13.593  0.00  0.00    +0.000 NA
ATOM     14  C   UNL     1       7.179   4.918  14.451  0.00  0.00    +0.000 C 
ATOM     15  N   UNL     1       7.505   5.071  15.838  0.00  0.00    +0.000 N 
ATOM     16  H   UNL     1       7.737   5.532  12.577  0.00  0.00    +0.000 HD
ATOM     17  H   UNL     1       8.321   5.649  16.089  0.00  0.00    +0.000 HD
BRANCH  14  18
ATOM     18  C   UNL     1       6.028   4.014  14.019  0.00  0.00    +0.000 C 
BRANCH  18  19
ATOM     19  S   UNL     1       6.150   3.310  12.340  0.00  0.00    +0.000 S 
ATOM     20  H   UNL     1       4.762   3.083  12.265  0.00  0.00    +0.000 HD
ENDBRANCH  18  19
ENDBRANCH  14  18
ENDBRANCH  12  15
ENDBRANCH   1  12
TORSDOF 5
ENDMDL
MODEL 9
REMARK VINA RESULT:      -6.9      1.295      1.381
REMARK  Name = 
REMARK  5 active torsions:
REMARK  status: ('A' for Active; 'I' for Inactive)
REMARK    1  A    between atoms: C_2  and  C_3
REMARK    2  A    between atoms: C_3  and  S_4
REMARK    3  A    between atoms: N_5  and  C_6
REMARK    4  A    between atoms: C_6  and  C_7
REMARK    5  A    between atoms: C_7  and  C_8
REMARK                            x       y       z     vdW  Elec       q    Type
REMARK                         _______ _______ _______ _____ _____    ______ ____
ROOT
ATOM      1  C   UNL     1       5.045   5.649  17.723  0.00  0.00    +0.000 C 
ENDROOT
BRANCH   1   2
ATOM      2  C   UNL     1       4.056   4.561  18.245  0.00  0.00    +0.000 C 
ATOM      3  C   UNL     1       4.759   3.617  19.270  0.00  0.00    +0.000 C 
ATOM      4  C   UNL     1       3.765   2.568  19.801  0.00  0.00    +0.000 C 
ATOM      5  C   UNL     1       2.593   3.281  20.504  0.00  0.00    +0.000 C 
ATOM      6  C   UNL     1       1.872   4.203  19.498  0.00  0.00    +0.000 C 
ATOM      7  C   UNL     1       1.329   3.359  18.326  0.00  0.00    +0.000 C 
ATOM      8  C   UNL     1       2.501   2.650  17.616  0.00  0.00    +0.000 C 
ATOM      9  C   UNL     1       3.231   1.728  18.618  0.00  0.00    +0.000 C 
ATOM     10  C   UNL     1       3.491   3.703  17.073  0.00  0.00    +0.000 C 
ATOM     11  C   UNL     1       2.866   5.259  18.961  0.00  0.00    +0.000 C 
ENDBRANCH   1   2
BRANCH   1  12
ATOM     12  C   UNL     1       4.951   5.928  16.211  0.00  0.00    +0.000 C 
BRANCH  12  15
ATOM     13  N   UNL     1       7.945   5.418  14.127  0.00  0.00    +0.000 NA
ATOM     14  C   UNL     1       6.793   5.147  14.637  0.00  0.00    +0.000 C 
ATOM     15  N   UNL     1       6.274   6.042  15.627  0.00  0.00    +0.000 N 
ATOM     16  H   UNL     1       8.405   4.848  13.407  0.00  0.00    +0.000 HD
ATOM     17  H   UNL     1       6.860   6.836  15.927  0.00  0.00    +0.000 HD
BRANCH  14  18
ATOM     18  C   UNL     1       5.999   3.915  14.212  0.00  0.00    +0.000 C 
BRANCH  18  19
ATOM     19  S   UNL     1       6.143   3.435  12.457  0.00  0.00    +0.000 S 
ATOM     20  H   UNL     1       6.121   2.061  12.764  0.00  0.00    +0.000 HD
ENDBRANCH  18  19
ENDBRANCH  14  18
ENDBRANCH  12  15
ENDBRANCH   1  12
TORSDOF 5
ENDMDL
