MODEL 1
REMARK VINA RESULT:      -8.0      0.000      0.000
REMARK  Name = 
REMARK  9 active torsions:
REMARK  status: ('A' for Active; 'I' for Inactive)
REMARK    1  A    between atoms: C_1  and  N_2
REMARK    2  A    between atoms: N_2  and  C_3
REMARK    3  A    between atoms: N_2  and  C_4
REMARK    4  A    between atoms: C_4  and  C_5
REMARK    5  A    between atoms: C_5  and  C_6
REMARK    6  A    between atoms: C_6  and  N_7
REMARK    7  A    between atoms: C_11  and  C_12
REMARK    8  A    between atoms: C_15  and  N_16
REMARK    9  A    between atoms: C_17  and  C_19
REMARK                            x       y       z     vdW  Elec       q    Type
REMARK                         _______ _______ _______ _____ _____    ______ ____
ROOT
ATOM      1  C   UNL     1       6.406   5.786  18.301  0.00  0.00    +0.000 A 
ATOM      2  C   UNL     1       5.940   6.775  17.431  0.00  0.00    +0.000 A 
ATOM      3  C   UNL     1       6.668   7.947  17.218  0.00  0.00    +0.000 A 
ATOM      4  C   UNL     1       7.883   8.169  17.870  0.00  0.00    +0.000 A 
ATOM      5  C   UNL     1       8.372   7.173  18.723  0.00  0.00    +0.000 A 
ATOM      6  C   UNL     1       7.632   5.999  18.947  0.00  0.00    +0.000 A 
ENDROOT
BRANCH   1  11
ATOM      7  N   UNL     1       3.106   2.646  17.271  0.00  0.00    +0.000 N 
ATOM      8  C   UNL     1       4.136   3.135  17.985  0.00  0.00    +0.000 A 
ATOM      9  N   UNL     1       4.567   2.835  19.191  0.00  0.00    +0.000 NA
ATOM     10  N   UNL     1       5.534   3.764  19.502  0.00  0.00    +0.000 NA
ATOM     11  C   UNL     1       5.622   4.569  18.461  0.00  0.00    +0.000 A 
ATOM     12  O   UNL     1       4.778   4.212  17.443  0.00  0.00    +0.000 OA
ATOM     13  H   UNL     1       2.856   3.190  16.452  0.00  0.00    +0.000 HD
BRANCH   7  14
ATOM     14  C   UNL     1       1.959   2.149  18.031  0.00  0.00    +0.000 C 
BRANCH  14  15
ATOM     15  C   UNL     1       1.010   3.301  18.382  0.00  0.00    +0.000 C 
BRANCH  15  16
ATOM     16  C   UNL     1       0.819   3.499  19.889  0.00  0.00    +0.000 C 
BRANCH  16  18
ATOM     17  C   UNL     1       1.731   5.576  20.793  0.00  0.00    +0.000 C 
ATOM     18  N   UNL     1       1.951   4.143  20.574  0.00  0.00    +0.000 NA
ATOM     19  C   UNL     1       2.201   3.483  21.859  0.00  0.00    +0.000 C 
ENDBRANCH  16  18
ENDBRANCH  15  16
ENDBRANCH  14  15
ENDBRANCH   7  14
ENDBRANCH   1  11
BRANCH   4  20
ATOM     20  N   UNL     1       8.643   9.348  17.684  0.00  0.00    +0.000 N 
ATOM     21  C   UNL     1       9.082  10.181  18.702  0.00  0.00    +0.000 C 
ATOM     22  O   UNL     1       8.968   9.941  19.903  0.00  0.00    +0.000 OA
ATOM     23  H   UNL     1       8.941   9.559  16.735  0.00  0.00    +0.000 HD
BRANCH  21  24
ATOM     24  C   UNL     1       9.768  11.450  18.336  0.00  0.00    +0.000 A 
ATOM     25  C   UNL     1      11.118  11.588  18.710  0.00  0.00    +0.000 A 
ATOM     26  C   UNL     1      11.818  12.768  18.454  0.00  0.00    +0.000 A 
ATOM     27  C   UNL     1      11.178  13.827  17.818  0.00  0.00    +0.000 A 
ATOM     28  C   UNL     1       9.843  13.698  17.429  0.00  0.00    +0.000 A 
ATOM     29  C   UNL     1       9.147  12.515  17.686  0.00  0.00    +0.000 A 
ATOM     30  F   UNL     1       7.866  12.433  17.293  0.00  0.00    +0.000 F 
ENDBRANCH  21  24
ENDBRANCH   4  20
TORSDOF 7
ENDMDL
MODEL 2
REMARK VINA RESULT:      -7.6      5.795      8.742
REMARK  Name = 
REMARK  9 active torsions:
REMARK  status: ('A' for Active; 'I' for Inactive)
REMARK    1  A    between atoms: C_1  and  N_2
REMARK    2  A    between atoms: N_2  and  C_3
REMARK    3  A    between atoms: N_2  and  C_4
REMARK    4  A    between atoms: C_4  and  C_5
REMARK    5  A    between atoms: C_5  and  C_6
REMARK    6  A    between atoms: C_6  and  N_7
REMARK    7  A    between atoms: C_11  and  C_12
REMARK    8  A    between atoms: C_15  and  N_16
REMARK    9  A    between atoms: C_17  and  C_19
REMARK                            x       y       z     vdW  Elec       q    Type
REMARK                         _______ _______ _______ _____ _____    ______ ____
ROOT
ATOM      1  C   UNL     1       2.999   7.273  18.470  0.00  0.00    +0.000 A 
ATOM      2  C   UNL     1       2.581   8.421  17.792  0.00  0.00    +0.000 A 
ATOM      3  C   UNL     1       1.617   9.269  18.342  0.00  0.00    +0.000 A 
ATOM      4  C   UNL     1       1.039   8.994  19.583  0.00  0.00    +0.000 A 
ATOM      5  C   UNL     1       1.471   7.861  20.282  0.00  0.00    +0.000 A 
ATOM      6  C   UNL     1       2.432   7.001  19.723  0.00  0.00    +0.000 A 
ENDROOT
BRANCH   1  11
ATOM      7  N   UNL     1       5.733   5.640  15.053  0.00  0.00    +0.000 N 
ATOM      8  C   UNL     1       5.285   5.712  16.319  0.00  0.00    +0.000 A 
ATOM      9  N   UNL     1       5.418   4.880  17.329  0.00  0.00    +0.000 NA
ATOM     10  N   UNL     1       4.608   5.353  18.336  0.00  0.00    +0.000 NA
ATOM     11  C   UNL     1       4.031   6.442  17.865  0.00  0.00    +0.000 A 
ATOM     12  O   UNL     1       4.437   6.748  16.593  0.00  0.00    +0.000 OA
ATOM     13  H   UNL     1       5.318   6.309  14.414  0.00  0.00    +0.000 HD
BRANCH   7  14
ATOM     14  C   UNL     1       5.900   4.300  14.492  0.00  0.00    +0.000 C 
BRANCH  14  15
ATOM     15  C   UNL     1       7.025   4.292  13.451  0.00  0.00    +0.000 C 
BRANCH  15  16
ATOM     16  C   UNL     1       6.570   3.834  12.061  0.00  0.00    +0.000 C 
BRANCH  16  18
ATOM     17  C   UNL     1       4.288   3.283  11.392  0.00  0.00    +0.000 C 
ATOM     18  N   UNL     1       5.506   2.819  12.065  0.00  0.00    +0.000 NA
ATOM     19  C   UNL     1       5.982   1.590  11.423  0.00  0.00    +0.000 C 
ENDBRANCH  16  18
ENDBRANCH  15  16
ENDBRANCH  14  15
ENDBRANCH   7  14
ENDBRANCH   1  11
BRANCH   4  20
ATOM     20  N   UNL     1       0.055   9.827  20.165  0.00  0.00    +0.000 N 
ATOM     21  C   UNL     1       0.316  10.916  20.984  0.00  0.00    +0.000 C 
ATOM     22  O   UNL     1       1.437  11.367  21.214  0.00  0.00    +0.000 OA
ATOM     23  H   UNL     1      -0.912   9.648  19.908  0.00  0.00    +0.000 HD
BRANCH  21  24
ATOM     24  C   UNL     1      -0.831  11.621  21.618  0.00  0.00    +0.000 A 
ATOM     25  C   UNL     1      -1.363  12.733  20.939  0.00  0.00    +0.000 A 
ATOM     26  C   UNL     1      -2.404  13.482  21.491  0.00  0.00    +0.000 A 
ATOM     27  C   UNL     1      -2.927  13.129  22.730  0.00  0.00    +0.000 A 
ATOM     28  C   UNL     1      -2.417  12.020  23.408  0.00  0.00    +0.000 A 
ATOM     29  C   UNL     1      -1.377  11.272  22.852  0.00  0.00    +0.000 A 
ATOM     30  F   UNL     1      -0.920  10.212  23.536  0.00  0.00    +0.000 F 
ENDBRANCH  21  24
ENDBRANCH   4  20
TORSDOF 7
ENDMDL
MODEL 3
REMARK VINA RESULT:      -7.5      1.489      1.620
REMARK  Name = 
REMARK  9 active torsions:
REMARK  status: ('A' for Active; 'I' for Inactive)
REMARK    1  A    between atoms: C_1  and  N_2
REMARK    2  A    between atoms: N_2  and  C_3
REMARK    3  A    between atoms: N_2  and  C_4
REMARK    4  A    between atoms: C_4  and  C_5
REMARK    5  A    between atoms: C_5  and  C_6
REMARK    6  A    between atoms: C_6  and  N_7
REMARK    7  A    between atoms: C_11  and  C_12
REMARK    8  A    between atoms: C_15  and  N_16
REMARK    9  A    between atoms: C_17  and  C_19
REMARK                            x       y       z     vdW  Elec       q    Type
REMARK                         _______ _______ _______ _____ _____    ______ ____
ROOT
ATOM      1  C   UNL     1       6.528   6.212  17.643  0.00  0.00    +0.000 A 
ATOM      2  C   UNL     1       6.393   7.471  17.052  0.00  0.00    +0.000 A 
ATOM      3  C   UNL     1       7.240   8.525  17.406  0.00  0.00    +0.000 A 
ATOM      4  C   UNL     1       8.244   8.354  18.361  0.00  0.00    +0.000 A 
ATOM      5  C   UNL     1       8.403   7.089  18.939  0.00  0.00    +0.000 A 
ATOM      6  C   UNL     1       7.543   6.032  18.593  0.00  0.00    +0.000 A 
ENDROOT
BRANCH   1  11
ATOM      7  N   UNL     1       2.587   3.709  17.500  0.00  0.00    +0.000 N 
ATOM      8  C   UNL     1       3.845   4.014  17.134  0.00  0.00    +0.000 A 
ATOM      9  N   UNL     1       4.759   3.301  16.512  0.00  0.00    +0.000 NA
ATOM     10  N   UNL     1       5.924   4.032  16.560  0.00  0.00    +0.000 NA
ATOM     11  C   UNL     1       5.639   5.141  17.214  0.00  0.00    +0.000 A 
ATOM     12  O   UNL     1       4.323   5.211  17.587  0.00  0.00    +0.000 OA
ATOM     13  H   UNL     1       2.161   4.358  18.151  0.00  0.00    +0.000 HD
BRANCH   7  14
ATOM     14  C   UNL     1       2.312   2.302  17.791  0.00  0.00    +0.000 C 
BRANCH  14  15
ATOM     15  C   UNL     1       1.191   2.180  18.830  0.00  0.00    +0.000 C 
BRANCH  15  16
ATOM     16  C   UNL     1       0.925   3.478  19.598  0.00  0.00    +0.000 C 
BRANCH  16  18
ATOM     17  C   UNL     1       1.976   5.395  20.685  0.00  0.00    +0.000 C 
ATOM     18  N   UNL     1       2.053   3.956  20.412  0.00  0.00    +0.000 NA
ATOM     19  C   UNL     1       2.107   3.219  21.678  0.00  0.00    +0.000 C 
ENDBRANCH  16  18
ENDBRANCH  15  16
ENDBRANCH  14  15
ENDBRANCH   7  14
ENDBRANCH   1  11
BRANCH   4  20
ATOM     20  N   UNL     1       9.113   9.401  18.748  0.00  0.00    +0.000 N 
ATOM     21  C   UNL     1       9.028  10.711  18.301  0.00  0.00    +0.000 C 
ATOM     22  O   UNL     1       8.119  11.157  17.604  0.00  0.00    +0.000 OA
ATOM     23  H   UNL     1       9.809   9.184  19.456  0.00  0.00    +0.000 HD
BRANCH  21  24
ATOM     24  C   UNL     1      10.092  11.670  18.706  0.00  0.00    +0.000 A 
ATOM     25  C   UNL     1      11.101  11.952  17.767  0.00  0.00    +0.000 A 
ATOM     26  C   UNL     1      12.164  12.799  18.086  0.00  0.00    +0.000 A 
ATOM     27  C   UNL     1      12.233  13.375  19.350  0.00  0.00    +0.000 A 
ATOM     28  C   UNL     1      11.231  13.114  20.287  0.00  0.00    +0.000 A 
ATOM     29  C   UNL     1      10.168  12.268  19.962  0.00  0.00    +0.000 A 
ATOM     30  F   UNL     1       9.225  12.047  20.892  0.00  0.00    +0.000 F 
ENDBRANCH  21  24
ENDBRANCH   4  20
TORSDOF 7
ENDMDL
MODEL 4
REMARK VINA RESULT:      -7.5      5.857      7.669
REMARK  Name = 
REMARK  9 active torsions:
REMARK  status: ('A' for Active; 'I' for Inactive)
REMARK    1  A    between atoms: C_1  and  N_2
REMARK    2  A    between atoms: N_2  and  C_3
REMARK    3  A    between atoms: N_2  and  C_4
REMARK    4  A    between atoms: C_4  and  C_5
REMARK    5  A    between atoms: C_5  and  C_6
REMARK    6  A    between atoms: C_6  and  N_7
REMARK    7  A    between atoms: C_11  and  C_12
REMARK    8  A    between atoms: C_15  and  N_16
REMARK    9  A    between atoms: C_17  and  C_19
REMARK                            x       y       z     vdW  Elec       q    Type
REMARK                         _______ _______ _______ _____ _____    ______ ____
ROOT
ATOM      1  C   UNL     1       2.168   7.971  18.652  0.00  0.00    +0.000 A 
ATOM      2  C   UNL     1       1.874   7.901  20.016  0.00  0.00    +0.000 A 
ATOM      3  C   UNL     1       1.154   8.918  20.649  0.00  0.00    +0.000 A 
ATOM      4  C   UNL     1       0.709  10.035  19.940  0.00  0.00    +0.000 A 
ATOM      5  C   UNL     1       0.976  10.101  18.567  0.00  0.00    +0.000 A 
ATOM      6  C   UNL     1       1.712   9.085  17.933  0.00  0.00    +0.000 A 
ENDROOT
BRANCH   1  11
ATOM      7  N   UNL     1       2.927   3.569  17.289  0.00  0.00    +0.000 N 
ATOM      8  C   UNL     1       3.232   4.874  17.402  0.00  0.00    +0.000 A 
ATOM      9  N   UNL     1       4.377   5.507  17.262  0.00  0.00    +0.000 NA
ATOM     10  N   UNL     1       4.159   6.803  17.671  0.00  0.00    +0.000 NA
ATOM     11  C   UNL     1       2.894   6.868  18.037  0.00  0.00    +0.000 A 
ATOM     12  O   UNL     1       2.232   5.681  17.867  0.00  0.00    +0.000 OA
ATOM     13  H   UNL     1       2.016   3.309  17.650  0.00  0.00    +0.000 HD
BRANCH   7  14
ATOM     14  C   UNL     1       3.991   2.617  17.607  0.00  0.00    +0.000 C 
BRANCH  14  15
ATOM     15  C   UNL     1       3.526   1.637  18.690  0.00  0.00    +0.000 C 
BRANCH  15  16
ATOM     16  C   UNL     1       2.152   1.979  19.276  0.00  0.00    +0.000 C 
BRANCH  16  18
ATOM     17  C   UNL     1       0.873   3.770  20.332  0.00  0.00    +0.000 C 
ATOM     18  N   UNL     1       2.158   3.066  20.267  0.00  0.00    +0.000 NA
ATOM     19  C   UNL     1       2.494   2.535  21.592  0.00  0.00    +0.000 C 
ENDBRANCH  16  18
ENDBRANCH  15  16
ENDBRANCH  14  15
ENDBRANCH   7  14
ENDBRANCH   1  11
BRANCH   4  20
ATOM     20  N   UNL     1      -0.015  11.086  20.550  0.00  0.00    +0.000 N 
ATOM     21  C   UNL     1       0.553  12.200  21.150  0.00  0.00    +0.000 C 
ATOM     22  O   UNL     1       1.751  12.476  21.126  0.00  0.00    +0.000 OA
ATOM     23  H   UNL     1      -1.029  11.046  20.484  0.00  0.00    +0.000 HD
BRANCH  21  24
ATOM     24  C   UNL     1      -0.340  13.159  21.857  0.00  0.00    +0.000 A 
ATOM     25  C   UNL     1      -0.299  14.505  21.446  0.00  0.00    +0.000 A 
ATOM     26  C   UNL     1      -1.063  15.477  22.093  0.00  0.00    +0.000 A 
ATOM     27  C   UNL     1      -1.880  15.117  23.160  0.00  0.00    +0.000 A 
ATOM     28  C   UNL     1      -1.940  13.783  23.569  0.00  0.00    +0.000 A 
ATOM     29  C   UNL     1      -1.175  12.813  22.917  0.00  0.00    +0.000 A 
ATOM     30  F   UNL     1      -1.266  11.543  23.341  0.00  0.00    +0.000 F 
ENDBRANCH  21  24
ENDBRANCH   4  20
TORSDOF 7
ENDMDL
MODEL 5
REMARK VINA RESULT:      -7.4      1.090      1.471
REMARK  Name = 
REMARK  9 active torsions:
REMARK  status: ('A' for Active; 'I' for Inactive)
REMARK    1  A    between atoms: C_1  and  N_2
REMARK    2  A    between atoms: N_2  and  C_3
REMARK    3  A    between atoms: N_2  and  C_4
REMARK    4  A    between atoms: C_4  and  C_5
REMARK    5  A    between atoms: C_5  and  C_6
REMARK    6  A    between atoms: C_6  and  N_7
REMARK    7  A    between atoms: C_11  and  C_12
REMARK    8  A    between atoms: C_15  and  N_16
REMARK    9  A    between atoms: C_17  and  C_19
REMARK                            x       y       z     vdW  Elec       q    Type
REMARK                         _______ _______ _______ _____ _____    ______ ____
ROOT
ATOM      1  C   UNL     1       6.528   5.920  18.302  0.00  0.00    +0.000 A 
ATOM      2  C   UNL     1       6.016   6.870  17.414  0.00  0.00    +0.000 A 
ATOM      3  C   UNL     1       6.688   8.073  17.184  0.00  0.00    +0.000 A 
ATOM      4  C   UNL     1       7.888   8.365  17.835  0.00  0.00    +0.000 A 
ATOM      5  C   UNL     1       8.422   7.408  18.705  0.00  0.00    +0.000 A 
ATOM      6  C   UNL     1       7.739   6.203  18.947  0.00  0.00    +0.000 A 
ENDROOT
BRANCH   1  11
ATOM      7  N   UNL     1       3.271   2.689  17.423  0.00  0.00    +0.000 N 
ATOM      8  C   UNL     1       4.337   3.194  18.072  0.00  0.00    +0.000 A 
ATOM      9  N   UNL     1       4.872   2.874  19.230  0.00  0.00    +0.000 NA
ATOM     10  N   UNL     1       5.827   3.829  19.496  0.00  0.00    +0.000 NA
ATOM     11  C   UNL     1       5.802   4.669  18.480  0.00  0.00    +0.000 A 
ATOM     12  O   UNL     1       4.895   4.312  17.519  0.00  0.00    +0.000 OA
ATOM     13  H   UNL     1       2.939   3.248  16.646  0.00  0.00    +0.000 HD
BRANCH   7  14
ATOM     14  C   UNL     1       2.207   2.124  18.253  0.00  0.00    +0.000 C 
BRANCH  14  15
ATOM     15  C   UNL     1       1.059   3.128  18.407  0.00  0.00    +0.000 C 
BRANCH  15  16
ATOM     16  C   UNL     1       1.500   4.588  18.263  0.00  0.00    +0.000 C 
BRANCH  16  18
ATOM     17  C   UNL     1       2.614   6.531  19.234  0.00  0.00    +0.000 C 
ATOM     18  N   UNL     1       2.252   5.121  19.410  0.00  0.00    +0.000 NA
ATOM     19  C   UNL     1       1.470   4.965  20.639  0.00  0.00    +0.000 C 
ENDBRANCH  16  18
ENDBRANCH  15  16
ENDBRANCH  14  15
ENDBRANCH   7  14
ENDBRANCH   1  11
BRANCH   4  20
ATOM     20  N   UNL     1       8.590   9.576  17.630  0.00  0.00    +0.000 N 
ATOM     21  C   UNL     1       9.155  10.347  18.635  0.00  0.00    +0.000 C 
ATOM     22  O   UNL     1       9.220  10.020  19.818  0.00  0.00    +0.000 OA
ATOM     23  H   UNL     1       8.744   9.862  16.667  0.00  0.00    +0.000 HD
BRANCH  21  24
ATOM     24  C   UNL     1       9.756  11.659  18.270  0.00  0.00    +0.000 A 
ATOM     25  C   UNL     1       8.875  12.711  17.957  0.00  0.00    +0.000 A 
ATOM     26  C   UNL     1       9.357  13.957  17.552  0.00  0.00    +0.000 A 
ATOM     27  C   UNL     1      10.729  14.169  17.456  0.00  0.00    +0.000 A 
ATOM     28  C   UNL     1      11.614  13.138  17.777  0.00  0.00    +0.000 A 
ATOM     29  C   UNL     1      11.127  11.893  18.184  0.00  0.00    +0.000 A 
ATOM     30  F   UNL     1      12.014  10.932  18.486  0.00  0.00    +0.000 F 
ENDBRANCH  21  24
ENDBRANCH   4  20
TORSDOF 7
ENDMDL
MODEL 6
REMARK VINA RESULT:      -7.4      5.512      8.545
REMARK  Name = 
REMARK  9 active torsions:
REMARK  status: ('A' for Active; 'I' for Inactive)
REMARK    1  A    between atoms: C_1  and  N_2
REMARK    2  A    between atoms: N_2  and  C_3
REMARK    3  A    between atoms: N_2  and  C_4
REMARK    4  A    between atoms: C_4  and  C_5
REMARK    5  A    between atoms: C_5  and  C_6
REMARK    6  A    between atoms: C_6  and  N_7
REMARK    7  A    between atoms: C_11  and  C_12
REMARK    8  A    between atoms: C_15  and  N_16
REMARK    9  A    between atoms: C_17  and  C_19
REMARK                            x       y       z     vdW  Elec       q    Type
REMARK                         _______ _______ _______ _____ _____    ______ ____
ROOT
ATOM      1  C   UNL     1       3.099   6.961  18.557  0.00  0.00    +0.000 A 
ATOM      2  C   UNL     1       2.532   6.826  19.827  0.00  0.00    +0.000 A 
ATOM      3  C   UNL     1       1.601   7.754  20.299  0.00  0.00    +0.000 A 
ATOM      4  C   UNL     1       1.210   8.844  19.520  0.00  0.00    +0.000 A 
ATOM      5  C   UNL     1       1.753   8.973  18.236  0.00  0.00    +0.000 A 
ATOM      6  C   UNL     1       2.700   8.046  17.765  0.00  0.00    +0.000 A 
ENDROOT
BRANCH   1  11
ATOM      7  N   UNL     1       6.607   5.193  16.030  0.00  0.00    +0.000 N 
ATOM      8  C   UNL     1       5.644   5.148  16.968  0.00  0.00    +0.000 A 
ATOM      9  N   UNL     1       5.060   4.126  17.556  0.00  0.00    +0.000 NA
ATOM     10  N   UNL     1       4.021   4.642  18.295  0.00  0.00    +0.000 NA
ATOM     11  C   UNL     1       4.041   5.947  18.102  0.00  0.00    +0.000 A 
ATOM     12  O   UNL     1       5.068   6.345  17.288  0.00  0.00    +0.000 OA
ATOM     13  H   UNL     1       6.736   6.097  15.592  0.00  0.00    +0.000 HD
BRANCH   7  14
ATOM     14  C   UNL     1       6.670   4.064  15.102  0.00  0.00    +0.000 C 
BRANCH  14  15
ATOM     15  C   UNL     1       5.703   4.279  13.931  0.00  0.00    +0.000 C 
BRANCH  15  16
ATOM     16  C   UNL     1       6.170   3.629  12.625  0.00  0.00    +0.000 C 
BRANCH  16  18
ATOM     17  C   UNL     1       4.219   3.206  11.220  0.00  0.00    +0.000 C 
ATOM     18  N   UNL     1       5.253   2.617  12.078  0.00  0.00    +0.000 NA
ATOM     19  C   UNL     1       6.007   1.615  11.319  0.00  0.00    +0.000 C 
ENDBRANCH  16  18
ENDBRANCH  15  16
ENDBRANCH  14  15
ENDBRANCH   7  14
ENDBRANCH   1  11
BRANCH   4  20
ATOM     20  N   UNL     1       0.275   9.806  19.970  0.00  0.00    +0.000 N 
ATOM     21  C   UNL     1       0.336  10.464  21.190  0.00  0.00    +0.000 C 
ATOM     22  O   UNL     1       1.270  10.382  21.986  0.00  0.00    +0.000 OA
ATOM     23  H   UNL     1      -0.456  10.078  19.320  0.00  0.00    +0.000 HD
BRANCH  21  24
ATOM     24  C   UNL     1      -0.790  11.359  21.572  0.00  0.00    +0.000 A 
ATOM     25  C   UNL     1      -1.329  11.208  22.863  0.00  0.00    +0.000 A 
ATOM     26  C   UNL     1      -2.421  11.971  23.280  0.00  0.00    +0.000 A 
ATOM     27  C   UNL     1      -2.990  12.896  22.411  0.00  0.00    +0.000 A 
ATOM     28  C   UNL     1      -2.457  13.065  21.132  0.00  0.00    +0.000 A 
ATOM     29  C   UNL     1      -1.362  12.301  20.719  0.00  0.00    +0.000 A 
ATOM     30  F   UNL     1      -0.880  12.498  19.482  0.00  0.00    +0.000 F 
ENDBRANCH  21  24
ENDBRANCH   4  20
TORSDOF 7
ENDMDL
MODEL 7
REMARK VINA RESULT:      -7.3      5.918      7.635
REMARK  Name = 
REMARK  9 active torsions:
REMARK  status: ('A' for Active; 'I' for Inactive)
REMARK    1  A    between atoms: C_1  and  N_2
REMARK    2  A    between atoms: N_2  and  C_3
REMARK    3  A    between atoms: N_2  and  C_4
REMARK    4  A    between atoms: C_4  and  C_5
REMARK    5  A    between atoms: C_5  and  C_6
REMARK    6  A    between atoms: C_6  and  N_7
REMARK    7  A    between atoms: C_11  and  C_12
REMARK    8  A    between atoms: C_15  and  N_16
REMARK    9  A    between atoms: C_17  and  C_19
REMARK                            x       y       z     vdW  Elec       q    Type
REMARK                         _______ _______ _______ _____ _____    ______ ____
ROOT
ATOM      1  C   UNL     1       2.089   8.009  18.796  0.00  0.00    +0.000 A 
ATOM      2  C   UNL     1       1.782   9.123  18.010  0.00  0.00    +0.000 A 
ATOM      3  C   UNL     1       1.099  10.216  18.549  0.00  0.00    +0.000 A 
ATOM      4  C   UNL     1       0.700  10.228  19.887  0.00  0.00    +0.000 A 
ATOM      5  C   UNL     1       1.027   9.128  20.688  0.00  0.00    +0.000 A 
ATOM      6  C   UNL     1       1.702   8.023  20.143  0.00  0.00    +0.000 A 
ENDROOT
BRANCH   1  11
ATOM      7  N   UNL     1       2.846   3.638  17.334  0.00  0.00    +0.000 N 
ATOM      8  C   UNL     1       3.169   4.932  17.511  0.00  0.00    +0.000 A 
ATOM      9  N   UNL     1       4.332   5.544  17.465  0.00  0.00    +0.000 NA
ATOM     10  N   UNL     1       4.115   6.830  17.903  0.00  0.00    +0.000 NA
ATOM     11  C   UNL     1       2.830   6.911  18.190  0.00  0.00    +0.000 A 
ATOM     12  O   UNL     1       2.158   5.744  17.939  0.00  0.00    +0.000 OA
ATOM     13  H   UNL     1       1.910   3.386  17.629  0.00  0.00    +0.000 HD
BRANCH   7  14
ATOM     14  C   UNL     1       3.869   2.653  17.687  0.00  0.00    +0.000 C 
BRANCH  14  15
ATOM     15  C   UNL     1       3.319   1.653  18.710  0.00  0.00    +0.000 C 
BRANCH  15  16
ATOM     16  C   UNL     1       1.851   1.896  19.076  0.00  0.00    +0.000 C 
BRANCH  16  18
ATOM     17  C   UNL     1       2.893   2.684  21.138  0.00  0.00    +0.000 C 
ATOM     18  N   UNL     1       1.635   2.459  20.418  0.00  0.00    +0.000 NA
ATOM     19  C   UNL     1       0.893   3.719  20.320  0.00  0.00    +0.000 C 
ENDBRANCH  16  18
ENDBRANCH  15  16
ENDBRANCH  14  15
ENDBRANCH   7  14
ENDBRANCH   1  11
BRANCH   4  20
ATOM     20  N   UNL     1       0.001  11.315  20.463  0.00  0.00    +0.000 N 
ATOM     21  C   UNL     1       0.593  12.381  21.124  0.00  0.00    +0.000 C 
ATOM     22  O   UNL     1       1.805  12.578  21.193  0.00  0.00    +0.000 OA
ATOM     23  H   UNL     1      -1.005  11.343  20.321  0.00  0.00    +0.000 HD
BRANCH  21  24
ATOM     24  C   UNL     1      -0.286  13.387  21.781  0.00  0.00    +0.000 A 
ATOM     25  C   UNL     1      -0.262  14.699  21.272  0.00  0.00    +0.000 A 
ATOM     26  C   UNL     1      -1.015  15.713  21.865  0.00  0.00    +0.000 A 
ATOM     27  C   UNL     1      -1.803  15.430  22.976  0.00  0.00    +0.000 A 
ATOM     28  C   UNL     1      -1.846  14.129  23.483  0.00  0.00    +0.000 A 
ATOM     29  C   UNL     1      -1.092  13.117  22.885  0.00  0.00    +0.000 A 
ATOM     30  F   UNL     1      -1.165  11.881  23.403  0.00  0.00    +0.000 F 
ENDBRANCH  21  24
ENDBRANCH   4  20
TORSDOF 7
ENDMDL
MODEL 8
REMARK VINA RESULT:      -7.3      6.406      9.201
REMARK  Name = 
REMARK  9 active torsions:
REMARK  status: ('A' for Active; 'I' for Inactive)
REMARK    1  A    between atoms: C_1  and  N_2
REMARK    2  A    between atoms: N_2  and  C_3
REMARK    3  A    between atoms: N_2  and  C_4
REMARK    4  A    between atoms: C_4  and  C_5
REMARK    5  A    between atoms: C_5  and  C_6
REMARK    6  A    between atoms: C_6  and  N_7
REMARK    7  A    between atoms: C_11  and  C_12
REMARK    8  A    between atoms: C_15  and  N_16
REMARK    9  A    between atoms: C_17  and  C_19
REMARK                            x       y       z     vdW  Elec       q    Type
REMARK                         _______ _______ _______ _____ _____    ______ ____
ROOT
ATOM      1  C   UNL     1       1.129   8.793  20.541  0.00  0.00    +0.000 A 
ATOM      2  C   UNL     1       1.547   7.499  20.860  0.00  0.00    +0.000 A 
ATOM      3  C   UNL     1       2.279   6.735  19.949  0.00  0.00    +0.000 A 
ATOM      4  C   UNL     1       2.614   7.239  18.690  0.00  0.00    +0.000 A 
ATOM      5  C   UNL     1       2.222   8.544  18.371  0.00  0.00    +0.000 A 
ATOM      6  C   UNL     1       1.474   9.308  19.283  0.00  0.00    +0.000 A 
ENDROOT
BRANCH   1  11
ATOM      7  N   UNL     1      -1.645  12.183  22.163  0.00  0.00    +0.000 N 
ATOM      8  C   UNL     1      -0.877  11.084  22.277  0.00  0.00    +0.000 A 
ATOM      9  N   UNL     1      -0.316  10.530  23.330  0.00  0.00    +0.000 NA
ATOM     10  N   UNL     1       0.508   9.535  22.855  0.00  0.00    +0.000 NA
ATOM     11  C   UNL     1       0.395   9.557  21.541  0.00  0.00    +0.000 A 
ATOM     12  O   UNL     1      -0.493  10.502  21.102  0.00  0.00    +0.000 OA
ATOM     13  H   UNL     1      -1.777  12.516  21.215  0.00  0.00    +0.000 HD
BRANCH   7  14
ATOM     14  C   UNL     1      -1.418  13.244  23.144  0.00  0.00    +0.000 C 
BRANCH  14  15
ATOM     15  C   UNL     1      -2.370  14.420  22.890  0.00  0.00    +0.000 C 
BRANCH  15  16
ATOM     16  C   UNL     1      -3.755  14.232  23.518  0.00  0.00    +0.000 C 
BRANCH  16  18
ATOM     17  C   UNL     1      -4.676  12.306  24.702  0.00  0.00    +0.000 C 
ATOM     18  N   UNL     1      -4.306  12.873  23.401  0.00  0.00    +0.000 NA
ATOM     19  C   UNL     1      -5.476  12.881  22.519  0.00  0.00    +0.000 C 
ENDBRANCH  16  18
ENDBRANCH  15  16
ENDBRANCH  14  15
ENDBRANCH   7  14
ENDBRANCH   1  11
BRANCH   4  20
ATOM     20  N   UNL     1       3.347   6.490  17.740  0.00  0.00    +0.000 N 
ATOM     21  C   UNL     1       4.572   5.885  17.979  0.00  0.00    +0.000 C 
ATOM     22  O   UNL     1       5.122   5.823  19.077  0.00  0.00    +0.000 OA
ATOM     23  H   UNL     1       2.908   6.333  16.838  0.00  0.00    +0.000 HD
BRANCH  21  24
ATOM     24  C   UNL     1       5.277   5.233  16.841  0.00  0.00    +0.000 A 
ATOM     25  C   UNL     1       6.472   5.828  16.394  0.00  0.00    +0.000 A 
ATOM     26  C   UNL     1       7.166   5.311  15.298  0.00  0.00    +0.000 A 
ATOM     27  C   UNL     1       6.674   4.192  14.635  0.00  0.00    +0.000 A 
ATOM     28  C   UNL     1       5.496   3.585  15.076  0.00  0.00    +0.000 A 
ATOM     29  C   UNL     1       4.807   4.104  16.174  0.00  0.00    +0.000 A 
ATOM     30  F   UNL     1       3.681   3.487  16.567  0.00  0.00    +0.000 F 
ENDBRANCH  21  24
ENDBRANCH   4  20
TORSDOF 7
ENDMDL
MODEL 9
REMARK VINA RESULT:      -7.2      5.744      7.559
REMARK  Name = 
REMARK  9 active torsions:
REMARK  status: ('A' for Active; 'I' for Inactive)
REMARK    1  A    between atoms: C_1  and  N_2
REMARK    2  A    between atoms: N_2  and  C_3
REMARK    3  A    between atoms: N_2  and  C_4
REMARK    4  A    between atoms: C_4  and  C_5
REMARK    5  A    between atoms: C_5  and  C_6
REMARK    6  A    between atoms: C_6  and  N_7
REMARK    7  A    between atoms: C_11  and  C_12
REMARK    8  A    between atoms: C_15  and  N_16
REMARK    9  A    between atoms: C_17  and  C_19
REMARK                            x       y       z     vdW  Elec       q    Type
REMARK                         _______ _______ _______ _____ _____    ______ ____
ROOT
ATOM      1  C   UNL     1       2.108   7.880  18.750  0.00  0.00    +0.000 A 
ATOM      2  C   UNL     1       1.808   8.953  17.906  0.00  0.00    +0.000 A 
ATOM      3  C   UNL     1       1.099  10.060  18.377  0.00  0.00    +0.000 A 
ATOM      4  C   UNL     1       0.666  10.129  19.703  0.00  0.00    +0.000 A 
ATOM      5  C   UNL     1       0.985   9.071  20.562  0.00  0.00    +0.000 A 
ATOM      6  C   UNL     1       1.688   7.951  20.085  0.00  0.00    +0.000 A 
ENDROOT
BRANCH   1  11
ATOM      7  N   UNL     1       2.866   3.523  17.246  0.00  0.00    +0.000 N 
ATOM      8  C   UNL     1       3.219   4.793  17.516  0.00  0.00    +0.000 A 
ATOM      9  N   UNL     1       4.404   5.347  17.658  0.00  0.00    +0.000 NA
ATOM     10  N   UNL     1       4.185   6.628  18.109  0.00  0.00    +0.000 NA
ATOM     11  C   UNL     1       2.878   6.765  18.215  0.00  0.00    +0.000 A 
ATOM     12  O   UNL     1       2.196   5.643  17.826  0.00  0.00    +0.000 OA
ATOM     13  H   UNL     1       1.887   3.311  17.395  0.00  0.00    +0.000 HD
BRANCH   7  14
ATOM     14  C   UNL     1       3.782   2.478  17.703  0.00  0.00    +0.000 C 
BRANCH  14  15
ATOM     15  C   UNL     1       3.196   1.747  18.917  0.00  0.00    +0.000 C 
BRANCH  15  16
ATOM     16  C   UNL     1       1.727   2.086  19.185  0.00  0.00    +0.000 C 
BRANCH  16  18
ATOM     17  C   UNL     1       2.655   2.675  21.365  0.00  0.00    +0.000 C 
ATOM     18  N   UNL     1       1.457   2.643  20.519  0.00  0.00    +0.000 NA
ATOM     19  C   UNL     1       0.907   3.996  20.396  0.00  0.00    +0.000 C 
ENDBRANCH  16  18
ENDBRANCH  15  16
ENDBRANCH  14  15
ENDBRANCH   7  14
ENDBRANCH   1  11
BRANCH   4  20
ATOM     20  N   UNL     1      -0.060  11.232  20.210  0.00  0.00    +0.000 N 
ATOM     21  C   UNL     1       0.477  12.249  20.986  0.00  0.00    +0.000 C 
ATOM     22  O   UNL     1       1.673  12.384  21.236  0.00  0.00    +0.000 OA
ATOM     23  H   UNL     1      -1.032  11.314  19.926  0.00  0.00    +0.000 HD
BRANCH  21  24
ATOM     24  C   UNL     1      -0.443  13.277  21.545  0.00  0.00    +0.000 A 
ATOM     25  C   UNL     1      -0.820  13.143  22.895  0.00  0.00    +0.000 A 
ATOM     26  C   UNL     1      -1.721  14.033  23.481  0.00  0.00    +0.000 A 
ATOM     27  C   UNL     1      -2.258  15.070  22.726  0.00  0.00    +0.000 A 
ATOM     28  C   UNL     1      -1.883  15.222  21.390  0.00  0.00    +0.000 A 
ATOM     29  C   UNL     1      -0.979  14.330  20.807  0.00  0.00    +0.000 A 
ATOM     30  F   UNL     1      -0.643  14.515  19.521  0.00  0.00    +0.000 F 
ENDBRANCH  21  24
ENDBRANCH   4  20
TORSDOF 7
ENDMDL
