MODEL 1
REMARK VINA RESULT:      -8.1      0.000      0.000
REMARK  Name = 
REMARK  6 active torsions:
REMARK  status: ('A' for Active; 'I' for Inactive)
REMARK    1  A    between atoms: C_1  and  C_2
REMARK    2  A    between atoms: C_2  and  C_4
REMARK    3  A    between atoms: C_8  and  N_9
REMARK    4  A    between atoms: C_10  and  C_12
REMARK    5  A    between atoms: C_12  and  O_13
REMARK    6  A    between atoms: O_13  and  C_14
REMARK                            x       y       z     vdW  Elec       q    Type
REMARK                         _______ _______ _______ _____ _____    ______ ____
ROOT
ATOM      1  N   UNL     1       6.223   5.047  15.878  0.00  0.00    +0.000 N 
ATOM      2  C   UNL     1       6.952   4.701  17.012  0.00  0.00    +0.000 C 
ATOM      3  O   UNL     1       8.062   4.174  17.028  0.00  0.00    +0.000 OA
ATOM      4  H   UNL     1       5.392   5.608  16.025  0.00  0.00    +0.000 HD
ENDROOT
BRANCH   1   9
ATOM      5  C   UNL     1       6.151   3.640  12.434  0.00  0.00    +0.000 A 
ATOM      6  C   UNL     1       7.230   4.295  11.840  0.00  0.00    +0.000 A 
ATOM      7  C   UNL     1       7.991   5.192  12.580  0.00  0.00    +0.000 A 
ATOM      8  C   UNL     1       7.676   5.447  13.917  0.00  0.00    +0.000 A 
ATOM      9  C   UNL     1       6.595   4.814  14.533  0.00  0.00    +0.000 A 
ATOM     10  C   UNL     1       5.843   3.894  13.785  0.00  0.00    +0.000 A 
BRANCH   5  12
ATOM     11  C   UNL     1       3.965   3.118  11.156  0.00  0.00    +0.000 C 
ATOM     12  C   UNL     1       5.309   2.667  11.673  0.00  0.00    +0.000 C 
ATOM     13  O   UNL     1       5.723   1.528  11.473  0.00  0.00    +0.000 OA
ENDBRANCH   5  12
ENDBRANCH   1   9
BRANCH   2  14
ATOM     14  C   UNL     1       6.242   5.053  18.317  0.00  0.00    +0.000 C 
BRANCH  14  15
ATOM     15  O   UNL     1       5.601   3.869  18.773  0.00  0.00    +0.000 OA
BRANCH  15  16
ATOM     16  C   UNL     1       4.263   3.775  18.514  0.00  0.00    +0.000 A 
ATOM     17  C   UNL     1       3.718   2.496  18.656  0.00  0.00    +0.000 A 
ATOM     18  C   UNL     1       2.349   2.285  18.491  0.00  0.00    +0.000 A 
ATOM     19  C   UNL     1       1.514   3.359  18.195  0.00  0.00    +0.000 A 
ATOM     20  C   UNL     1       2.052   4.638  18.049  0.00  0.00    +0.000 A 
ATOM     21  C   UNL     1       3.427   4.848  18.205  0.00  0.00    +0.000 A 
ENDBRANCH  15  16
ENDBRANCH  14  15
ENDBRANCH   2  14
TORSDOF 5
ENDMDL
MODEL 2
REMARK VINA RESULT:      -7.8      0.815      1.212
REMARK  Name = 
REMARK  6 active torsions:
REMARK  status: ('A' for Active; 'I' for Inactive)
REMARK    1  A    between atoms: C_1  and  C_2
REMARK    2  A    between atoms: C_2  and  C_4
REMARK    3  A    between atoms: C_8  and  N_9
REMARK    4  A    between atoms: C_10  and  C_12
REMARK    5  A    between atoms: C_12  and  O_13
REMARK    6  A    between atoms: O_13  and  C_14
REMARK                            x       y       z     vdW  Elec       q    Type
REMARK                         _______ _______ _______ _____ _____    ______ ____
ROOT
ATOM      1  N   UNL     1       6.178   5.020  15.923  0.00  0.00    +0.000 N 
ATOM      2  C   UNL     1       6.912   4.731  17.069  0.00  0.00    +0.000 C 
ATOM      3  O   UNL     1       8.051   4.271  17.104  0.00  0.00    +0.000 OA
ATOM      4  H   UNL     1       5.314   5.533  16.054  0.00  0.00    +0.000 HD
ENDROOT
BRANCH   1   9
ATOM      5  C   UNL     1       6.195   3.614  12.478  0.00  0.00    +0.000 A 
ATOM      6  C   UNL     1       7.275   4.287  11.905  0.00  0.00    +0.000 A 
ATOM      7  C   UNL     1       8.006   5.196  12.659  0.00  0.00    +0.000 A 
ATOM      8  C   UNL     1       7.661   5.446  13.990  0.00  0.00    +0.000 A 
ATOM      9  C   UNL     1       6.580   4.794  14.586  0.00  0.00    +0.000 A 
ATOM     10  C   UNL     1       5.857   3.862  13.823  0.00  0.00    +0.000 A 
BRANCH   5  12
ATOM     11  C   UNL     1       6.013   1.305  11.329  0.00  0.00    +0.000 C 
ATOM     12  C   UNL     1       5.386   2.627  11.701  0.00  0.00    +0.000 C 
ATOM     13  O   UNL     1       4.229   2.897  11.387  0.00  0.00    +0.000 OA
ENDBRANCH   5  12
ENDBRANCH   1   9
BRANCH   2  14
ATOM     14  C   UNL     1       6.166   5.056  18.362  0.00  0.00    +0.000 C 
BRANCH  14  15
ATOM     15  O   UNL     1       5.642   3.831  18.857  0.00  0.00    +0.000 OA
BRANCH  15  16
ATOM     16  C   UNL     1       4.295   3.654  18.713  0.00  0.00    +0.000 A 
ATOM     17  C   UNL     1       3.501   4.388  19.598  0.00  0.00    +0.000 A 
ATOM     18  C   UNL     1       2.109   4.350  19.502  0.00  0.00    +0.000 A 
ATOM     19  C   UNL     1       1.505   3.584  18.509  0.00  0.00    +0.000 A 
ATOM     20  C   UNL     1       2.293   2.846  17.624  0.00  0.00    +0.000 A 
ATOM     21  C   UNL     1       3.688   2.878  17.727  0.00  0.00    +0.000 A 
ENDBRANCH  15  16
ENDBRANCH  14  15
ENDBRANCH   2  14
TORSDOF 5
ENDMDL
MODEL 3
REMARK VINA RESULT:      -7.8      1.650      1.943
REMARK  Name = 
REMARK  6 active torsions:
REMARK  status: ('A' for Active; 'I' for Inactive)
REMARK    1  A    between atoms: C_1  and  C_2
REMARK    2  A    between atoms: C_2  and  C_4
REMARK    3  A    between atoms: C_8  and  N_9
REMARK    4  A    between atoms: C_10  and  C_12
REMARK    5  A    between atoms: C_12  and  O_13
REMARK    6  A    between atoms: O_13  and  C_14
REMARK                            x       y       z     vdW  Elec       q    Type
REMARK                         _______ _______ _______ _____ _____    ______ ____
ROOT
ATOM      1  N   UNL     1       5.730   4.796  15.903  0.00  0.00    +0.000 N 
ATOM      2  C   UNL     1       5.118   5.953  16.377  0.00  0.00    +0.000 C 
ATOM      3  O   UNL     1       4.881   6.967  15.724  0.00  0.00    +0.000 OA
ATOM      4  H   UNL     1       5.722   3.993  16.521  0.00  0.00    +0.000 HD
ENDROOT
BRANCH   1   9
ATOM      5  C   UNL     1       5.972   3.504  12.422  0.00  0.00    +0.000 A 
ATOM      6  C   UNL     1       7.145   4.114  11.977  0.00  0.00    +0.000 A 
ATOM      7  C   UNL     1       7.865   4.942  12.830  0.00  0.00    +0.000 A 
ATOM      8  C   UNL     1       7.414   5.174  14.132  0.00  0.00    +0.000 A 
ATOM      9  C   UNL     1       6.239   4.584  14.601  0.00  0.00    +0.000 A 
ATOM     10  C   UNL     1       5.527   3.733  13.740  0.00  0.00    +0.000 A 
BRANCH   5  12
ATOM     11  C   UNL     1       3.844   3.097  11.012  0.00  0.00    +0.000 C 
ATOM     12  C   UNL     1       5.171   2.606  11.537  0.00  0.00    +0.000 C 
ATOM     13  O   UNL     1       5.603   1.493  11.243  0.00  0.00    +0.000 OA
ENDBRANCH   5  12
ENDBRANCH   1   9
BRANCH   2  14
ATOM     14  C   UNL     1       4.726   5.870  17.850  0.00  0.00    +0.000 C 
BRANCH  14  15
ATOM     15  O   UNL     1       3.328   6.119  17.921  0.00  0.00    +0.000 OA
BRANCH  15  16
ATOM     16  C   UNL     1       2.573   5.136  18.495  0.00  0.00    +0.000 A 
ATOM     17  C   UNL     1       2.211   5.364  19.826  0.00  0.00    +0.000 A 
ATOM     18  C   UNL     1       1.378   4.470  20.498  0.00  0.00    +0.000 A 
ATOM     19  C   UNL     1       0.892   3.346  19.836  0.00  0.00    +0.000 A 
ATOM     20  C   UNL     1       1.252   3.111  18.509  0.00  0.00    +0.000 A 
ATOM     21  C   UNL     1       2.095   4.003  17.837  0.00  0.00    +0.000 A 
ENDBRANCH  15  16
ENDBRANCH  14  15
ENDBRANCH   2  14
TORSDOF 5
ENDMDL
MODEL 4
REMARK VINA RESULT:      -7.6      1.239      1.269
REMARK  Name = 
REMARK  6 active torsions:
REMARK  status: ('A' for Active; 'I' for Inactive)
REMARK    1  A    between atoms: C_1  and  C_2
REMARK    2  A    between atoms: C_2  and  C_4
REMARK    3  A    between atoms: C_8  and  N_9
REMARK    4  A    between atoms: C_10  and  C_12
REMARK    5  A    between atoms: C_12  and  O_13
REMARK    6  A    between atoms: O_13  and  C_14
REMARK                            x       y       z     vdW  Elec       q    Type
REMARK                         _______ _______ _______ _____ _____    ______ ____
ROOT
ATOM      1  N   UNL     1       5.971   4.845  15.982  0.00  0.00    +0.000 N 
ATOM      2  C   UNL     1       6.726   4.649  17.134  0.00  0.00    +0.000 C 
ATOM      3  O   UNL     1       7.914   4.339  17.178  0.00  0.00    +0.000 OA
ATOM      4  H   UNL     1       5.047   5.242  16.106  0.00  0.00    +0.000 HD
ENDROOT
BRANCH   1   9
ATOM      5  C   UNL     1       6.076   3.596  12.478  0.00  0.00    +0.000 A 
ATOM      6  C   UNL     1       7.178   4.283  11.968  0.00  0.00    +0.000 A 
ATOM      7  C   UNL     1       7.894   5.151  12.784  0.00  0.00    +0.000 A 
ATOM      8  C   UNL     1       7.513   5.343  14.113  0.00  0.00    +0.000 A 
ATOM      9  C   UNL     1       6.409   4.675  14.648  0.00  0.00    +0.000 A 
ATOM     10  C   UNL     1       5.701   3.786  13.824  0.00  0.00    +0.000 A 
BRANCH   5  12
ATOM     11  C   UNL     1       3.920   3.086  11.147  0.00  0.00    +0.000 C 
ATOM     12  C   UNL     1       5.281   2.653  11.635  0.00  0.00    +0.000 C 
ATOM     13  O   UNL     1       5.745   1.552  11.344  0.00  0.00    +0.000 OA
ENDBRANCH   5  12
ENDBRANCH   1   9
BRANCH   2  14
ATOM     14  C   UNL     1       5.934   4.872  18.420  0.00  0.00    +0.000 C 
BRANCH  14  15
ATOM     15  O   UNL     1       4.557   4.772  18.083  0.00  0.00    +0.000 OA
BRANCH  15  16
ATOM     16  C   UNL     1       3.710   4.463  19.109  0.00  0.00    +0.000 A 
ATOM     17  C   UNL     1       3.834   3.166  19.613  0.00  0.00    +0.000 A 
ATOM     18  C   UNL     1       3.077   2.755  20.710  0.00  0.00    +0.000 A 
ATOM     19  C   UNL     1       2.197   3.648  21.317  0.00  0.00    +0.000 A 
ATOM     20  C   UNL     1       2.066   4.943  20.817  0.00  0.00    +0.000 A 
ATOM     21  C   UNL     1       2.819   5.352  19.710  0.00  0.00    +0.000 A 
ENDBRANCH  15  16
ENDBRANCH  14  15
ENDBRANCH   2  14
TORSDOF 5
ENDMDL
MODEL 5
REMARK VINA RESULT:      -7.6      0.971      1.392
REMARK  Name = 
REMARK  6 active torsions:
REMARK  status: ('A' for Active; 'I' for Inactive)
REMARK    1  A    between atoms: C_1  and  C_2
REMARK    2  A    between atoms: C_2  and  C_4
REMARK    3  A    between atoms: C_8  and  N_9
REMARK    4  A    between atoms: C_10  and  C_12
REMARK    5  A    between atoms: C_12  and  O_13
REMARK    6  A    between atoms: O_13  and  C_14
REMARK                            x       y       z     vdW  Elec       q    Type
REMARK                         _______ _______ _______ _____ _____    ______ ____
ROOT
ATOM      1  N   UNL     1       5.695   4.840  16.038  0.00  0.00    +0.000 N 
ATOM      2  C   UNL     1       6.377   4.657  17.237  0.00  0.00    +0.000 C 
ATOM      3  O   UNL     1       7.560   4.343  17.357  0.00  0.00    +0.000 OA
ATOM      4  H   UNL     1       4.766   5.241  16.101  0.00  0.00    +0.000 HD
ENDROOT
BRANCH   1   9
ATOM      5  C   UNL     1       5.988   3.580  12.549  0.00  0.00    +0.000 A 
ATOM      6  C   UNL     1       7.142   4.231  12.112  0.00  0.00    +0.000 A 
ATOM      7  C   UNL     1       7.832   5.076  12.972  0.00  0.00    +0.000 A 
ATOM      8  C   UNL     1       7.370   5.284  14.274  0.00  0.00    +0.000 A 
ATOM      9  C   UNL     1       6.214   4.653  14.736  0.00  0.00    +0.000 A 
ATOM     10  C   UNL     1       5.533   3.785  13.867  0.00  0.00    +0.000 A 
BRANCH   5  12
ATOM     11  C   UNL     1       3.898   3.128  11.098  0.00  0.00    +0.000 C 
ATOM     12  C   UNL     1       5.220   2.661  11.656  0.00  0.00    +0.000 C 
ATOM     13  O   UNL     1       5.675   1.552  11.382  0.00  0.00    +0.000 OA
ENDBRANCH   5  12
ENDBRANCH   1   9
BRANCH   2  14
ATOM     14  C   UNL     1       5.509   4.897  18.469  0.00  0.00    +0.000 C 
BRANCH  14  15
ATOM     15  O   UNL     1       5.181   3.620  19.001  0.00  0.00    +0.000 OA
BRANCH  15  16
ATOM     16  C   UNL     1       3.887   3.455  19.407  0.00  0.00    +0.000 A 
ATOM     17  C   UNL     1       3.295   4.583  19.983  0.00  0.00    +0.000 A 
ATOM     18  C   UNL     1       1.955   4.562  20.369  0.00  0.00    +0.000 A 
ATOM     19  C   UNL     1       1.195   3.413  20.169  0.00  0.00    +0.000 A 
ATOM     20  C   UNL     1       1.780   2.283  19.598  0.00  0.00    +0.000 A 
ATOM     21  C   UNL     1       3.127   2.300  19.220  0.00  0.00    +0.000 A 
ENDBRANCH  15  16
ENDBRANCH  14  15
ENDBRANCH   2  14
TORSDOF 5
ENDMDL
MODEL 6
REMARK VINA RESULT:      -7.6      0.845      1.194
REMARK  Name = 
REMARK  6 active torsions:
REMARK  status: ('A' for Active; 'I' for Inactive)
REMARK    1  A    between atoms: C_1  and  C_2
REMARK    2  A    between atoms: C_2  and  C_4
REMARK    3  A    between atoms: C_8  and  N_9
REMARK    4  A    between atoms: C_10  and  C_12
REMARK    5  A    between atoms: C_12  and  O_13
REMARK    6  A    between atoms: O_13  and  C_14
REMARK                            x       y       z     vdW  Elec       q    Type
REMARK                         _______ _______ _______ _____ _____    ______ ____
ROOT
ATOM      1  N   UNL     1       5.925   5.047  15.870  0.00  0.00    +0.000 N 
ATOM      2  C   UNL     1       6.625   4.812  17.049  0.00  0.00    +0.000 C 
ATOM      3  O   UNL     1       7.775   4.387  17.137  0.00  0.00    +0.000 OA
ATOM      4  H   UNL     1       5.042   5.537  15.956  0.00  0.00    +0.000 HD
ENDROOT
BRANCH   1   9
ATOM      5  C   UNL     1       6.056   3.605  12.442  0.00  0.00    +0.000 A 
ATOM      6  C   UNL     1       7.181   4.239  11.914  0.00  0.00    +0.000 A 
ATOM      7  C   UNL     1       7.904   5.134  12.693  0.00  0.00    +0.000 A 
ATOM      8  C   UNL     1       7.507   5.407  14.004  0.00  0.00    +0.000 A 
ATOM      9  C   UNL     1       6.380   4.795  14.555  0.00  0.00    +0.000 A 
ATOM     10  C   UNL     1       5.664   3.877  13.769  0.00  0.00    +0.000 A 
BRANCH   5  12
ATOM     11  C   UNL     1       3.897   3.062  11.128  0.00  0.00    +0.000 C 
ATOM     12  C   UNL     1       5.252   2.636  11.638  0.00  0.00    +0.000 C 
ATOM     13  O   UNL     1       5.704   1.519  11.397  0.00  0.00    +0.000 OA
ENDBRANCH   5  12
ENDBRANCH   1   9
BRANCH   2  14
ATOM     14  C   UNL     1       5.826   5.151  18.305  0.00  0.00    +0.000 C 
BRANCH  14  15
ATOM     15  O   UNL     1       4.503   5.458  17.885  0.00  0.00    +0.000 OA
BRANCH  15  16
ATOM     16  C   UNL     1       3.502   4.762  18.501  0.00  0.00    +0.000 A 
ATOM     17  C   UNL     1       2.350   4.571  17.733  0.00  0.00    +0.000 A 
ATOM     18  C   UNL     1       1.288   3.812  18.223  0.00  0.00    +0.000 A 
ATOM     19  C   UNL     1       1.378   3.228  19.484  0.00  0.00    +0.000 A 
ATOM     20  C   UNL     1       2.524   3.418  20.257  0.00  0.00    +0.000 A 
ATOM     21  C   UNL     1       3.586   4.188  19.769  0.00  0.00    +0.000 A 
ENDBRANCH  15  16
ENDBRANCH  14  15
ENDBRANCH   2  14
TORSDOF 5
ENDMDL
MODEL 7
REMARK VINA RESULT:      -7.5      0.809      1.059
REMARK  Name = 
REMARK  6 active torsions:
REMARK  status: ('A' for Active; 'I' for Inactive)
REMARK    1  A    between atoms: C_1  and  C_2
REMARK    2  A    between atoms: C_2  and  C_4
REMARK    3  A    between atoms: C_8  and  N_9
REMARK    4  A    between atoms: C_10  and  C_12
REMARK    5  A    between atoms: C_12  and  O_13
REMARK    6  A    between atoms: O_13  and  C_14
REMARK                            x       y       z     vdW  Elec       q    Type
REMARK                         _______ _______ _______ _____ _____    ______ ____
ROOT
ATOM      1  N   UNL     1       5.997   4.661  15.903  0.00  0.00    +0.000 N 
ATOM      2  C   UNL     1       6.763   4.523  17.057  0.00  0.00    +0.000 C 
ATOM      3  O   UNL     1       7.977   4.333  17.103  0.00  0.00    +0.000 OA
ATOM      4  H   UNL     1       5.038   4.960  16.028  0.00  0.00    +0.000 HD
ENDROOT
BRANCH   1   9
ATOM      5  C   UNL     1       6.263   3.473  12.387  0.00  0.00    +0.000 A 
ATOM      6  C   UNL     1       7.275   4.294  11.889  0.00  0.00    +0.000 A 
ATOM      7  C   UNL     1       7.880   5.231  12.717  0.00  0.00    +0.000 A 
ATOM      8  C   UNL     1       7.474   5.362  14.047  0.00  0.00    +0.000 A 
ATOM      9  C   UNL     1       6.457   4.560  14.569  0.00  0.00    +0.000 A 
ATOM     10  C   UNL     1       5.864   3.602  13.733  0.00  0.00    +0.000 A 
BRANCH   5  12
ATOM     11  C   UNL     1       6.374   1.238  11.092  0.00  0.00    +0.000 C 
ATOM     12  C   UNL     1       5.589   2.451  11.530  0.00  0.00    +0.000 C 
ATOM     13  O   UNL     1       4.414   2.605  11.203  0.00  0.00    +0.000 OA
ENDBRANCH   5  12
ENDBRANCH   1   9
BRANCH   2  14
ATOM     14  C   UNL     1       5.947   4.641  18.342  0.00  0.00    +0.000 C 
BRANCH  14  15
ATOM     15  O   UNL     1       4.671   5.149  17.977  0.00  0.00    +0.000 OA
BRANCH  15  16
ATOM     16  C   UNL     1       3.610   4.316  18.193  0.00  0.00    +0.000 A 
ATOM     17  C   UNL     1       3.926   2.956  18.258  0.00  0.00    +0.000 A 
ATOM     18  C   UNL     1       2.941   2.012  18.548  0.00  0.00    +0.000 A 
ATOM     19  C   UNL     1       1.633   2.427  18.787  0.00  0.00    +0.000 A 
ATOM     20  C   UNL     1       1.311   3.782  18.720  0.00  0.00    +0.000 A 
ATOM     21  C   UNL     1       2.297   4.728  18.420  0.00  0.00    +0.000 A 
ENDBRANCH  15  16
ENDBRANCH  14  15
ENDBRANCH   2  14
TORSDOF 5
ENDMDL
MODEL 8
REMARK VINA RESULT:      -7.5      1.012      1.362
REMARK  Name = 
REMARK  6 active torsions:
REMARK  status: ('A' for Active; 'I' for Inactive)
REMARK    1  A    between atoms: C_1  and  C_2
REMARK    2  A    between atoms: C_2  and  C_4
REMARK    3  A    between atoms: C_8  and  N_9
REMARK    4  A    between atoms: C_10  and  C_12
REMARK    5  A    between atoms: C_12  and  O_13
REMARK    6  A    between atoms: O_13  and  C_14
REMARK                            x       y       z     vdW  Elec       q    Type
REMARK                         _______ _______ _______ _____ _____    ______ ____
ROOT
ATOM      1  N   UNL     1       6.906   4.663  15.966  0.00  0.00    +0.000 N 
ATOM      2  C   UNL     1       6.400   5.709  16.730  0.00  0.00    +0.000 C 
ATOM      3  O   UNL     1       5.924   6.758  16.300  0.00  0.00    +0.000 OA
ATOM      4  H   UNL     1       7.125   3.805  16.459  0.00  0.00    +0.000 HD
ENDROOT
BRANCH   1   9
ATOM      5  C   UNL     1       6.234   3.677  12.441  0.00  0.00    +0.000 A 
ATOM      6  C   UNL     1       7.132   4.488  11.747  0.00  0.00    +0.000 A 
ATOM      7  C   UNL     1       7.969   5.352  12.442  0.00  0.00    +0.000 A 
ATOM      8  C   UNL     1       7.911   5.418  13.836  0.00  0.00    +0.000 A 
ATOM      9  C   UNL     1       7.016   4.625  14.556  0.00  0.00    +0.000 A 
ATOM     10  C   UNL     1       6.187   3.740  13.849  0.00  0.00    +0.000 A 
BRANCH   5  12
ATOM     11  C   UNL     1       3.968   3.232  11.279  0.00  0.00    +0.000 C 
ATOM     12  C   UNL     1       5.319   2.733  11.731  0.00  0.00    +0.000 C 
ATOM     13  O   UNL     1       5.679   1.577  11.517  0.00  0.00    +0.000 OA
ENDBRANCH   5  12
ENDBRANCH   1   9
BRANCH   2  14
ATOM     14  C   UNL     1       6.467   5.448  18.233  0.00  0.00    +0.000 C 
BRANCH  14  15
ATOM     15  O   UNL     1       5.865   4.180  18.461  0.00  0.00    +0.000 OA
BRANCH  15  16
ATOM     16  C   UNL     1       4.511   4.120  18.290  0.00  0.00    +0.000 A 
ATOM     17  C   UNL     1       3.779   5.081  18.993  0.00  0.00    +0.000 A 
ATOM     18  C   UNL     1       2.395   5.170  18.843  0.00  0.00    +0.000 A 
ATOM     19  C   UNL     1       1.737   4.303  17.975  0.00  0.00    +0.000 A 
ATOM     20  C   UNL     1       2.461   3.339  17.272  0.00  0.00    +0.000 A 
ATOM     21  C   UNL     1       3.848   3.244  17.431  0.00  0.00    +0.000 A 
ENDBRANCH  15  16
ENDBRANCH  14  15
ENDBRANCH   2  14
TORSDOF 5
ENDMDL
MODEL 9
REMARK VINA RESULT:      -7.5      1.336      1.571
REMARK  Name = 
REMARK  6 active torsions:
REMARK  status: ('A' for Active; 'I' for Inactive)
REMARK    1  A    between atoms: C_1  and  C_2
REMARK    2  A    between atoms: C_2  and  C_4
REMARK    3  A    between atoms: C_8  and  N_9
REMARK    4  A    between atoms: C_10  and  C_12
REMARK    5  A    between atoms: C_12  and  O_13
REMARK    6  A    between atoms: O_13  and  C_14
REMARK                            x       y       z     vdW  Elec       q    Type
REMARK                         _______ _______ _______ _____ _____    ______ ____
ROOT
ATOM      1  N   UNL     1       5.927   4.532  16.089  0.00  0.00    +0.000 N 
ATOM      2  C   UNL     1       5.270   5.598  16.695  0.00  0.00    +0.000 C 
ATOM      3  O   UNL     1       4.914   6.638  16.145  0.00  0.00    +0.000 OA
ATOM      4  H   UNL     1       6.021   3.686  16.638  0.00  0.00    +0.000 HD
ENDROOT
BRANCH   1   9
ATOM      5  C   UNL     1       6.010   3.531  12.506  0.00  0.00    +0.000 A 
ATOM      6  C   UNL     1       7.100   4.265  12.035  0.00  0.00    +0.000 A 
ATOM      7  C   UNL     1       7.815   5.081  12.902  0.00  0.00    +0.000 A 
ATOM      8  C   UNL     1       7.445   5.176  14.246  0.00  0.00    +0.000 A 
ATOM      9  C   UNL     1       6.354   4.461  14.743  0.00  0.00    +0.000 A 
ATOM     10  C   UNL     1       5.647   3.623  13.865  0.00  0.00    +0.000 A 
BRANCH   5  12
ATOM     11  C   UNL     1       3.901   3.144  11.063  0.00  0.00    +0.000 C 
ATOM     12  C   UNL     1       5.216   2.641  11.606  0.00  0.00    +0.000 C 
ATOM     13  O   UNL     1       5.645   1.527  11.316  0.00  0.00    +0.000 OA
ENDBRANCH   5  12
ENDBRANCH   1   9
BRANCH   2  14
ATOM     14  C   UNL     1       4.991   5.372  18.179  0.00  0.00    +0.000 C 
BRANCH  14  15
ATOM     15  O   UNL     1       4.701   3.990  18.341  0.00  0.00    +0.000 OA
BRANCH  15  16
ATOM     16  C   UNL     1       3.473   3.693  18.860  0.00  0.00    +0.000 A 
ATOM     17  C   UNL     1       2.427   3.662  17.935  0.00  0.00    +0.000 A 
ATOM     18  C   UNL     1       1.139   3.297  18.330  0.00  0.00    +0.000 A 
ATOM     19  C   UNL     1       0.895   2.949  19.655  0.00  0.00    +0.000 A 
ATOM     20  C   UNL     1       1.935   2.981  20.586  0.00  0.00    +0.000 A 
ATOM     21  C   UNL     1       3.224   3.356  20.191  0.00  0.00    +0.000 A 
ENDBRANCH  15  16
ENDBRANCH  14  15
ENDBRANCH   2  14
TORSDOF 5
ENDMDL
