MODEL 1
REMARK VINA RESULT:      -6.5      0.000      0.000
REMARK  Name = 
REMARK  10 active torsions:
REMARK  status: ('A' for Active; 'I' for Inactive)
REMARK    1  A    between atoms: C_1  and  O_2
REMARK    2  A    between atoms: O_2  and  C_3
REMARK    3  A    between atoms: C_3  and  C_5
REMARK    4  A    between atoms: C_5  and  C_6
REMARK    5  A    between atoms: C_14  and  C_15
REMARK    6  A    between atoms: C_16  and  C_17
REMARK    7  A    between atoms: C_16  and  C_18
REMARK    8  A    between atoms: C_18  and  C_19
REMARK    9  A    between atoms: C_20  and  C_21
REMARK   10  A    between atoms: C_26  and  C_27
REMARK                            x       y       z     vdW  Elec       q    Type
REMARK                         _______ _______ _______ _____ _____    ______ ____
ROOT
ATOM      1  C   UNL     1       0.238  12.112  20.066  0.00  0.00    +0.000 C 
ATOM      2  C   UNL     1       1.600  12.096  20.815  0.00  0.00    +0.000 C 
ATOM      3  C   UNL     1       0.394  13.221  18.983  0.00  0.00    +0.000 C 
ATOM      4  C   UNL     1      -0.615  14.344  18.950  0.00  0.00    +0.000 C 
ATOM      5  C   UNL     1      -1.678  14.339  19.980  0.00  0.00    +0.000 C 
ATOM      6  C   UNL     1      -1.918  13.414  20.927  0.00  0.00    +0.000 C 
ATOM      7  C   UNL     1      -1.024  12.185  21.041  0.00  0.00    +0.000 C 
ATOM      8  C   UNL     1      -0.615  11.898  22.505  0.00  0.00    +0.000 C 
ATOM      9  C   UNL     1      -1.751  12.029  23.507  0.00  0.00    +0.000 C 
ATOM     10  C   UNL     1      -2.467  13.389  23.402  0.00  0.00    +0.000 C 
ATOM     11  C   UNL     1      -1.511  14.518  23.821  0.00  0.00    +0.000 C 
ATOM     12  C   UNL     1      -3.093  13.565  21.978  0.00  0.00    +0.000 C 
ATOM     13  C   UNL     1      -3.749  14.968  21.817  0.00  0.00    +0.000 C 
ENDROOT
BRANCH   1  14
ATOM     14  C   UNL     1       0.125  10.772  19.317  0.00  0.00    +0.000 C 
ATOM     15  O   UNL     1      -0.759   9.951  19.485  0.00  0.00    +0.000 OA
BRANCH  14  17
ATOM     16  C   UNL     1       1.330   9.287  17.965  0.00  0.00    +0.000 C 
ATOM     17  O   UNL     1       1.140  10.632  18.409  0.00  0.00    +0.000 OA
ENDBRANCH  14  17
ENDBRANCH   1  14
BRANCH  12  18
ATOM     18  C   UNL     1      -4.251  12.487  21.784  0.00  0.00    +0.000 C 
BRANCH  18  19
ATOM     19  C   UNL     1      -5.270  12.788  20.671  0.00  0.00    +0.000 A 
ATOM     20  C   UNL     1      -6.519  13.423  20.722  0.00  0.00    +0.000 A 
ATOM     21  C   UNL     1      -7.387  14.003  21.781  0.00  0.00    +0.000 C 
ATOM     22  N   UNL     1      -6.992  13.515  19.432  0.00  0.00    +0.000 N 
ATOM     23  C   UNL     1      -6.140  12.926  18.545  0.00  0.00    +0.000 A 
ATOM     24  C   UNL     1      -6.241  12.818  17.156  0.00  0.00    +0.000 A 
ATOM     25  C   UNL     1      -5.222  12.137  16.488  0.00  0.00    +0.000 A 
ATOM     26  C   UNL     1      -4.146  11.577  17.184  0.00  0.00    +0.000 A 
ATOM     27  C   UNL     1      -4.072  11.718  18.583  0.00  0.00    +0.000 A 
ATOM     28  C   UNL     1      -5.080  12.415  19.285  0.00  0.00    +0.000 A 
ATOM     29  H   UNL     1      -7.864  13.956  19.174  0.00  0.00    +0.000 HD
BRANCH  26  30
ATOM     30  C   UNL     1      -3.061  10.824  16.456  0.00  0.00    +0.000 C 
ATOM     31  F   UNL     1      -2.988  11.123  15.128  0.00  0.00    +0.000 F 
ATOM     32  F   UNL     1      -1.821  11.072  16.962  0.00  0.00    +0.000 F 
ATOM     33  F   UNL     1      -3.231   9.474  16.524  0.00  0.00    +0.000 F 
ENDBRANCH  26  30
ENDBRANCH  18  19
ENDBRANCH  12  18
TORSDOF 5
ENDMDL
MODEL 2
REMARK VINA RESULT:      -6.2      2.849      5.441
REMARK  Name = 
REMARK  10 active torsions:
REMARK  status: ('A' for Active; 'I' for Inactive)
REMARK    1  A    between atoms: C_1  and  O_2
REMARK    2  A    between atoms: O_2  and  C_3
REMARK    3  A    between atoms: C_3  and  C_5
REMARK    4  A    between atoms: C_5  and  C_6
REMARK    5  A    between atoms: C_14  and  C_15
REMARK    6  A    between atoms: C_16  and  C_17
REMARK    7  A    between atoms: C_16  and  C_18
REMARK    8  A    between atoms: C_18  and  C_19
REMARK    9  A    between atoms: C_20  and  C_21
REMARK   10  A    between atoms: C_26  and  C_27
REMARK                            x       y       z     vdW  Elec       q    Type
REMARK                         _______ _______ _______ _____ _____    ______ ____
ROOT
ATOM      1  C   UNL     1      -3.813  13.721  22.798  0.00  0.00    +0.000 C 
ATOM      2  C   UNL     1      -4.328  14.679  23.908  0.00  0.00    +0.000 C 
ATOM      3  C   UNL     1      -3.465  12.399  23.545  0.00  0.00    +0.000 C 
ATOM      4  C   UNL     1      -2.072  11.834  23.402  0.00  0.00    +0.000 C 
ATOM      5  C   UNL     1      -1.105  12.599  22.583  0.00  0.00    +0.000 C 
ATOM      6  C   UNL     1      -1.316  13.722  21.873  0.00  0.00    +0.000 C 
ATOM      7  C   UNL     1      -2.695  14.373  21.863  0.00  0.00    +0.000 C 
ATOM      8  C   UNL     1      -2.615  15.903  22.072  0.00  0.00    +0.000 C 
ATOM      9  C   UNL     1      -1.516  16.586  21.275  0.00  0.00    +0.000 C 
ATOM     10  C   UNL     1      -0.139  15.936  21.506  0.00  0.00    +0.000 C 
ATOM     11  C   UNL     1       0.308  16.159  22.960  0.00  0.00    +0.000 C 
ATOM     12  C   UNL     1      -0.163  14.437  21.058  0.00  0.00    +0.000 C 
ATOM     13  C   UNL     1       1.193  13.733  21.361  0.00  0.00    +0.000 C 
ENDROOT
BRANCH   1  14
ATOM     14  C   UNL     1      -5.012  13.413  21.882  0.00  0.00    +0.000 C 
ATOM     15  O   UNL     1      -5.288  14.024  20.865  0.00  0.00    +0.000 OA
BRANCH  14  17
ATOM     16  C   UNL     1      -7.131  12.543  22.367  0.00  0.00    +0.000 C 
ATOM     17  O   UNL     1      -5.717  12.336  22.347  0.00  0.00    +0.000 OA
ENDBRANCH  14  17
ENDBRANCH   1  14
BRANCH  12  18
ATOM     18  C   UNL     1      -0.376  14.371  19.479  0.00  0.00    +0.000 C 
BRANCH  18  19
ATOM     19  C   UNL     1      -0.277  12.972  18.845  0.00  0.00    +0.000 A 
ATOM     20  C   UNL     1       0.841  12.222  18.456  0.00  0.00    +0.000 A 
ATOM     21  C   UNL     1       2.315  12.426  18.428  0.00  0.00    +0.000 C 
ATOM     22  N   UNL     1       0.390  10.996  18.020  0.00  0.00    +0.000 N 
ATOM     23  C   UNL     1      -0.971  10.925  18.056  0.00  0.00    +0.000 A 
ATOM     24  C   UNL     1      -1.813   9.864  17.716  0.00  0.00    +0.000 A 
ATOM     25  C   UNL     1      -3.188  10.071  17.829  0.00  0.00    +0.000 A 
ATOM     26  C   UNL     1      -3.704  11.299  18.258  0.00  0.00    +0.000 A 
ATOM     27  C   UNL     1      -2.823  12.342  18.604  0.00  0.00    +0.000 A 
ATOM     28  C   UNL     1      -1.426  12.156  18.515  0.00  0.00    +0.000 A 
ATOM     29  H   UNL     1       0.990  10.246  17.706  0.00  0.00    +0.000 HD
BRANCH  26  30
ATOM     30  C   UNL     1      -5.191  11.522  18.357  0.00  0.00    +0.000 C 
ATOM     31  F   UNL     1      -5.718  11.157  19.560  0.00  0.00    +0.000 F 
ATOM     32  F   UNL     1      -5.539  12.827  18.179  0.00  0.00    +0.000 F 
ATOM     33  F   UNL     1      -5.886  10.819  17.419  0.00  0.00    +0.000 F 
ENDBRANCH  26  30
ENDBRANCH  18  19
ENDBRANCH  12  18
TORSDOF 5
ENDMDL
MODEL 3
REMARK VINA RESULT:      -6.1      2.628      5.468
REMARK  Name = 
REMARK  10 active torsions:
REMARK  status: ('A' for Active; 'I' for Inactive)
REMARK    1  A    between atoms: C_1  and  O_2
REMARK    2  A    between atoms: O_2  and  C_3
REMARK    3  A    between atoms: C_3  and  C_5
REMARK    4  A    between atoms: C_5  and  C_6
REMARK    5  A    between atoms: C_14  and  C_15
REMARK    6  A    between atoms: C_16  and  C_17
REMARK    7  A    between atoms: C_16  and  C_18
REMARK    8  A    between atoms: C_18  and  C_19
REMARK    9  A    between atoms: C_20  and  C_21
REMARK   10  A    between atoms: C_26  and  C_27
REMARK                            x       y       z     vdW  Elec       q    Type
REMARK                         _______ _______ _______ _____ _____    ______ ____
ROOT
ATOM      1  C   UNL     1      -4.333  13.446  21.908  0.00  0.00    +0.000 C 
ATOM      2  C   UNL     1      -5.441  14.286  22.604  0.00  0.00    +0.000 C 
ATOM      3  C   UNL     1      -3.835  12.459  23.005  0.00  0.00    +0.000 C 
ATOM      4  C   UNL     1      -2.363  12.435  23.341  0.00  0.00    +0.000 C 
ATOM      5  C   UNL     1      -1.483  13.385  22.625  0.00  0.00    +0.000 C 
ATOM      6  C   UNL     1      -1.807  14.245  21.642  0.00  0.00    +0.000 C 
ATOM      7  C   UNL     1      -3.246  14.333  21.146  0.00  0.00    +0.000 C 
ATOM      8  C   UNL     1      -3.722  15.798  21.003  0.00  0.00    +0.000 C 
ATOM      9  C   UNL     1      -2.704  16.725  20.359  0.00  0.00    +0.000 C 
ATOM     10  C   UNL     1      -1.335  16.667  21.063  0.00  0.00    +0.000 C 
ATOM     11  C   UNL     1      -1.454  17.231  22.488  0.00  0.00    +0.000 C 
ATOM     12  C   UNL     1      -0.746  15.220  20.986  0.00  0.00    +0.000 C 
ATOM     13  C   UNL     1       0.599  15.113  21.765  0.00  0.00    +0.000 C 
ENDROOT
BRANCH   1  14
ATOM     14  C   UNL     1      -5.028  12.598  20.828  0.00  0.00    +0.000 C 
ATOM     15  O   UNL     1      -4.712  12.570  19.652  0.00  0.00    +0.000 OA
BRANCH  14  17
ATOM     16  C   UNL     1      -6.914  11.278  20.394  0.00  0.00    +0.000 C 
ATOM     17  O   UNL     1      -6.040  11.851  21.369  0.00  0.00    +0.000 OA
ENDBRANCH  14  17
ENDBRANCH   1  14
BRANCH  12  18
ATOM     18  C   UNL     1      -0.428  14.869  19.464  0.00  0.00    +0.000 C 
BRANCH  18  19
ATOM     19  C   UNL     1       0.272  13.521  19.216  0.00  0.00    +0.000 A 
ATOM     20  C   UNL     1       1.591  13.116  19.465  0.00  0.00    +0.000 A 
ATOM     21  C   UNL     1       2.830  13.753  19.987  0.00  0.00    +0.000 C 
ATOM     22  N   UNL     1       1.686  11.781  19.140  0.00  0.00    +0.000 N 
ATOM     23  C   UNL     1       0.509  11.305  18.642  0.00  0.00    +0.000 A 
ATOM     24  C   UNL     1       0.184  10.016  18.214  0.00  0.00    +0.000 A 
ATOM     25  C   UNL     1      -1.106   9.805  17.725  0.00  0.00    +0.000 A 
ATOM     26  C   UNL     1      -2.035  10.849  17.657  0.00  0.00    +0.000 A 
ATOM     27  C   UNL     1      -1.675  12.133  18.110  0.00  0.00    +0.000 A 
ATOM     28  C   UNL     1      -0.382  12.372  18.625  0.00  0.00    +0.000 A 
ATOM     29  H   UNL     1       2.522  11.226  19.249  0.00  0.00    +0.000 HD
BRANCH  26  30
ATOM     30  C   UNL     1      -3.419  10.619  17.107  0.00  0.00    +0.000 C 
ATOM     31  F   UNL     1      -3.434   9.886  15.957  0.00  0.00    +0.000 F 
ATOM     32  F   UNL     1      -4.228   9.957  17.980  0.00  0.00    +0.000 F 
ATOM     33  F   UNL     1      -4.061  11.783  16.812  0.00  0.00    +0.000 F 
ENDBRANCH  26  30
ENDBRANCH  18  19
ENDBRANCH  12  18
TORSDOF 5
ENDMDL
MODEL 4
REMARK VINA RESULT:      -6.0      2.520      3.651
REMARK  Name = 
REMARK  10 active torsions:
REMARK  status: ('A' for Active; 'I' for Inactive)
REMARK    1  A    between atoms: C_1  and  O_2
REMARK    2  A    between atoms: O_2  and  C_3
REMARK    3  A    between atoms: C_3  and  C_5
REMARK    4  A    between atoms: C_5  and  C_6
REMARK    5  A    between atoms: C_14  and  C_15
REMARK    6  A    between atoms: C_16  and  C_17
REMARK    7  A    between atoms: C_16  and  C_18
REMARK    8  A    between atoms: C_18  and  C_19
REMARK    9  A    between atoms: C_20  and  C_21
REMARK   10  A    between atoms: C_26  and  C_27
REMARK                            x       y       z     vdW  Elec       q    Type
REMARK                         _______ _______ _______ _____ _____    ______ ____
ROOT
ATOM      1  C   UNL     1      -0.298  15.851  20.314  0.00  0.00    +0.000 C 
ATOM      2  C   UNL     1       0.915  16.604  20.929  0.00  0.00    +0.000 C 
ATOM      3  C   UNL     1      -1.015  16.911  19.426  0.00  0.00    +0.000 C 
ATOM      4  C   UNL     1      -2.479  17.186  19.671  0.00  0.00    +0.000 C 
ATOM      5  C   UNL     1      -3.138  16.452  20.773  0.00  0.00    +0.000 C 
ATOM      6  C   UNL     1      -2.620  15.497  21.567  0.00  0.00    +0.000 C 
ATOM      7  C   UNL     1      -1.170  15.060  21.393  0.00  0.00    +0.000 C 
ATOM      8  C   UNL     1      -0.427  14.961  22.746  0.00  0.00    +0.000 C 
ATOM      9  C   UNL     1      -1.229  14.292  23.850  0.00  0.00    +0.000 C 
ATOM     10  C   UNL     1      -2.614  14.939  24.040  0.00  0.00    +0.000 C 
ATOM     11  C   UNL     1      -2.453  16.376  24.560  0.00  0.00    +0.000 C 
ATOM     12  C   UNL     1      -3.456  14.815  22.726  0.00  0.00    +0.000 C 
ATOM     13  C   UNL     1      -4.829  15.537  22.863  0.00  0.00    +0.000 C 
ENDROOT
BRANCH   1  14
ATOM     14  C   UNL     1       0.275  14.785  19.361  0.00  0.00    +0.000 C 
ATOM     15  O   UNL     1      -0.278  14.380  18.354  0.00  0.00    +0.000 OA
BRANCH  14  17
ATOM     16  C   UNL     1       2.276  13.729  18.757  0.00  0.00    +0.000 C 
ATOM     17  O   UNL     1       1.509  14.369  19.780  0.00  0.00    +0.000 OA
ENDBRANCH  14  17
ENDBRANCH   1  14
BRANCH  12  18
ATOM     18  C   UNL     1      -3.768  13.276  22.454  0.00  0.00    +0.000 C 
BRANCH  18  19
ATOM     19  C   UNL     1      -3.847  12.858  20.974  0.00  0.00    +0.000 A 
ATOM     20  C   UNL     1      -4.876  13.011  20.035  0.00  0.00    +0.000 A 
ATOM     21  C   UNL     1      -6.262  13.553  20.038  0.00  0.00    +0.000 C 
ATOM     22  N   UNL     1      -4.412  12.541  18.827  0.00  0.00    +0.000 N 
ATOM     23  C   UNL     1      -3.149  12.038  18.941  0.00  0.00    +0.000 A 
ATOM     24  C   UNL     1      -2.322  11.486  17.960  0.00  0.00    +0.000 A 
ATOM     25  C   UNL     1      -1.068  11.025  18.359  0.00  0.00    +0.000 A 
ATOM     26  C   UNL     1      -0.656  11.105  19.694  0.00  0.00    +0.000 A 
ATOM     27  C   UNL     1      -1.512  11.681  20.653  0.00  0.00    +0.000 A 
ATOM     28  C   UNL     1      -2.782  12.170  20.275  0.00  0.00    +0.000 A 
ATOM     29  H   UNL     1      -4.941  12.557  17.967  0.00  0.00    +0.000 HD
BRANCH  26  30
ATOM     30  C   UNL     1       0.692  10.585  20.121  0.00  0.00    +0.000 C 
ATOM     31  F   UNL     1       0.638   9.367  20.731  0.00  0.00    +0.000 F 
ATOM     32  F   UNL     1       1.554  10.440  19.077  0.00  0.00    +0.000 F 
ATOM     33  F   UNL     1       1.312  11.415  21.006  0.00  0.00    +0.000 F 
ENDBRANCH  26  30
ENDBRANCH  18  19
ENDBRANCH  12  18
TORSDOF 5
ENDMDL
MODEL 5
REMARK VINA RESULT:      -6.0      0.735      1.096
REMARK  Name = 
REMARK  10 active torsions:
REMARK  status: ('A' for Active; 'I' for Inactive)
REMARK    1  A    between atoms: C_1  and  O_2
REMARK    2  A    between atoms: O_2  and  C_3
REMARK    3  A    between atoms: C_3  and  C_5
REMARK    4  A    between atoms: C_5  and  C_6
REMARK    5  A    between atoms: C_14  and  C_15
REMARK    6  A    between atoms: C_16  and  C_17
REMARK    7  A    between atoms: C_16  and  C_18
REMARK    8  A    between atoms: C_18  and  C_19
REMARK    9  A    between atoms: C_20  and  C_21
REMARK   10  A    between atoms: C_26  and  C_27
REMARK                            x       y       z     vdW  Elec       q    Type
REMARK                         _______ _______ _______ _____ _____    ______ ____
ROOT
ATOM      1  C   UNL     1      -0.065  11.688  20.402  0.00  0.00    +0.000 C 
ATOM      2  C   UNL     1       1.271  11.712  21.197  0.00  0.00    +0.000 C 
ATOM      3  C   UNL     1       0.195  12.592  19.160  0.00  0.00    +0.000 C 
ATOM      4  C   UNL     1      -0.735  13.753  18.905  0.00  0.00    +0.000 C 
ATOM      5  C   UNL     1      -1.825  13.983  19.879  0.00  0.00    +0.000 C 
ATOM      6  C   UNL     1      -2.154  13.244  20.954  0.00  0.00    +0.000 C 
ATOM      7  C   UNL     1      -1.347  11.997  21.302  0.00  0.00    +0.000 C 
ATOM      8  C   UNL     1      -1.001  11.931  22.808  0.00  0.00    +0.000 C 
ATOM      9  C   UNL     1      -2.153  12.296  23.730  0.00  0.00    +0.000 C 
ATOM     10  C   UNL     1      -2.773  13.661  23.377  0.00  0.00    +0.000 C 
ATOM     11  C   UNL     1      -1.757  14.782  23.644  0.00  0.00    +0.000 C 
ATOM     12  C   UNL     1      -3.345  13.637  21.920  0.00  0.00    +0.000 C 
ATOM     13  C   UNL     1      -3.901  15.032  21.507  0.00  0.00    +0.000 C 
ENDROOT
BRANCH   1  14
ATOM     14  C   UNL     1      -0.246  10.251  19.877  0.00  0.00    +0.000 C 
ATOM     15  O   UNL     1      -0.617   9.960  18.755  0.00  0.00    +0.000 OA
BRANCH  14  17
ATOM     16  C   UNL     1       1.168   8.474  20.448  0.00  0.00    +0.000 C 
ATOM     17  O   UNL     1       0.095   9.336  20.835  0.00  0.00    +0.000 OA
ENDBRANCH  14  17
ENDBRANCH   1  14
BRANCH  12  18
ATOM     18  C   UNL     1      -4.566  12.615  21.859  0.00  0.00    +0.000 C 
BRANCH  18  19
ATOM     19  C   UNL     1      -5.602  12.871  20.749  0.00  0.00    +0.000 A 
ATOM     20  C   UNL     1      -6.875  13.455  20.804  0.00  0.00    +0.000 A 
ATOM     21  C   UNL     1      -7.760  14.005  21.865  0.00  0.00    +0.000 C 
ATOM     22  N   UNL     1      -7.358  13.524  19.516  0.00  0.00    +0.000 N 
ATOM     23  C   UNL     1      -6.487  12.965  18.627  0.00  0.00    +0.000 A 
ATOM     24  C   UNL     1      -6.590  12.847  17.239  0.00  0.00    +0.000 A 
ATOM     25  C   UNL     1      -5.549  12.205  16.568  0.00  0.00    +0.000 A 
ATOM     26  C   UNL     1      -4.448  11.690  17.261  0.00  0.00    +0.000 A 
ATOM     27  C   UNL     1      -4.373  11.840  18.659  0.00  0.00    +0.000 A 
ATOM     28  C   UNL     1      -5.404  12.500  19.364  0.00  0.00    +0.000 A 
ATOM     29  H   UNL     1      -8.248  13.928  19.261  0.00  0.00    +0.000 HD
BRANCH  26  30
ATOM     30  C   UNL     1      -3.338  10.978  16.532  0.00  0.00    +0.000 C 
ATOM     31  F   UNL     1      -3.182   9.678  16.912  0.00  0.00    +0.000 F 
ATOM     32  F   UNL     1      -3.528  10.951  15.184  0.00  0.00    +0.000 F 
ATOM     33  F   UNL     1      -2.126  11.569  16.727  0.00  0.00    +0.000 F 
ENDBRANCH  26  30
ENDBRANCH  18  19
ENDBRANCH  12  18
TORSDOF 5
ENDMDL
MODEL 6
REMARK VINA RESULT:      -6.0      2.562      5.665
REMARK  Name = 
REMARK  10 active torsions:
REMARK  status: ('A' for Active; 'I' for Inactive)
REMARK    1  A    between atoms: C_1  and  O_2
REMARK    2  A    between atoms: O_2  and  C_3
REMARK    3  A    between atoms: C_3  and  C_5
REMARK    4  A    between atoms: C_5  and  C_6
REMARK    5  A    between atoms: C_14  and  C_15
REMARK    6  A    between atoms: C_16  and  C_17
REMARK    7  A    between atoms: C_16  and  C_18
REMARK    8  A    between atoms: C_18  and  C_19
REMARK    9  A    between atoms: C_20  and  C_21
REMARK   10  A    between atoms: C_26  and  C_27
REMARK                            x       y       z     vdW  Elec       q    Type
REMARK                         _______ _______ _______ _____ _____    ______ ____
ROOT
ATOM      1  C   UNL     1      -6.450  12.603  18.877  0.00  0.00    +0.000 C 
ATOM      2  C   UNL     1      -7.471  13.124  17.827  0.00  0.00    +0.000 C 
ATOM      3  C   UNL     1      -7.133  11.355  19.511  0.00  0.00    +0.000 C 
ATOM      4  C   UNL     1      -7.308  11.311  21.010  0.00  0.00    +0.000 C 
ATOM      5  C   UNL     1      -6.848  12.484  21.787  0.00  0.00    +0.000 C 
ATOM      6  C   UNL     1      -6.217  13.585  21.340  0.00  0.00    +0.000 C 
ATOM      7  C   UNL     1      -5.907  13.741  19.855  0.00  0.00    +0.000 C 
ATOM      8  C   UNL     1      -6.273  15.150  19.331  0.00  0.00    +0.000 C 
ATOM      9  C   UNL     1      -5.860  16.286  20.253  0.00  0.00    +0.000 C 
ATOM     10  C   UNL     1      -6.382  16.091  21.689  0.00  0.00    +0.000 C 
ATOM     11  C   UNL     1      -7.916  16.180  21.705  0.00  0.00    +0.000 C 
ATOM     12  C   UNL     1      -5.803  14.773  22.303  0.00  0.00    +0.000 C 
ATOM     13  C   UNL     1      -6.383  14.506  23.724  0.00  0.00    +0.000 C 
ENDROOT
BRANCH   1  14
ATOM     14  C   UNL     1      -5.227  12.091  18.093  0.00  0.00    +0.000 C 
ATOM     15  O   UNL     1      -5.189  11.931  16.886  0.00  0.00    +0.000 OA
BRANCH  14  17
ATOM     16  C   UNL     1      -3.031  11.300  18.278  0.00  0.00    +0.000 C 
ATOM     17  O   UNL     1      -4.169  11.866  18.932  0.00  0.00    +0.000 OA
ENDBRANCH  14  17
ENDBRANCH   1  14
BRANCH  12  18
ATOM     18  C   UNL     1      -4.226  14.926  22.468  0.00  0.00    +0.000 C 
BRANCH  18  19
ATOM     19  C   UNL     1      -3.445  13.623  22.719  0.00  0.00    +0.000 A 
ATOM     20  C   UNL     1      -3.614  12.630  23.693  0.00  0.00    +0.000 A 
ATOM     21  C   UNL     1      -4.508  12.412  24.862  0.00  0.00    +0.000 C 
ATOM     22  N   UNL     1      -2.707  11.629  23.429  0.00  0.00    +0.000 N 
ATOM     23  C   UNL     1      -1.917  11.941  22.362  0.00  0.00    +0.000 A 
ATOM     24  C   UNL     1      -0.895  11.197  21.767  0.00  0.00    +0.000 A 
ATOM     25  C   UNL     1      -0.227  11.771  20.685  0.00  0.00    +0.000 A 
ATOM     26  C   UNL     1      -0.562  13.048  20.220  0.00  0.00    +0.000 A 
ATOM     27  C   UNL     1      -1.607  13.762  20.837  0.00  0.00    +0.000 A 
ATOM     28  C   UNL     1      -2.312  13.200  21.924  0.00  0.00    +0.000 A 
ATOM     29  H   UNL     1      -2.629  10.774  23.962  0.00  0.00    +0.000 HD
BRANCH  26  30
ATOM     30  C   UNL     1       0.179  13.670  19.065  0.00  0.00    +0.000 C 
ATOM     31  F   UNL     1      -0.637  14.283  18.161  0.00  0.00    +0.000 F 
ATOM     32  F   UNL     1       1.071  14.619  19.463  0.00  0.00    +0.000 F 
ATOM     33  F   UNL     1       0.898  12.755  18.355  0.00  0.00    +0.000 F 
ENDBRANCH  26  30
ENDBRANCH  18  19
ENDBRANCH  12  18
TORSDOF 5
ENDMDL
MODEL 7
REMARK VINA RESULT:      -5.9      9.465     13.057
REMARK  Name = 
REMARK  10 active torsions:
REMARK  status: ('A' for Active; 'I' for Inactive)
REMARK    1  A    between atoms: C_1  and  O_2
REMARK    2  A    between atoms: O_2  and  C_3
REMARK    3  A    between atoms: C_3  and  C_5
REMARK    4  A    between atoms: C_5  and  C_6
REMARK    5  A    between atoms: C_14  and  C_15
REMARK    6  A    between atoms: C_16  and  C_17
REMARK    7  A    between atoms: C_16  and  C_18
REMARK    8  A    between atoms: C_18  and  C_19
REMARK    9  A    between atoms: C_20  and  C_21
REMARK   10  A    between atoms: C_26  and  C_27
REMARK                            x       y       z     vdW  Elec       q    Type
REMARK                         _______ _______ _______ _____ _____    ______ ____
ROOT
ATOM      1  C   UNL     1       6.710  14.531  22.895  0.00  0.00    +0.000 C 
ATOM      2  C   UNL     1       6.188  15.010  24.279  0.00  0.00    +0.000 C 
ATOM      3  C   UNL     1       7.447  13.192  23.191  0.00  0.00    +0.000 C 
ATOM      4  C   UNL     1       8.887  13.049  22.758  0.00  0.00    +0.000 C 
ATOM      5  C   UNL     1       9.524  14.215  22.107  0.00  0.00    +0.000 C 
ATOM      6  C   UNL     1       8.966  15.394  21.776  0.00  0.00    +0.000 C 
ATOM      7  C   UNL     1       7.497  15.661  22.086  0.00  0.00    +0.000 C 
ATOM      8  C   UNL     1       7.281  17.055  22.720  0.00  0.00    +0.000 C 
ATOM      9  C   UNL     1       8.067  18.172  22.054  0.00  0.00    +0.000 C 
ATOM     10  C   UNL     1       9.570  17.850  21.954  0.00  0.00    +0.000 C 
ATOM     11  C   UNL     1      10.187  17.793  23.361  0.00  0.00    +0.000 C 
ATOM     12  C   UNL     1       9.793  16.561  21.096  0.00  0.00    +0.000 C 
ATOM     13  C   UNL     1      11.299  16.163  21.051  0.00  0.00    +0.000 C 
ENDROOT
BRANCH   1  14
ATOM     14  C   UNL     1       5.472  14.181  22.049  0.00  0.00    +0.000 C 
ATOM     15  O   UNL     1       4.544  13.488  22.424  0.00  0.00    +0.000 OA
BRANCH  14  17
ATOM     16  C   UNL     1       4.289  15.322  20.380  0.00  0.00    +0.000 C 
ATOM     17  O   UNL     1       5.537  14.779  20.819  0.00  0.00    +0.000 OA
ENDBRANCH  14  17
ENDBRANCH   1  14
BRANCH  12  18
ATOM     18  C   UNL     1       9.347  16.854  19.594  0.00  0.00    +0.000 C 
BRANCH  18  19
ATOM     19  C   UNL     1      10.255  16.269  18.496  0.00  0.00    +0.000 A 
ATOM     20  C   UNL     1      11.124  16.901  17.597  0.00  0.00    +0.000 A 
ATOM     21  C   UNL     1      11.504  18.302  17.274  0.00  0.00    +0.000 C 
ATOM     22  N   UNL     1      11.766  15.917  16.878  0.00  0.00    +0.000 N 
ATOM     23  C   UNL     1      11.323  14.676  17.226  0.00  0.00    +0.000 A 
ATOM     24  C   UNL     1      11.724  13.425  16.750  0.00  0.00    +0.000 A 
ATOM     25  C   UNL     1      11.082  12.302  17.272  0.00  0.00    +0.000 A 
ATOM     26  C   UNL     1      10.068  12.424  18.228  0.00  0.00    +0.000 A 
ATOM     27  C   UNL     1       9.699  13.701  18.692  0.00  0.00    +0.000 A 
ATOM     28  C   UNL     1      10.343  14.856  18.195  0.00  0.00    +0.000 A 
ATOM     29  H   UNL     1      12.471  16.092  16.176  0.00  0.00    +0.000 HD
BRANCH  26  30
ATOM     30  C   UNL     1       9.364  11.207  18.770  0.00  0.00    +0.000 C 
ATOM     31  F   UNL     1      10.203  10.167  19.039  0.00  0.00    +0.000 F 
ATOM     32  F   UNL     1       8.700  11.458  19.932  0.00  0.00    +0.000 F 
ATOM     33  F   UNL     1       8.432  10.717  17.905  0.00  0.00    +0.000 F 
ENDBRANCH  26  30
ENDBRANCH  18  19
ENDBRANCH  12  18
TORSDOF 5
ENDMDL
MODEL 8
REMARK VINA RESULT:      -5.9      2.219      3.264
REMARK  Name = 
REMARK  10 active torsions:
REMARK  status: ('A' for Active; 'I' for Inactive)
REMARK    1  A    between atoms: C_1  and  O_2
REMARK    2  A    between atoms: O_2  and  C_3
REMARK    3  A    between atoms: C_3  and  C_5
REMARK    4  A    between atoms: C_5  and  C_6
REMARK    5  A    between atoms: C_14  and  C_15
REMARK    6  A    between atoms: C_16  and  C_17
REMARK    7  A    between atoms: C_16  and  C_18
REMARK    8  A    between atoms: C_18  and  C_19
REMARK    9  A    between atoms: C_20  and  C_21
REMARK   10  A    between atoms: C_26  and  C_27
REMARK                            x       y       z     vdW  Elec       q    Type
REMARK                         _______ _______ _______ _____ _____    ______ ____
ROOT
ATOM      1  C   UNL     1       0.101  15.552  22.128  0.00  0.00    +0.000 C 
ATOM      2  C   UNL     1       1.092  16.536  22.811  0.00  0.00    +0.000 C 
ATOM      3  C   UNL     1      -0.206  16.195  20.743  0.00  0.00    +0.000 C 
ATOM      4  C   UNL     1      -1.645  16.460  20.373  0.00  0.00    +0.000 C 
ATOM      5  C   UNL     1      -2.682  16.123  21.374  0.00  0.00    +0.000 C 
ATOM      6  C   UNL     1      -2.524  15.535  22.574  0.00  0.00    +0.000 C 
ATOM      7  C   UNL     1      -1.131  15.143  23.057  0.00  0.00    +0.000 C 
ATOM      8  C   UNL     1      -0.887  15.562  24.525  0.00  0.00    +0.000 C 
ATOM      9  C   UNL     1      -2.054  15.279  25.457  0.00  0.00    +0.000 C 
ATOM     10  C   UNL     1      -3.375  15.877  24.937  0.00  0.00    +0.000 C 
ATOM     11  C   UNL     1      -3.295  17.412  24.948  0.00  0.00    +0.000 C 
ATOM     12  C   UNL     1      -3.741  15.258  23.547  0.00  0.00    +0.000 C 
ATOM     13  C   UNL     1      -5.028  15.908  22.958  0.00  0.00    +0.000 C 
ENDROOT
BRANCH   1  14
ATOM     14  C   UNL     1       0.881  14.253  21.853  0.00  0.00    +0.000 C 
ATOM     15  O   UNL     1       2.089  14.130  21.950  0.00  0.00    +0.000 OA
BRANCH  14  17
ATOM     16  C   UNL     1       0.680  12.140  20.862  0.00  0.00    +0.000 C 
ATOM     17  O   UNL     1       0.031  13.236  21.511  0.00  0.00    +0.000 OA
ENDBRANCH  14  17
ENDBRANCH   1  14
BRANCH  12  18
ATOM     18  C   UNL     1      -4.052  13.706  23.737  0.00  0.00    +0.000 C 
BRANCH  18  19
ATOM     19  C   UNL     1      -5.097  13.107  22.778  0.00  0.00    +0.000 A 
ATOM     20  C   UNL     1      -6.470  12.883  22.947  0.00  0.00    +0.000 A 
ATOM     21  C   UNL     1      -7.460  13.055  24.044  0.00  0.00    +0.000 C 
ATOM     22  N   UNL     1      -6.964  12.403  21.754  0.00  0.00    +0.000 N 
ATOM     23  C   UNL     1      -5.973  12.252  20.830  0.00  0.00    +0.000 A 
ATOM     24  C   UNL     1      -6.054  11.812  19.507  0.00  0.00    +0.000 A 
ATOM     25  C   UNL     1      -4.866  11.733  18.780  0.00  0.00    +0.000 A 
ATOM     26  C   UNL     1      -3.638  12.074  19.358  0.00  0.00    +0.000 A 
ATOM     27  C   UNL     1      -3.598  12.526  20.691  0.00  0.00    +0.000 A 
ATOM     28  C   UNL     1      -4.786  12.631  21.446  0.00  0.00    +0.000 A 
ATOM     29  H   UNL     1      -7.936  12.183  21.587  0.00  0.00    +0.000 HD
BRANCH  26  30
ATOM     30  C   UNL     1      -2.356  11.965  18.574  0.00  0.00    +0.000 C 
ATOM     31  F   UNL     1      -1.608  10.874  18.901  0.00  0.00    +0.000 F 
ATOM     32  F   UNL     1      -2.568  11.881  17.231  0.00  0.00    +0.000 F 
ATOM     33  F   UNL     1      -1.541  13.041  18.757  0.00  0.00    +0.000 F 
ENDBRANCH  26  30
ENDBRANCH  18  19
ENDBRANCH  12  18
TORSDOF 5
ENDMDL
MODEL 9
REMARK VINA RESULT:      -5.9      3.739      6.070
REMARK  Name = 
REMARK  10 active torsions:
REMARK  status: ('A' for Active; 'I' for Inactive)
REMARK    1  A    between atoms: C_1  and  O_2
REMARK    2  A    between atoms: O_2  and  C_3
REMARK    3  A    between atoms: C_3  and  C_5
REMARK    4  A    between atoms: C_5  and  C_6
REMARK    5  A    between atoms: C_14  and  C_15
REMARK    6  A    between atoms: C_16  and  C_17
REMARK    7  A    between atoms: C_16  and  C_18
REMARK    8  A    between atoms: C_18  and  C_19
REMARK    9  A    between atoms: C_20  and  C_21
REMARK   10  A    between atoms: C_26  and  C_27
REMARK                            x       y       z     vdW  Elec       q    Type
REMARK                         _______ _______ _______ _____ _____    ______ ____
ROOT
ATOM      1  C   UNL     1       0.369  11.202  19.919  0.00  0.00    +0.000 C 
ATOM      2  C   UNL     1       1.074  10.656  18.646  0.00  0.00    +0.000 C 
ATOM      3  C   UNL     1      -1.153  11.131  19.592  0.00  0.00    +0.000 C 
ATOM      4  C   UNL     1      -1.976  12.391  19.709  0.00  0.00    +0.000 C 
ATOM      5  C   UNL     1      -1.272  13.634  20.096  0.00  0.00    +0.000 C 
ATOM      6  C   UNL     1       0.021  13.791  20.432  0.00  0.00    +0.000 C 
ATOM      7  C   UNL     1       0.964  12.592  20.429  0.00  0.00    +0.000 C 
ATOM      8  C   UNL     1       2.308  12.914  19.733  0.00  0.00    +0.000 C 
ATOM      9  C   UNL     1       2.897  14.264  20.107  0.00  0.00    +0.000 C 
ATOM     10  C   UNL     1       1.894  15.415  19.903  0.00  0.00    +0.000 C 
ATOM     11  C   UNL     1       1.586  15.581  18.407  0.00  0.00    +0.000 C 
ATOM     12  C   UNL     1       0.633  15.203  20.805  0.00  0.00    +0.000 C 
ATOM     13  C   UNL     1      -0.436  16.308  20.554  0.00  0.00    +0.000 C 
ENDROOT
BRANCH   1  14
ATOM     14  C   UNL     1       0.631  10.184  21.045  0.00  0.00    +0.000 C 
ATOM     15  O   UNL     1       1.121   9.081  20.887  0.00  0.00    +0.000 OA
BRANCH  14  17
ATOM     16  C   UNL     1      -0.169   9.703  23.192  0.00  0.00    +0.000 C 
ATOM     17  O   UNL     1       0.264  10.696  22.260  0.00  0.00    +0.000 OA
ENDBRANCH  14  17
ENDBRANCH   1  14
BRANCH  12  18
ATOM     18  C   UNL     1       1.065  15.315  22.335  0.00  0.00    +0.000 C 
BRANCH  18  19
ATOM     19  C   UNL     1       0.062  16.019  23.267  0.00  0.00    +0.000 A 
ATOM     20  C   UNL     1       0.097  17.292  23.853  0.00  0.00    +0.000 A 
ATOM     21  C   UNL     1       1.051  18.433  23.889  0.00  0.00    +0.000 C 
ATOM     22  N   UNL     1      -1.087  17.470  24.534  0.00  0.00    +0.000 N 
ATOM     23  C   UNL     1      -1.873  16.357  24.466  0.00  0.00    +0.000 A 
ATOM     24  C   UNL     1      -3.143  16.134  25.002  0.00  0.00    +0.000 A 
ATOM     25  C   UNL     1      -3.718  14.880  24.797  0.00  0.00    +0.000 A 
ATOM     26  C   UNL     1      -3.043  13.880  24.088  0.00  0.00    +0.000 A 
ATOM     27  C   UNL     1      -1.769  14.146  23.551  0.00  0.00    +0.000 A 
ATOM     28  C   UNL     1      -1.169  15.412  23.729  0.00  0.00    +0.000 A 
ATOM     29  H   UNL     1      -1.340  18.314  25.028  0.00  0.00    +0.000 HD
BRANCH  26  30
ATOM     30  C   UNL     1      -3.662  12.520  23.888  0.00  0.00    +0.000 C 
ATOM     31  F   UNL     1      -4.521  12.462  22.831  0.00  0.00    +0.000 F 
ATOM     32  F   UNL     1      -2.733  11.549  23.666  0.00  0.00    +0.000 F 
ATOM     33  F   UNL     1      -4.379  12.112  24.972  0.00  0.00    +0.000 F 
ENDBRANCH  26  30
ENDBRANCH  18  19
ENDBRANCH  12  18
TORSDOF 5
ENDMDL
