MODEL 1
REMARK VINA RESULT:      -7.5      0.000      0.000
REMARK  Name = 
REMARK  7 active torsions:
REMARK  status: ('A' for Active; 'I' for Inactive)
REMARK    1  A    between atoms: C_1  and  C_2
REMARK    2  A    between atoms: N_4  and  C_5
REMARK    3  A    between atoms: C_5  and  C_6
REMARK    4  A    between atoms: N_8  and  C_9
REMARK    5  A    between atoms: N_8  and  C_17
REMARK    6  A    between atoms: C_9  and  C_10
REMARK    7  A    between atoms: C_10  and  C_11
REMARK                            x       y       z     vdW  Elec       q    Type
REMARK                         _______ _______ _______ _____ _____    ______ ____
ROOT
ATOM      1  C   UNL     1       6.171   4.916  18.706  0.00  0.00    +0.000 C 
ATOM      2  O   UNL     1       6.213   4.855  19.938  0.00  0.00    +0.000 OA
ATOM      3  N   UNL     1       4.987   4.776  17.970  0.00  0.00    +0.000 N 
ENDROOT
BRANCH   3   4
ATOM      4  C   UNL     1       3.694   4.377  18.613  0.00  0.00    +0.000 C 
ATOM      5  C   UNL     1       3.492   2.946  19.093  0.00  0.00    +0.000 C 
ATOM      6  C   UNL     1       2.932   2.237  17.875  0.00  0.00    +0.000 C 
ATOM      7  O   UNL     1       2.215   3.219  17.112  0.00  0.00    +0.000 OA
ATOM      8  C   UNL     1       2.474   4.507  17.689  0.00  0.00    +0.000 C 
ENDBRANCH   3   4
BRANCH   1   9
ATOM      9  C   UNL     1       7.483   5.282  17.997  0.00  0.00    +0.000 C 
BRANCH   9  13
ATOM     10  C   UNL     1       8.342   8.970  18.159  0.00  0.00    +0.000 C 
ATOM     11  C   UNL     1       7.643   7.728  17.679  0.00  0.00    +0.000 C 
ATOM     12  O   UNL     1       6.881   7.739  16.719  0.00  0.00    +0.000 OA
ATOM     13  N   UNL     1       7.942   6.603  18.399  0.00  0.00    +0.000 N 
ATOM     14  H   UNL     1       8.599   6.650  19.170  0.00  0.00    +0.000 HD
ENDBRANCH   9  13
ENDBRANCH   1   9
BRANCH   3  15
ATOM     15  C   UNL     1       4.970   4.874  16.486  0.00  0.00    +0.000 C 
BRANCH  15  16
ATOM     16  C   UNL     1       5.494   3.635  15.739  0.00  0.00    +0.000 C 
BRANCH  16  17
ATOM     17  C   UNL     1       6.136   4.012  14.423  0.00  0.00    +0.000 A 
ATOM     18  C   UNL     1       5.784   3.345  13.239  0.00  0.00    +0.000 A 
ATOM     19  C   UNL     1       6.424   3.652  12.036  0.00  0.00    +0.000 A 
ATOM     20  C   UNL     1       7.420   4.626  12.001  0.00  0.00    +0.000 A 
ATOM     21  C   UNL     1       7.768   5.302  13.168  0.00  0.00    +0.000 A 
ATOM     22  C   UNL     1       7.130   4.998  14.373  0.00  0.00    +0.000 A 
ENDBRANCH  16  17
ENDBRANCH  15  16
ENDBRANCH   3  15
TORSDOF 6
ENDMDL
MODEL 2
REMARK VINA RESULT:      -7.3      2.271      6.390
REMARK  Name = 
REMARK  7 active torsions:
REMARK  status: ('A' for Active; 'I' for Inactive)
REMARK    1  A    between atoms: C_1  and  C_2
REMARK    2  A    between atoms: N_4  and  C_5
REMARK    3  A    between atoms: C_5  and  C_6
REMARK    4  A    between atoms: N_8  and  C_9
REMARK    5  A    between atoms: N_8  and  C_17
REMARK    6  A    between atoms: C_9  and  C_10
REMARK    7  A    between atoms: C_10  and  C_11
REMARK                            x       y       z     vdW  Elec       q    Type
REMARK                         _______ _______ _______ _____ _____    ______ ____
ROOT
ATOM      1  C   UNL     1       5.712   5.025  15.461  0.00  0.00    +0.000 C 
ATOM      2  O   UNL     1       6.236   6.002  14.919  0.00  0.00    +0.000 OA
ATOM      3  N   UNL     1       5.399   4.979  16.827  0.00  0.00    +0.000 N 
ENDROOT
BRANCH   3   4
ATOM      4  C   UNL     1       5.827   6.057  17.775  0.00  0.00    +0.000 C 
ATOM      5  C   UNL     1       7.288   6.484  17.833  0.00  0.00    +0.000 C 
ATOM      6  C   UNL     1       7.893   5.547  18.860  0.00  0.00    +0.000 C 
ATOM      7  O   UNL     1       6.846   5.196  19.776  0.00  0.00    +0.000 OA
ATOM      8  C   UNL     1       5.609   5.704  19.254  0.00  0.00    +0.000 C 
ENDBRANCH   3   4
BRANCH   1   9
ATOM      9  C   UNL     1       5.292   3.876  14.534  0.00  0.00    +0.000 C 
BRANCH   9  13
ATOM     10  C   UNL     1       7.231   2.831  11.449  0.00  0.00    +0.000 C 
ATOM     11  C   UNL     1       6.036   3.251  12.261  0.00  0.00    +0.000 C 
ATOM     12  O   UNL     1       4.905   3.274  11.792  0.00  0.00    +0.000 OA
ATOM     13  N   UNL     1       6.330   3.588  13.556  0.00  0.00    +0.000 N 
ATOM     14  H   UNL     1       7.283   3.526  13.895  0.00  0.00    +0.000 HD
ENDBRANCH   9  13
ENDBRANCH   1   9
BRANCH   3  15
ATOM     15  C   UNL     1       4.750   3.792  17.443  0.00  0.00    +0.000 C 
BRANCH  15  16
ATOM     16  C   UNL     1       3.212   3.788  17.402  0.00  0.00    +0.000 C 
BRANCH  16  17
ATOM     17  C   UNL     1       2.622   3.508  18.766  0.00  0.00    +0.000 A 
ATOM     18  C   UNL     1       1.335   3.961  19.094  0.00  0.00    +0.000 A 
ATOM     19  C   UNL     1       0.816   3.756  20.375  0.00  0.00    +0.000 A 
ATOM     20  C   UNL     1       1.577   3.098  21.341  0.00  0.00    +0.000 A 
ATOM     21  C   UNL     1       2.851   2.635  21.021  0.00  0.00    +0.000 A 
ATOM     22  C   UNL     1       3.371   2.837  19.741  0.00  0.00    +0.000 A 
ENDBRANCH  16  17
ENDBRANCH  15  16
ENDBRANCH   3  15
TORSDOF 6
ENDMDL
MODEL 3
REMARK VINA RESULT:      -7.3      2.307      6.181
REMARK  Name = 
REMARK  7 active torsions:
REMARK  status: ('A' for Active; 'I' for Inactive)
REMARK    1  A    between atoms: C_1  and  C_2
REMARK    2  A    between atoms: N_4  and  C_5
REMARK    3  A    between atoms: C_5  and  C_6
REMARK    4  A    between atoms: N_8  and  C_9
REMARK    5  A    between atoms: N_8  and  C_17
REMARK    6  A    between atoms: C_9  and  C_10
REMARK    7  A    between atoms: C_10  and  C_11
REMARK                            x       y       z     vdW  Elec       q    Type
REMARK                         _______ _______ _______ _____ _____    ______ ____
ROOT
ATOM      1  C   UNL     1       6.622   4.840  15.475  0.00  0.00    +0.000 C 
ATOM      2  O   UNL     1       7.352   5.764  15.105  0.00  0.00    +0.000 OA
ATOM      3  N   UNL     1       5.863   4.883  16.652  0.00  0.00    +0.000 N 
ENDROOT
BRANCH   3   4
ATOM      4  C   UNL     1       6.004   5.995  17.646  0.00  0.00    +0.000 C 
ATOM      5  C   UNL     1       7.371   6.611  17.911  0.00  0.00    +0.000 C 
ATOM      6  C   UNL     1       7.942   5.749  19.020  0.00  0.00    +0.000 C 
ATOM      7  O   UNL     1       6.830   5.251  19.778  0.00  0.00    +0.000 OA
ATOM      8  C   UNL     1       5.625   5.597  19.081  0.00  0.00    +0.000 C 
ENDBRANCH   3   4
BRANCH   1   9
ATOM      9  C   UNL     1       6.478   3.657  14.506  0.00  0.00    +0.000 C 
BRANCH   9  13
ATOM     10  C   UNL     1       4.268   3.787  11.430  0.00  0.00    +0.000 C 
ATOM     11  C   UNL     1       5.378   3.303  12.321  0.00  0.00    +0.000 C 
ATOM     12  O   UNL     1       6.193   2.466  11.951  0.00  0.00    +0.000 OA
ATOM     13  N   UNL     1       5.396   3.885  13.561  0.00  0.00    +0.000 N 
ATOM     14  H   UNL     1       4.709   4.590  13.803  0.00  0.00    +0.000 HD
ENDBRANCH   9  13
ENDBRANCH   1   9
BRANCH   3  15
ATOM     15  C   UNL     1       4.979   3.758  17.057  0.00  0.00    +0.000 C 
BRANCH  15  16
ATOM     16  C   UNL     1       3.482   3.961  16.766  0.00  0.00    +0.000 C 
BRANCH  16  17
ATOM     17  C   UNL     1       2.633   3.635  17.974  0.00  0.00    +0.000 A 
ATOM     18  C   UNL     1       2.293   2.307  18.271  0.00  0.00    +0.000 A 
ATOM     19  C   UNL     1       1.457   2.012  19.351  0.00  0.00    +0.000 A 
ATOM     20  C   UNL     1       0.952   3.041  20.145  0.00  0.00    +0.000 A 
ATOM     21  C   UNL     1       1.293   4.363  19.866  0.00  0.00    +0.000 A 
ATOM     22  C   UNL     1       2.129   4.659  18.788  0.00  0.00    +0.000 A 
ENDBRANCH  16  17
ENDBRANCH  15  16
ENDBRANCH   3  15
TORSDOF 6
ENDMDL
MODEL 4
REMARK VINA RESULT:      -7.3      2.448      6.294
REMARK  Name = 
REMARK  7 active torsions:
REMARK  status: ('A' for Active; 'I' for Inactive)
REMARK    1  A    between atoms: C_1  and  C_2
REMARK    2  A    between atoms: N_4  and  C_5
REMARK    3  A    between atoms: C_5  and  C_6
REMARK    4  A    between atoms: N_8  and  C_9
REMARK    5  A    between atoms: N_8  and  C_17
REMARK    6  A    between atoms: C_9  and  C_10
REMARK    7  A    between atoms: C_10  and  C_11
REMARK                            x       y       z     vdW  Elec       q    Type
REMARK                         _______ _______ _______ _____ _____    ______ ____
ROOT
ATOM      1  C   UNL     1       6.719   4.696  14.358  0.00  0.00    +0.000 C 
ATOM      2  O   UNL     1       7.612   5.367  13.834  0.00  0.00    +0.000 OA
ATOM      3  N   UNL     1       6.536   4.609  15.745  0.00  0.00    +0.000 N 
ENDROOT
BRANCH   3   4
ATOM      4  C   UNL     1       7.517   5.197  16.713  0.00  0.00    +0.000 C 
ATOM      5  C   UNL     1       7.648   4.613  18.113  0.00  0.00    +0.000 C 
ATOM      6  C   UNL     1       6.620   5.382  18.919  0.00  0.00    +0.000 C 
ATOM      7  O   UNL     1       6.491   6.674  18.309  0.00  0.00    +0.000 OA
ATOM      8  C   UNL     1       7.228   6.661  17.078  0.00  0.00    +0.000 C 
ENDBRANCH   3   4
BRANCH   1   9
ATOM      9  C   UNL     1       5.711   4.040  13.404  0.00  0.00    +0.000 C 
BRANCH   9  13
ATOM     10  C   UNL     1       6.430   1.142  11.069  0.00  0.00    +0.000 C 
ATOM     11  C   UNL     1       5.674   2.312  11.637  0.00  0.00    +0.000 C 
ATOM     12  O   UNL     1       4.558   2.622  11.238  0.00  0.00    +0.000 OA
ATOM     13  N   UNL     1       6.339   2.978  12.632  0.00  0.00    +0.000 N 
ATOM     14  H   UNL     1       7.252   2.660  12.937  0.00  0.00    +0.000 HD
ENDBRANCH   9  13
ENDBRANCH   1   9
BRANCH   3  15
ATOM     15  C   UNL     1       5.436   3.806  16.342  0.00  0.00    +0.000 C 
BRANCH  15  16
ATOM     16  C   UNL     1       4.117   4.565  16.568  0.00  0.00    +0.000 C 
BRANCH  16  17
ATOM     17  C   UNL     1       3.176   3.786  17.461  0.00  0.00    +0.000 A 
ATOM     18  C   UNL     1       3.501   2.488  17.882  0.00  0.00    +0.000 A 
ATOM     19  C   UNL     1       2.604   1.746  18.654  0.00  0.00    +0.000 A 
ATOM     20  C   UNL     1       1.373   2.294  19.014  0.00  0.00    +0.000 A 
ATOM     21  C   UNL     1       1.045   3.586  18.611  0.00  0.00    +0.000 A 
ATOM     22  C   UNL     1       1.941   4.330  17.840  0.00  0.00    +0.000 A 
ENDBRANCH  16  17
ENDBRANCH  15  16
ENDBRANCH   3  15
TORSDOF 6
ENDMDL
MODEL 5
REMARK VINA RESULT:      -6.9      3.255      5.992
REMARK  Name = 
REMARK  7 active torsions:
REMARK  status: ('A' for Active; 'I' for Inactive)
REMARK    1  A    between atoms: C_1  and  C_2
REMARK    2  A    between atoms: N_4  and  C_5
REMARK    3  A    between atoms: C_5  and  C_6
REMARK    4  A    between atoms: N_8  and  C_9
REMARK    5  A    between atoms: N_8  and  C_17
REMARK    6  A    between atoms: C_9  and  C_10
REMARK    7  A    between atoms: C_10  and  C_11
REMARK                            x       y       z     vdW  Elec       q    Type
REMARK                         _______ _______ _______ _____ _____    ______ ____
ROOT
ATOM      1  C   UNL     1       3.859   3.583  17.984  0.00  0.00    +0.000 C 
ATOM      2  O   UNL     1       3.497   2.438  17.699  0.00  0.00    +0.000 OA
ATOM      3  N   UNL     1       3.082   4.469  18.742  0.00  0.00    +0.000 N 
ENDROOT
BRANCH   3   4
ATOM      4  C   UNL     1       1.671   4.151  19.134  0.00  0.00    +0.000 C 
ATOM      5  C   UNL     1       1.191   4.439  20.550  0.00  0.00    +0.000 C 
ATOM      6  C   UNL     1       1.528   3.169  21.306  0.00  0.00    +0.000 C 
ATOM      7  O   UNL     1       1.477   2.092  20.360  0.00  0.00    +0.000 OA
ATOM      8  C   UNL     1       1.325   2.657  19.049  0.00  0.00    +0.000 C 
ENDBRANCH   3   4
BRANCH   1   9
ATOM      9  C   UNL     1       5.285   3.969  17.567  0.00  0.00    +0.000 C 
BRANCH   9  13
ATOM     10  C   UNL     1       6.542   4.112  13.994  0.00  0.00    +0.000 C 
ATOM     11  C   UNL     1       6.601   4.237  15.492  0.00  0.00    +0.000 C 
ATOM     12  O   UNL     1       7.575   4.706  16.068  0.00  0.00    +0.000 OA
ATOM     13  N   UNL     1       5.477   3.793  16.135  0.00  0.00    +0.000 N 
ATOM     14  H   UNL     1       4.691   3.437  15.603  0.00  0.00    +0.000 HD
ENDBRANCH   9  13
ENDBRANCH   1   9
BRANCH   3  15
ATOM     15  C   UNL     1       3.558   5.836  19.082  0.00  0.00    +0.000 C 
BRANCH  15  16
ATOM     16  C   UNL     1       3.187   6.932  18.069  0.00  0.00    +0.000 C 
BRANCH  16  17
ATOM     17  C   UNL     1       2.224   7.935  18.665  0.00  0.00    +0.000 A 
ATOM     18  C   UNL     1       1.722   8.992  17.891  0.00  0.00    +0.000 A 
ATOM     19  C   UNL     1       0.884   9.953  18.460  0.00  0.00    +0.000 A 
ATOM     20  C   UNL     1       0.538   9.868  19.808  0.00  0.00    +0.000 A 
ATOM     21  C   UNL     1       1.022   8.817  20.583  0.00  0.00    +0.000 A 
ATOM     22  C   UNL     1       1.860   7.855  20.016  0.00  0.00    +0.000 A 
ENDBRANCH  16  17
ENDBRANCH  15  16
ENDBRANCH   3  15
TORSDOF 6
ENDMDL
MODEL 6
REMARK VINA RESULT:      -6.9      3.192      5.877
REMARK  Name = 
REMARK  7 active torsions:
REMARK  status: ('A' for Active; 'I' for Inactive)
REMARK    1  A    between atoms: C_1  and  C_2
REMARK    2  A    between atoms: N_4  and  C_5
REMARK    3  A    between atoms: C_5  and  C_6
REMARK    4  A    between atoms: N_8  and  C_9
REMARK    5  A    between atoms: N_8  and  C_17
REMARK    6  A    between atoms: C_9  and  C_10
REMARK    7  A    between atoms: C_10  and  C_11
REMARK                            x       y       z     vdW  Elec       q    Type
REMARK                         _______ _______ _______ _____ _____    ______ ____
ROOT
ATOM      1  C   UNL     1       4.977   4.745  18.583  0.00  0.00    +0.000 C 
ATOM      2  O   UNL     1       5.768   4.064  19.242  0.00  0.00    +0.000 OA
ATOM      3  N   UNL     1       3.642   4.949  18.956  0.00  0.00    +0.000 N 
ENDROOT
BRANCH   3   4
ATOM      4  C   UNL     1       3.019   4.219  20.107  0.00  0.00    +0.000 C 
ATOM      5  C   UNL     1       3.021   2.697  20.133  0.00  0.00    +0.000 C 
ATOM      6  C   UNL     1       1.745   2.325  19.401  0.00  0.00    +0.000 C 
ATOM      7  O   UNL     1       0.814   3.396  19.614  0.00  0.00    +0.000 OA
ATOM      8  C   UNL     1       1.511   4.472  20.259  0.00  0.00    +0.000 C 
ENDBRANCH   3   4
BRANCH   1   9
ATOM      9  C   UNL     1       5.561   5.482  17.369  0.00  0.00    +0.000 C 
BRANCH   9  13
ATOM     10  C   UNL     1       6.230   3.902  13.989  0.00  0.00    +0.000 C 
ATOM     11  C   UNL     1       6.492   4.760  15.196  0.00  0.00    +0.000 C 
ATOM     12  O   UNL     1       7.457   5.513  15.263  0.00  0.00    +0.000 OA
ATOM     13  N   UNL     1       5.560   4.628  16.191  0.00  0.00    +0.000 N 
ATOM     14  H   UNL     1       4.769   4.006  16.069  0.00  0.00    +0.000 HD
ENDBRANCH   9  13
ENDBRANCH   1   9
BRANCH   3  15
ATOM     15  C   UNL     1       2.721   5.792  18.148  0.00  0.00    +0.000 C 
BRANCH  15  16
ATOM     16  C   UNL     1       3.115   7.276  18.039  0.00  0.00    +0.000 C 
BRANCH  16  17
ATOM     17  C   UNL     1       2.081   8.172  18.684  0.00  0.00    +0.000 A 
ATOM     18  C   UNL     1       1.434   9.169  17.939  0.00  0.00    +0.000 A 
ATOM     19  C   UNL     1       0.526  10.036  18.551  0.00  0.00    +0.000 A 
ATOM     20  C   UNL     1       0.256   9.917  19.914  0.00  0.00    +0.000 A 
ATOM     21  C   UNL     1       0.885   8.924  20.661  0.00  0.00    +0.000 A 
ATOM     22  C   UNL     1       1.792   8.055  20.050  0.00  0.00    +0.000 A 
ENDBRANCH  16  17
ENDBRANCH  15  16
ENDBRANCH   3  15
TORSDOF 6
ENDMDL
MODEL 7
REMARK VINA RESULT:      -6.9      3.300      6.048
REMARK  Name = 
REMARK  7 active torsions:
REMARK  status: ('A' for Active; 'I' for Inactive)
REMARK    1  A    between atoms: C_1  and  C_2
REMARK    2  A    between atoms: N_4  and  C_5
REMARK    3  A    between atoms: C_5  and  C_6
REMARK    4  A    between atoms: N_8  and  C_9
REMARK    5  A    between atoms: N_8  and  C_17
REMARK    6  A    between atoms: C_9  and  C_10
REMARK    7  A    between atoms: C_10  and  C_11
REMARK                            x       y       z     vdW  Elec       q    Type
REMARK                         _______ _______ _______ _____ _____    ______ ____
ROOT
ATOM      1  C   UNL     1       3.821   3.668  17.836  0.00  0.00    +0.000 C 
ATOM      2  O   UNL     1       3.499   2.512  17.547  0.00  0.00    +0.000 OA
ATOM      3  N   UNL     1       3.049   4.497  18.663  0.00  0.00    +0.000 N 
ENDROOT
BRANCH   3   4
ATOM      4  C   UNL     1       1.683   4.099  19.133  0.00  0.00    +0.000 C 
ATOM      5  C   UNL     1       1.234   4.445  20.546  0.00  0.00    +0.000 C 
ATOM      6  C   UNL     1       1.699   3.260  21.369  0.00  0.00    +0.000 C 
ATOM      7  O   UNL     1       1.700   2.120  20.498  0.00  0.00    +0.000 OA
ATOM      8  C   UNL     1       1.455   2.580  19.161  0.00  0.00    +0.000 C 
ENDBRANCH   3   4
BRANCH   1   9
ATOM      9  C   UNL     1       5.197   4.137  17.342  0.00  0.00    +0.000 C 
BRANCH   9  13
ATOM     10  C   UNL     1       6.396   4.036  13.747  0.00  0.00    +0.000 C 
ATOM     11  C   UNL     1       6.484   4.243  15.235  0.00  0.00    +0.000 C 
ATOM     12  O   UNL     1       7.483   4.712  15.769  0.00  0.00    +0.000 OA
ATOM     13  N   UNL     1       5.357   3.874  15.920  0.00  0.00    +0.000 N 
ATOM     14  H   UNL     1       4.552   3.514  15.421  0.00  0.00    +0.000 HD
ENDBRANCH   9  13
ENDBRANCH   1   9
BRANCH   3  15
ATOM     15  C   UNL     1       3.476   5.879  19.006  0.00  0.00    +0.000 C 
BRANCH  15  16
ATOM     16  C   UNL     1       3.068   6.964  17.994  0.00  0.00    +0.000 C 
BRANCH  16  17
ATOM     17  C   UNL     1       2.250   8.054  18.651  0.00  0.00    +0.000 A 
ATOM     18  C   UNL     1       1.819   7.922  19.979  0.00  0.00    +0.000 A 
ATOM     19  C   UNL     1       1.011   8.901  20.563  0.00  0.00    +0.000 A 
ATOM     20  C   UNL     1       0.627  10.021  19.828  0.00  0.00    +0.000 A 
ATOM     21  C   UNL     1       1.060  10.168  18.512  0.00  0.00    +0.000 A 
ATOM     22  C   UNL     1       1.868   9.191  17.926  0.00  0.00    +0.000 A 
ENDBRANCH  16  17
ENDBRANCH  15  16
ENDBRANCH   3  15
TORSDOF 6
ENDMDL
MODEL 8
REMARK VINA RESULT:      -6.9      3.191      5.652
REMARK  Name = 
REMARK  7 active torsions:
REMARK  status: ('A' for Active; 'I' for Inactive)
REMARK    1  A    between atoms: C_1  and  C_2
REMARK    2  A    between atoms: N_4  and  C_5
REMARK    3  A    between atoms: C_5  and  C_6
REMARK    4  A    between atoms: N_8  and  C_9
REMARK    5  A    between atoms: N_8  and  C_17
REMARK    6  A    between atoms: C_9  and  C_10
REMARK    7  A    between atoms: C_10  and  C_11
REMARK                            x       y       z     vdW  Elec       q    Type
REMARK                         _______ _______ _______ _____ _____    ______ ____
ROOT
ATOM      1  C   UNL     1       4.944   4.018  19.174  0.00  0.00    +0.000 C 
ATOM      2  O   UNL     1       5.403   2.873  19.111  0.00  0.00    +0.000 OA
ATOM      3  N   UNL     1       3.750   4.332  19.837  0.00  0.00    +0.000 N 
ENDROOT
BRANCH   3   4
ATOM      4  C   UNL     1       2.846   3.272  20.389  0.00  0.00    +0.000 C 
ATOM      5  C   UNL     1       2.203   2.257  19.452  0.00  0.00    +0.000 C 
ATOM      6  C   UNL     1       0.911   2.929  19.030  0.00  0.00    +0.000 C 
ATOM      7  O   UNL     1       0.514   3.788  20.109  0.00  0.00    +0.000 OA
ATOM      8  C   UNL     1       1.583   3.824  21.066  0.00  0.00    +0.000 C 
ENDBRANCH   3   4
BRANCH   1   9
ATOM      9  C   UNL     1       5.817   5.135  18.585  0.00  0.00    +0.000 C 
BRANCH   9  13
ATOM     10  C   UNL     1       7.001   4.730  15.007  0.00  0.00    +0.000 C 
ATOM     11  C   UNL     1       7.056   4.630  16.507  0.00  0.00    +0.000 C 
ATOM     12  O   UNL     1       8.056   4.237  17.097  0.00  0.00    +0.000 OA
ATOM     13  N   UNL     1       5.905   5.021  17.138  0.00  0.00    +0.000 N 
ATOM     14  H   UNL     1       5.117   5.359  16.597  0.00  0.00    +0.000 HD
ENDBRANCH   9  13
ENDBRANCH   1   9
BRANCH   3  15
ATOM     15  C   UNL     1       3.236   5.725  19.909  0.00  0.00    +0.000 C 
BRANCH  15  16
ATOM     16  C   UNL     1       2.667   6.285  18.593  0.00  0.00    +0.000 C 
BRANCH  16  17
ATOM     17  C   UNL     1       2.070   7.660  18.789  0.00  0.00    +0.000 A 
ATOM     18  C   UNL     1       2.069   8.595  17.742  0.00  0.00    +0.000 A 
ATOM     19  C   UNL     1       1.574   9.885  17.943  0.00  0.00    +0.000 A 
ATOM     20  C   UNL     1       1.075  10.256  19.191  0.00  0.00    +0.000 A 
ATOM     21  C   UNL     1       1.060   9.333  20.234  0.00  0.00    +0.000 A 
ATOM     22  C   UNL     1       1.554   8.041  20.035  0.00  0.00    +0.000 A 
ENDBRANCH  16  17
ENDBRANCH  15  16
ENDBRANCH   3  15
TORSDOF 6
ENDMDL
MODEL 9
REMARK VINA RESULT:      -6.9      3.165      5.655
REMARK  Name = 
REMARK  7 active torsions:
REMARK  status: ('A' for Active; 'I' for Inactive)
REMARK    1  A    between atoms: C_1  and  C_2
REMARK    2  A    between atoms: N_4  and  C_5
REMARK    3  A    between atoms: C_5  and  C_6
REMARK    4  A    between atoms: N_8  and  C_9
REMARK    5  A    between atoms: N_8  and  C_17
REMARK    6  A    between atoms: C_9  and  C_10
REMARK    7  A    between atoms: C_10  and  C_11
REMARK                            x       y       z     vdW  Elec       q    Type
REMARK                         _______ _______ _______ _____ _____    ______ ____
ROOT
ATOM      1  C   UNL     1       4.939   3.987  19.158  0.00  0.00    +0.000 C 
ATOM      2  O   UNL     1       5.410   2.850  19.058  0.00  0.00    +0.000 OA
ATOM      3  N   UNL     1       3.724   4.262  19.799  0.00  0.00    +0.000 N 
ENDROOT
BRANCH   3   4
ATOM      4  C   UNL     1       2.814   3.172  20.276  0.00  0.00    +0.000 C 
ATOM      5  C   UNL     1       2.188   2.210  19.274  0.00  0.00    +0.000 C 
ATOM      6  C   UNL     1       0.901   2.903  18.870  0.00  0.00    +0.000 C 
ATOM      7  O   UNL     1       0.485   3.700  19.988  0.00  0.00    +0.000 OA
ATOM      8  C   UNL     1       1.539   3.684  20.963  0.00  0.00    +0.000 C 
ENDBRANCH   3   4
BRANCH   1   9
ATOM      9  C   UNL     1       5.820   5.136  18.645  0.00  0.00    +0.000 C 
BRANCH   9  13
ATOM     10  C   UNL     1       7.030   4.896  15.062  0.00  0.00    +0.000 C 
ATOM     11  C   UNL     1       7.059   4.698  16.553  0.00  0.00    +0.000 C 
ATOM     12  O   UNL     1       8.029   4.217  17.127  0.00  0.00    +0.000 OA
ATOM     13  N   UNL     1       5.922   5.109  17.195  0.00  0.00    +0.000 N 
ATOM     14  H   UNL     1       5.160   5.521  16.668  0.00  0.00    +0.000 HD
ENDBRANCH   9  13
ENDBRANCH   1   9
BRANCH   3  15
ATOM     15  C   UNL     1       3.196   5.647  19.918  0.00  0.00    +0.000 C 
BRANCH  15  16
ATOM     16  C   UNL     1       2.792   6.312  18.590  0.00  0.00    +0.000 C 
BRANCH  16  17
ATOM     17  C   UNL     1       2.181   7.677  18.818  0.00  0.00    +0.000 A 
ATOM     18  C   UNL     1       1.666   8.029  20.075  0.00  0.00    +0.000 A 
ATOM     19  C   UNL     1       1.045   9.265  20.267  0.00  0.00    +0.000 A 
ATOM     20  C   UNL     1       0.934  10.163  19.206  0.00  0.00    +0.000 A 
ATOM     21  C   UNL     1       1.452   9.829  17.957  0.00  0.00    +0.000 A 
ATOM     22  C   UNL     1       2.074   8.594  17.764  0.00  0.00    +0.000 A 
ENDBRANCH  16  17
ENDBRANCH  15  16
ENDBRANCH   3  15
TORSDOF 6
ENDMDL
