MODEL 1
REMARK VINA RESULT:      -7.9      0.000      0.000
REMARK  Name = 
REMARK  5 active torsions:
REMARK  status: ('A' for Active; 'I' for Inactive)
REMARK    1  A    between atoms: C_1  and  C_2
REMARK    2  A    between atoms: C_2  and  O_3
REMARK    3  A    between atoms: C_2  and  C_4
REMARK    4  A    between atoms: N_8  and  C_9
REMARK    5  A    between atoms: C_16  and  C_17
REMARK                            x       y       z     vdW  Elec       q    Type
REMARK                         _______ _______ _______ _____ _____    ______ ____
ROOT
ATOM      1  C   UNL     1       3.022   4.473  20.043  0.00  0.00    +0.000 A 
ATOM      2  C   UNL     1       1.789   4.873  20.527  0.00  0.00    +0.000 A 
ATOM      3  N   UNL     1       1.316   6.123  20.478  0.00  0.00    +0.000 NA
ATOM      4  C   UNL     1       2.066   7.028  19.848  0.00  0.00    +0.000 A 
ATOM      5  N   UNL     1       1.630   8.324  19.789  0.00  0.00    +0.000 N 
ATOM      6  N   UNL     1       3.246   6.736  19.282  0.00  0.00    +0.000 NA
ATOM      7  C   UNL     1       3.743   5.485  19.425  0.00  0.00    +0.000 A 
ATOM      8  H   UNL     1       1.780   8.766  18.894  0.00  0.00    +0.000 HD
ENDROOT
BRANCH   7   9
ATOM      9  C   UNL     1       5.078   5.302  18.834  0.00  0.00    +0.000 A 
ATOM     10  C   UNL     1       6.273   5.300  19.537  0.00  0.00    +0.000 A 
ATOM     11  N   UNL     1       7.290   4.966  18.684  0.00  0.00    +0.000 N 
ATOM     12  C   UNL     1       6.814   4.834  17.412  0.00  0.00    +0.000 A 
ATOM     13  C   UNL     1       7.488   4.478  16.238  0.00  0.00    +0.000 A 
ATOM     14  C   UNL     1       6.750   4.446  15.054  0.00  0.00    +0.000 A 
ATOM     15  C   UNL     1       5.401   4.782  15.046  0.00  0.00    +0.000 A 
ATOM     16  C   UNL     1       4.738   5.117  16.234  0.00  0.00    +0.000 A 
ATOM     17  C   UNL     1       5.444   5.114  17.453  0.00  0.00    +0.000 A 
ATOM     18  H   UNL     1       8.260   4.841  18.953  0.00  0.00    +0.000 HD
ENDBRANCH   7   9
BRANCH   5  19
ATOM     19  C   UNL     1       0.616   8.811  20.713  0.00  0.00    +0.000 C 
ATOM     20  C   UNL     1       1.277   8.982  22.091  0.00  0.00    +0.000 C 
ATOM     21  C   UNL     1       0.301   9.588  23.094  0.00  0.00    +0.000 C 
ATOM     22  C   UNL     1      -0.302  10.886  22.568  0.00  0.00    +0.000 C 
ATOM     23  N   UNL     1      -0.965  10.680  21.282  0.00  0.00    +0.000 NA
ATOM     24  C   UNL     1      -0.034  10.141  20.271  0.00  0.00    +0.000 C 
ATOM     25  H   UNL     1      -1.351  11.563  20.946  0.00  0.00    +0.000 HD
ENDBRANCH   5  19
BRANCH   1  27
ATOM     26  C   UNL     1       2.774   2.403  21.452  0.00  0.00    +0.000 C 
ATOM     27  C   UNL     1       3.456   3.050  20.242  0.00  0.00    +0.000 C 
BRANCH  27  28
ATOM     28  O   UNL     1       3.144   2.295  19.063  0.00  0.00    +0.000 OA
ATOM     29  H   UNL     1       3.575   1.427  19.126  0.00  0.00    +0.000 HD
ENDBRANCH  27  28
ENDBRANCH   1  27
TORSDOF 4
ENDMDL
MODEL 2
REMARK VINA RESULT:      -7.6      3.374      8.257
REMARK  Name = 
REMARK  5 active torsions:
REMARK  status: ('A' for Active; 'I' for Inactive)
REMARK    1  A    between atoms: C_1  and  C_2
REMARK    2  A    between atoms: C_2  and  O_3
REMARK    3  A    between atoms: C_2  and  C_4
REMARK    4  A    between atoms: N_8  and  C_9
REMARK    5  A    between atoms: C_16  and  C_17
REMARK                            x       y       z     vdW  Elec       q    Type
REMARK                         _______ _______ _______ _____ _____    ______ ____
ROOT
ATOM      1  C   UNL     1       0.513   9.581  20.862  0.00  0.00    +0.000 A 
ATOM      2  C   UNL     1       1.133   8.398  21.222  0.00  0.00    +0.000 A 
ATOM      3  N   UNL     1       1.844   7.624  20.394  0.00  0.00    +0.000 NA
ATOM      4  C   UNL     1       2.021   8.072  19.152  0.00  0.00    +0.000 A 
ATOM      5  N   UNL     1       2.727   7.303  18.265  0.00  0.00    +0.000 N 
ATOM      6  N   UNL     1       1.525   9.237  18.714  0.00  0.00    +0.000 NA
ATOM      7  C   UNL     1       0.733   9.958  19.544  0.00  0.00    +0.000 A 
ATOM      8  H   UNL     1       3.360   7.829  17.680  0.00  0.00    +0.000 HD
ENDROOT
BRANCH   7   9
ATOM      9  C   UNL     1       0.178  11.176  18.932  0.00  0.00    +0.000 A 
ATOM     10  C   UNL     1      -0.977  11.235  18.169  0.00  0.00    +0.000 A 
ATOM     11  N   UNL     1      -1.257  12.544  17.886  0.00  0.00    +0.000 N 
ATOM     12  C   UNL     1      -0.267  13.352  18.366  0.00  0.00    +0.000 A 
ATOM     13  C   UNL     1      -0.155  14.746  18.329  0.00  0.00    +0.000 A 
ATOM     14  C   UNL     1       0.993  15.317  18.880  0.00  0.00    +0.000 A 
ATOM     15  C   UNL     1       1.996  14.519  19.421  0.00  0.00    +0.000 A 
ATOM     16  C   UNL     1       1.858  13.126  19.467  0.00  0.00    +0.000 A 
ATOM     17  C   UNL     1       0.691  12.523  18.960  0.00  0.00    +0.000 A 
ATOM     18  H   UNL     1      -2.076  12.871  17.386  0.00  0.00    +0.000 HD
ENDBRANCH   7   9
BRANCH   5  19
ATOM     19  C   UNL     1       2.925   5.882  18.506  0.00  0.00    +0.000 C 
ATOM     20  C   UNL     1       1.792   5.121  17.799  0.00  0.00    +0.000 C 
ATOM     21  C   UNL     1       1.986   3.613  17.919  0.00  0.00    +0.000 C 
ATOM     22  C   UNL     1       3.369   3.191  17.433  0.00  0.00    +0.000 C 
ATOM     23  N   UNL     1       4.424   3.894  18.159  0.00  0.00    +0.000 NA
ATOM     24  C   UNL     1       4.295   5.359  18.020  0.00  0.00    +0.000 C 
ATOM     25  H   UNL     1       5.337   3.603  17.810  0.00  0.00    +0.000 HD
ENDBRANCH   5  19
BRANCH   1  27
ATOM     26  C   UNL     1      -0.501   9.489  23.162  0.00  0.00    +0.000 C 
ATOM     27  C   UNL     1      -0.322  10.305  21.878  0.00  0.00    +0.000 C 
BRANCH  27  28
ATOM     28  O   UNL     1       0.303  11.556  22.195  0.00  0.00    +0.000 OA
ATOM     29  H   UNL     1       1.252  11.488  22.001  0.00  0.00    +0.000 HD
ENDBRANCH  27  28
ENDBRANCH   1  27
TORSDOF 4
ENDMDL
MODEL 3
REMARK VINA RESULT:      -7.4      3.347      8.210
REMARK  Name = 
REMARK  5 active torsions:
REMARK  status: ('A' for Active; 'I' for Inactive)
REMARK    1  A    between atoms: C_1  and  C_2
REMARK    2  A    between atoms: C_2  and  O_3
REMARK    3  A    between atoms: C_2  and  C_4
REMARK    4  A    between atoms: N_8  and  C_9
REMARK    5  A    between atoms: C_16  and  C_17
REMARK                            x       y       z     vdW  Elec       q    Type
REMARK                         _______ _______ _______ _____ _____    ______ ____
ROOT
ATOM      1  C   UNL     1       0.457   9.571  20.744  0.00  0.00    +0.000 A 
ATOM      2  C   UNL     1       1.311   8.572  21.175  0.00  0.00    +0.000 A 
ATOM      3  N   UNL     1       1.999   7.753  20.373  0.00  0.00    +0.000 NA
ATOM      4  C   UNL     1       1.902   7.972  19.061  0.00  0.00    +0.000 A 
ATOM      5  N   UNL     1       2.574   7.146  18.201  0.00  0.00    +0.000 N 
ATOM      6  N   UNL     1       1.159   8.955  18.534  0.00  0.00    +0.000 NA
ATOM      7  C   UNL     1       0.401   9.712  19.364  0.00  0.00    +0.000 A 
ATOM      8  H   UNL     1       3.012   7.628  17.429  0.00  0.00    +0.000 HD
ENDROOT
BRANCH   7   9
ATOM      9  C   UNL     1      -0.435  10.704  18.670  0.00  0.00    +0.000 A 
ATOM     10  C   UNL     1      -0.116  12.042  18.501  0.00  0.00    +0.000 A 
ATOM     11  N   UNL     1      -1.055  12.625  17.693  0.00  0.00    +0.000 N 
ATOM     12  C   UNL     1      -2.040  11.728  17.393  0.00  0.00    +0.000 A 
ATOM     13  C   UNL     1      -3.171  11.881  16.584  0.00  0.00    +0.000 A 
ATOM     14  C   UNL     1      -4.038  10.793  16.473  0.00  0.00    +0.000 A 
ATOM     15  C   UNL     1      -3.792   9.612  17.167  0.00  0.00    +0.000 A 
ATOM     16  C   UNL     1      -2.644   9.471  17.957  0.00  0.00    +0.000 A 
ATOM     17  C   UNL     1      -1.726  10.535  18.053  0.00  0.00    +0.000 A 
ATOM     18  H   UNL     1      -1.031  13.585  17.367  0.00  0.00    +0.000 HD
ENDBRANCH   7   9
BRANCH   5  19
ATOM     19  C   UNL     1       3.038   5.837  18.636  0.00  0.00    +0.000 C 
ATOM     20  C   UNL     1       2.181   4.774  17.929  0.00  0.00    +0.000 C 
ATOM     21  C   UNL     1       2.673   3.368  18.255  0.00  0.00    +0.000 C 
ATOM     22  C   UNL     1       4.161   3.216  17.954  0.00  0.00    +0.000 C 
ATOM     23  N   UNL     1       4.952   4.208  18.680  0.00  0.00    +0.000 NA
ATOM     24  C   UNL     1       4.535   5.585  18.348  0.00  0.00    +0.000 C 
ATOM     25  H   UNL     1       5.940   4.093  18.456  0.00  0.00    +0.000 HD
ENDBRANCH   5  19
BRANCH   1  27
ATOM     26  C   UNL     1      -0.415   9.630  23.103  0.00  0.00    +0.000 C 
ATOM     27  C   UNL     1      -0.314  10.362  21.761  0.00  0.00    +0.000 C 
BRANCH  27  28
ATOM     28  O   UNL     1       0.331  11.628  21.959  0.00  0.00    +0.000 OA
ATOM     29  H   UNL     1       0.034  12.240  21.266  0.00  0.00    +0.000 HD
ENDBRANCH  27  28
ENDBRANCH   1  27
TORSDOF 4
ENDMDL
MODEL 4
REMARK VINA RESULT:      -7.3      2.349      3.157
REMARK  Name = 
REMARK  5 active torsions:
REMARK  status: ('A' for Active; 'I' for Inactive)
REMARK    1  A    between atoms: C_1  and  C_2
REMARK    2  A    between atoms: C_2  and  O_3
REMARK    3  A    between atoms: C_2  and  C_4
REMARK    4  A    between atoms: N_8  and  C_9
REMARK    5  A    between atoms: C_16  and  C_17
REMARK                            x       y       z     vdW  Elec       q    Type
REMARK                         _______ _______ _______ _____ _____    ______ ____
ROOT
ATOM      1  C   UNL     1       2.081   6.506  20.019  0.00  0.00    +0.000 A 
ATOM      2  C   UNL     1       1.479   7.630  20.556  0.00  0.00    +0.000 A 
ATOM      3  N   UNL     1       1.354   8.805  19.928  0.00  0.00    +0.000 NA
ATOM      4  C   UNL     1       1.780   8.863  18.667  0.00  0.00    +0.000 A 
ATOM      5  N   UNL     1       1.690  10.051  17.992  0.00  0.00    +0.000 N 
ATOM      6  N   UNL     1       2.316   7.816  18.024  0.00  0.00    +0.000 NA
ATOM      7  C   UNL     1       2.514   6.665  18.711  0.00  0.00    +0.000 A 
ATOM      8  H   UNL     1       1.388   9.955  17.033  0.00  0.00    +0.000 HD
ENDROOT
BRANCH   7   9
ATOM      9  C   UNL     1       3.182   5.612  17.930  0.00  0.00    +0.000 A 
ATOM     10  C   UNL     1       2.597   4.425  17.520  0.00  0.00    +0.000 A 
ATOM     11  N   UNL     1       3.469   3.758  16.702  0.00  0.00    +0.000 N 
ATOM     12  C   UNL     1       4.654   4.429  16.630  0.00  0.00    +0.000 A 
ATOM     13  C   UNL     1       5.808   4.130  15.896  0.00  0.00    +0.000 A 
ATOM     14  C   UNL     1       6.901   4.987  16.033  0.00  0.00    +0.000 A 
ATOM     15  C   UNL     1       6.846   6.082  16.889  0.00  0.00    +0.000 A 
ATOM     16  C   UNL     1       5.676   6.377  17.601  0.00  0.00    +0.000 A 
ATOM     17  C   UNL     1       4.540   5.557  17.450  0.00  0.00    +0.000 A 
ATOM     18  H   UNL     1       3.269   2.886  16.222  0.00  0.00    +0.000 HD
ENDBRANCH   7   9
BRANCH   5  19
ATOM     19  C   UNL     1       1.533  11.306  18.712  0.00  0.00    +0.000 C 
ATOM     20  C   UNL     1       2.482  12.335  18.076  0.00  0.00    +0.000 C 
ATOM     21  C   UNL     1       2.303  13.710  18.711  0.00  0.00    +0.000 C 
ATOM     22  C   UNL     1       0.844  14.155  18.672  0.00  0.00    +0.000 C 
ATOM     23  N   UNL     1      -0.025  13.180  19.328  0.00  0.00    +0.000 NA
ATOM     24  C   UNL     1       0.086  11.846  18.703  0.00  0.00    +0.000 C 
ATOM     25  H   UNL     1      -0.994  13.494  19.280  0.00  0.00    +0.000 HD
ENDBRANCH   5  19
BRANCH   1  27
ATOM     26  C   UNL     1       1.155   4.227  20.549  0.00  0.00    +0.000 C 
ATOM     27  C   UNL     1       2.222   5.278  20.871  0.00  0.00    +0.000 C 
BRANCH  27  28
ATOM     28  O   UNL     1       3.522   4.709  20.665  0.00  0.00    +0.000 OA
ATOM     29  H   UNL     1       3.648   3.982  21.296  0.00  0.00    +0.000 HD
ENDBRANCH  27  28
ENDBRANCH   1  27
TORSDOF 4
ENDMDL
MODEL 5
REMARK VINA RESULT:      -7.2      2.176      2.462
REMARK  Name = 
REMARK  5 active torsions:
REMARK  status: ('A' for Active; 'I' for Inactive)
REMARK    1  A    between atoms: C_1  and  C_2
REMARK    2  A    between atoms: C_2  and  O_3
REMARK    3  A    between atoms: C_2  and  C_4
REMARK    4  A    between atoms: N_8  and  C_9
REMARK    5  A    between atoms: C_16  and  C_17
REMARK                            x       y       z     vdW  Elec       q    Type
REMARK                         _______ _______ _______ _____ _____    ______ ____
ROOT
ATOM      1  C   UNL     1       3.754   5.838  18.842  0.00  0.00    +0.000 A 
ATOM      2  C   UNL     1       2.592   6.277  19.452  0.00  0.00    +0.000 A 
ATOM      3  N   UNL     1       1.957   7.417  19.159  0.00  0.00    +0.000 NA
ATOM      4  C   UNL     1       2.449   8.140  18.154  0.00  0.00    +0.000 A 
ATOM      5  N   UNL     1       1.842   9.324  17.831  0.00  0.00    +0.000 N 
ATOM      6  N   UNL     1       3.529   7.776  17.448  0.00  0.00    +0.000 NA
ATOM      7  C   UNL     1       4.206   6.665  17.823  0.00  0.00    +0.000 A 
ATOM      8  H   UNL     1       1.760   9.485  16.837  0.00  0.00    +0.000 HD
ENDROOT
BRANCH   7   9
ATOM      9  C   UNL     1       5.418   6.407  17.030  0.00  0.00    +0.000 A 
ATOM     10  C   UNL     1       6.665   6.963  17.268  0.00  0.00    +0.000 A 
ATOM     11  N   UNL     1       7.576   6.392  16.421  0.00  0.00    +0.000 N 
ATOM     12  C   UNL     1       6.949   5.535  15.564  0.00  0.00    +0.000 A 
ATOM     13  C   UNL     1       7.488   4.722  14.560  0.00  0.00    +0.000 A 
ATOM     14  C   UNL     1       6.600   3.954  13.805  0.00  0.00    +0.000 A 
ATOM     15  C   UNL     1       5.230   4.020  14.032  0.00  0.00    +0.000 A 
ATOM     16  C   UNL     1       4.710   4.825  15.054  0.00  0.00    +0.000 A 
ATOM     17  C   UNL     1       5.583   5.577  15.864  0.00  0.00    +0.000 A 
ATOM     18  H   UNL     1       8.572   6.582  16.422  0.00  0.00    +0.000 HD
ENDBRANCH   7   9
BRANCH   5  19
ATOM     19  C   UNL     1       0.965   9.994  18.780  0.00  0.00    +0.000 C 
ATOM     20  C   UNL     1       1.524  11.405  19.024  0.00  0.00    +0.000 C 
ATOM     21  C   UNL     1       0.601  12.210  19.933  0.00  0.00    +0.000 C 
ATOM     22  C   UNL     1      -0.827  12.230  19.397  0.00  0.00    +0.000 C 
ATOM     23  N   UNL     1      -1.347  10.875  19.224  0.00  0.00    +0.000 NA
ATOM     24  C   UNL     1      -0.503  10.083  18.307  0.00  0.00    +0.000 C 
ATOM     25  H   UNL     1      -2.298  10.914  18.856  0.00  0.00    +0.000 HD
ENDBRANCH   5  19
BRANCH   1  27
ATOM     26  C   UNL     1       4.135   3.392  18.395  0.00  0.00    +0.000 C 
ATOM     27  C   UNL     1       4.401   4.575  19.331  0.00  0.00    +0.000 C 
BRANCH  27  28
ATOM     28  O   UNL     1       5.816   4.784  19.439  0.00  0.00    +0.000 OA
ATOM     29  H   UNL     1       6.232   4.541  18.596  0.00  0.00    +0.000 HD
ENDBRANCH  27  28
ENDBRANCH   1  27
TORSDOF 4
ENDMDL
MODEL 6
REMARK VINA RESULT:      -7.1      2.999      7.970
REMARK  Name = 
REMARK  5 active torsions:
REMARK  status: ('A' for Active; 'I' for Inactive)
REMARK    1  A    between atoms: C_1  and  C_2
REMARK    2  A    between atoms: C_2  and  O_3
REMARK    3  A    between atoms: C_2  and  C_4
REMARK    4  A    between atoms: N_8  and  C_9
REMARK    5  A    between atoms: C_16  and  C_17
REMARK                            x       y       z     vdW  Elec       q    Type
REMARK                         _______ _______ _______ _____ _____    ______ ____
ROOT
ATOM      1  C   UNL     1       1.169   8.910  20.897  0.00  0.00    +0.000 A 
ATOM      2  C   UNL     1       1.833   7.735  21.200  0.00  0.00    +0.000 A 
ATOM      3  N   UNL     1       2.317   6.875  20.297  0.00  0.00    +0.000 NA
ATOM      4  C   UNL     1       2.209   7.221  19.015  0.00  0.00    +0.000 A 
ATOM      5  N   UNL     1       2.674   6.362  18.056  0.00  0.00    +0.000 N 
ATOM      6  N   UNL     1       1.646   8.368  18.610  0.00  0.00    +0.000 NA
ATOM      7  C   UNL     1       1.083   9.178  19.538  0.00  0.00    +0.000 A 
ATOM      8  H   UNL     1       3.163   6.818  17.299  0.00  0.00    +0.000 HD
ENDROOT
BRANCH   7   9
ATOM      9  C   UNL     1       0.424  10.366  18.972  0.00  0.00    +0.000 A 
ATOM     10  C   UNL     1      -0.691  10.349  18.149  0.00  0.00    +0.000 A 
ATOM     11  N   UNL     1      -1.104  11.635  17.933  0.00  0.00    +0.000 N 
ATOM     12  C   UNL     1      -0.239  12.513  18.519  0.00  0.00    +0.000 A 
ATOM     13  C   UNL     1      -0.286  13.911  18.576  0.00  0.00    +0.000 A 
ATOM     14  C   UNL     1       0.761  14.566  19.227  0.00  0.00    +0.000 A 
ATOM     15  C   UNL     1       1.820  13.849  19.773  0.00  0.00    +0.000 A 
ATOM     16  C   UNL     1       1.840  12.449  19.724  0.00  0.00    +0.000 A 
ATOM     17  C   UNL     1       0.777  11.756  19.114  0.00  0.00    +0.000 A 
ATOM     18  H   UNL     1      -1.930  11.903  17.408  0.00  0.00    +0.000 HD
ENDBRANCH   7   9
BRANCH   5  19
ATOM     19  C   UNL     1       2.896   4.956  18.360  0.00  0.00    +0.000 C 
ATOM     20  C   UNL     1       1.598   4.194  18.045  0.00  0.00    +0.000 C 
ATOM     21  C   UNL     1       1.783   2.693  18.243  0.00  0.00    +0.000 C 
ATOM     22  C   UNL     1       2.976   2.171  17.449  0.00  0.00    +0.000 C 
ATOM     23  N   UNL     1       4.203   2.881  17.807  0.00  0.00    +0.000 NA
ATOM     24  C   UNL     1       4.075   4.334  17.579  0.00  0.00    +0.000 C 
ATOM     25  H   UNL     1       4.983   2.522  17.258  0.00  0.00    +0.000 HD
ENDBRANCH   5  19
BRANCH   1  27
ATOM     26  C   UNL     1      -0.808   9.300  22.403  0.00  0.00    +0.000 C 
ATOM     27  C   UNL     1       0.608   9.739  22.015  0.00  0.00    +0.000 C 
BRANCH  27  28
ATOM     28  O   UNL     1       1.467   9.631  23.158  0.00  0.00    +0.000 OA
ATOM     29  H   UNL     1       1.970  10.457  23.249  0.00  0.00    +0.000 HD
ENDBRANCH  27  28
ENDBRANCH   1  27
TORSDOF 4
ENDMDL
MODEL 7
REMARK VINA RESULT:      -7.1      1.209      1.405
REMARK  Name = 
REMARK  5 active torsions:
REMARK  status: ('A' for Active; 'I' for Inactive)
REMARK    1  A    between atoms: C_1  and  C_2
REMARK    2  A    between atoms: C_2  and  O_3
REMARK    3  A    between atoms: C_2  and  C_4
REMARK    4  A    between atoms: N_8  and  C_9
REMARK    5  A    between atoms: C_16  and  C_17
REMARK                            x       y       z     vdW  Elec       q    Type
REMARK                         _______ _______ _______ _____ _____    ______ ____
ROOT
ATOM      1  C   UNL     1       3.788   4.737  18.874  0.00  0.00    +0.000 A 
ATOM      2  C   UNL     1       2.632   4.931  19.609  0.00  0.00    +0.000 A 
ATOM      3  N   UNL     1       1.965   6.087  19.696  0.00  0.00    +0.000 NA
ATOM      4  C   UNL     1       2.417   7.101  18.958  0.00  0.00    +0.000 A 
ATOM      5  N   UNL     1       1.776   8.309  19.030  0.00  0.00    +0.000 N 
ATOM      6  N   UNL     1       3.487   7.006  18.156  0.00  0.00    +0.000 NA
ATOM      7  C   UNL     1       4.197   5.852  18.157  0.00  0.00    +0.000 A 
ATOM      8  H   UNL     1       1.667   8.769  18.137  0.00  0.00    +0.000 HD
ENDROOT
BRANCH   7   9
ATOM      9  C   UNL     1       5.395   5.889  17.303  0.00  0.00    +0.000 A 
ATOM     10  C   UNL     1       6.576   6.549  17.607  0.00  0.00    +0.000 A 
ATOM     11  N   UNL     1       7.511   6.251  16.653  0.00  0.00    +0.000 N 
ATOM     12  C   UNL     1       6.954   5.481  15.673  0.00  0.00    +0.000 A 
ATOM     13  C   UNL     1       7.542   4.926  14.530  0.00  0.00    +0.000 A 
ATOM     14  C   UNL     1       6.721   4.193  13.673  0.00  0.00    +0.000 A 
ATOM     15  C   UNL     1       5.363   4.047  13.938  0.00  0.00    +0.000 A 
ATOM     16  C   UNL     1       4.796   4.592  15.097  0.00  0.00    +0.000 A 
ATOM     17  C   UNL     1       5.607   5.299  16.006  0.00  0.00    +0.000 A 
ATOM     18  H   UNL     1       8.476   6.561  16.665  0.00  0.00    +0.000 HD
ENDBRANCH   7   9
BRANCH   5  19
ATOM     19  C   UNL     1       0.907   8.625  20.154  0.00  0.00    +0.000 C 
ATOM     20  C   UNL     1       1.795   8.843  21.389  0.00  0.00    +0.000 C 
ATOM     21  C   UNL     1       0.963   9.279  22.591  0.00  0.00    +0.000 C 
ATOM     22  C   UNL     1       0.108  10.499  22.261  0.00  0.00    +0.000 C 
ATOM     23  N   UNL     1      -0.761  10.242  21.114  0.00  0.00    +0.000 NA
ATOM     24  C   UNL     1       0.018   9.866  19.917  0.00  0.00    +0.000 C 
ATOM     25  H   UNL     1      -1.314  11.074  20.907  0.00  0.00    +0.000 HD
ENDBRANCH   5  19
BRANCH   1  27
ATOM     26  C   UNL     1       4.106   2.623  20.200  0.00  0.00    +0.000 C 
ATOM     27  C   UNL     1       4.476   3.404  18.935  0.00  0.00    +0.000 C 
BRANCH  27  28
ATOM     28  O   UNL     1       4.113   2.635  17.781  0.00  0.00    +0.000 OA
ATOM     29  H   UNL     1       3.461   3.136  17.264  0.00  0.00    +0.000 HD
ENDBRANCH  27  28
ENDBRANCH   1  27
TORSDOF 4
ENDMDL
MODEL 8
REMARK VINA RESULT:      -6.9      3.665      8.469
REMARK  Name = 
REMARK  5 active torsions:
REMARK  status: ('A' for Active; 'I' for Inactive)
REMARK    1  A    between atoms: C_1  and  C_2
REMARK    2  A    between atoms: C_2  and  O_3
REMARK    3  A    between atoms: C_2  and  C_4
REMARK    4  A    between atoms: N_8  and  C_9
REMARK    5  A    between atoms: C_16  and  C_17
REMARK                            x       y       z     vdW  Elec       q    Type
REMARK                         _______ _______ _______ _____ _____    ______ ____
ROOT
ATOM      1  C   UNL     1       0.041  10.137  20.741  0.00  0.00    +0.000 A 
ATOM      2  C   UNL     1       1.210   9.440  20.992  0.00  0.00    +0.000 A 
ATOM      3  N   UNL     1       1.910   8.764  20.075  0.00  0.00    +0.000 NA
ATOM      4  C   UNL     1       1.479   8.833  18.816  0.00  0.00    +0.000 A 
ATOM      5  N   UNL     1       2.154   8.141  17.846  0.00  0.00    +0.000 N 
ATOM      6  N   UNL     1       0.399   9.536  18.447  0.00  0.00    +0.000 NA
ATOM      7  C   UNL     1      -0.344  10.136  19.408  0.00  0.00    +0.000 A 
ATOM      8  H   UNL     1       2.267   8.651  16.982  0.00  0.00    +0.000 HD
ENDROOT
BRANCH   7   9
ATOM      9  C   UNL     1      -1.549  10.809  18.898  0.00  0.00    +0.000 A 
ATOM     10  C   UNL     1      -2.219  11.843  19.532  0.00  0.00    +0.000 A 
ATOM     11  N   UNL     1      -3.204  12.308  18.704  0.00  0.00    +0.000 N 
ATOM     12  C   UNL     1      -3.265  11.549  17.571  0.00  0.00    +0.000 A 
ATOM     13  C   UNL     1      -4.095  11.680  16.452  0.00  0.00    +0.000 A 
ATOM     14  C   UNL     1      -3.960  10.734  15.434  0.00  0.00    +0.000 A 
ATOM     15  C   UNL     1      -3.050   9.689  15.549  0.00  0.00    +0.000 A 
ATOM     16  C   UNL     1      -2.214   9.585  16.668  0.00  0.00    +0.000 A 
ATOM     17  C   UNL     1      -2.294  10.549  17.692  0.00  0.00    +0.000 A 
ATOM     18  H   UNL     1      -3.809  13.098  18.903  0.00  0.00    +0.000 HD
ENDBRANCH   7   9
BRANCH   5  19
ATOM     19  C   UNL     1       3.044   7.044  18.197  0.00  0.00    +0.000 C 
ATOM     20  C   UNL     1       2.239   5.737  18.103  0.00  0.00    +0.000 C 
ATOM     21  C   UNL     1       3.130   4.526  18.359  0.00  0.00    +0.000 C 
ATOM     22  C   UNL     1       4.351   4.531  17.443  0.00  0.00    +0.000 C 
ATOM     23  N   UNL     1       5.121   5.764  17.594  0.00  0.00    +0.000 NA
ATOM     24  C   UNL     1       4.300   6.956  17.303  0.00  0.00    +0.000 C 
ATOM     25  H   UNL     1       5.925   5.748  16.966  0.00  0.00    +0.000 HD
ENDBRANCH   5  19
BRANCH   1  27
ATOM     26  C   UNL     1      -0.717   9.884  23.126  0.00  0.00    +0.000 C 
ATOM     27  C   UNL     1      -0.682  10.783  21.887  0.00  0.00    +0.000 C 
BRANCH  27  28
ATOM     28  O   UNL     1      -0.033  12.018  22.217  0.00  0.00    +0.000 OA
ATOM     29  H   UNL     1       0.738  11.826  22.774  0.00  0.00    +0.000 HD
ENDBRANCH  27  28
ENDBRANCH   1  27
TORSDOF 4
ENDMDL
MODEL 9
REMARK VINA RESULT:      -6.9      1.471      2.197
REMARK  Name = 
REMARK  5 active torsions:
REMARK  status: ('A' for Active; 'I' for Inactive)
REMARK    1  A    between atoms: C_1  and  C_2
REMARK    2  A    between atoms: C_2  and  O_3
REMARK    3  A    between atoms: C_2  and  C_4
REMARK    4  A    between atoms: N_8  and  C_9
REMARK    5  A    between atoms: C_16  and  C_17
REMARK                            x       y       z     vdW  Elec       q    Type
REMARK                         _______ _______ _______ _____ _____    ______ ____
ROOT
ATOM      1  C   UNL     1       1.893   4.895  20.085  0.00  0.00    +0.000 A 
ATOM      2  C   UNL     1       1.037   5.670  20.846  0.00  0.00    +0.000 A 
ATOM      3  N   UNL     1       0.977   7.006  20.809  0.00  0.00    +0.000 NA
ATOM      4  C   UNL     1       1.753   7.620  19.917  0.00  0.00    +0.000 A 
ATOM      5  N   UNL     1       1.738   8.988  19.856  0.00  0.00    +0.000 N 
ATOM      6  N   UNL     1       2.570   6.965  19.080  0.00  0.00    +0.000 NA
ATOM      7  C   UNL     1       2.679   5.620  19.201  0.00  0.00    +0.000 A 
ATOM      8  H   UNL     1       1.751   9.356  18.916  0.00  0.00    +0.000 HD
ENDROOT
BRANCH   7   9
ATOM      9  C   UNL     1       3.664   5.017  18.289  0.00  0.00    +0.000 A 
ATOM     10  C   UNL     1       3.360   4.288  17.150  0.00  0.00    +0.000 A 
ATOM     11  N   UNL     1       4.519   4.005  16.480  0.00  0.00    +0.000 N 
ATOM     12  C   UNL     1       5.595   4.450  17.192  0.00  0.00    +0.000 A 
ATOM     13  C   UNL     1       6.958   4.401  16.876  0.00  0.00    +0.000 A 
ATOM     14  C   UNL     1       7.856   4.914  17.813  0.00  0.00    +0.000 A 
ATOM     15  C   UNL     1       7.407   5.429  19.024  0.00  0.00    +0.000 A 
ATOM     16  C   UNL     1       6.038   5.488  19.314  0.00  0.00    +0.000 A 
ATOM     17  C   UNL     1       5.102   5.021  18.371  0.00  0.00    +0.000 A 
ATOM     18  H   UNL     1       4.576   3.528  15.586  0.00  0.00    +0.000 HD
ENDBRANCH   7   9
BRANCH   5  19
ATOM     19  C   UNL     1       1.234   9.777  20.971  0.00  0.00    +0.000 C 
ATOM     20  C   UNL     1      -0.203  10.207  20.632  0.00  0.00    +0.000 C 
ATOM     21  C   UNL     1      -0.840  10.956  21.798  0.00  0.00    +0.000 C 
ATOM     22  C   UNL     1      -0.758  10.146  23.088  0.00  0.00    +0.000 C 
ATOM     23  N   UNL     1       0.624   9.797  23.409  0.00  0.00    +0.000 NA
ATOM     24  C   UNL     1       1.255   9.025  22.319  0.00  0.00    +0.000 C 
ATOM     25  H   UNL     1       0.651   9.248  24.268  0.00  0.00    +0.000 HD
ENDBRANCH   5  19
BRANCH   1  27
ATOM     26  C   UNL     1       2.452   3.023  21.671  0.00  0.00    +0.000 C 
ATOM     27  C   UNL     1       1.907   3.408  20.292  0.00  0.00    +0.000 C 
BRANCH  27  28
ATOM     28  O   UNL     1       0.573   2.901  20.151  0.00  0.00    +0.000 OA
ATOM     29  H   UNL     1       0.228   3.168  19.284  0.00  0.00    +0.000 HD
ENDBRANCH  27  28
ENDBRANCH   1  27
TORSDOF 4
ENDMDL
