MODEL 1
REMARK VINA RESULT:      -7.2      0.000      0.000
REMARK  Name = 
REMARK  3 active torsions:
REMARK  status: ('A' for Active; 'I' for Inactive)
REMARK    1  A    between atoms: S_2  and  C_4
REMARK    2  A    between atoms: S_2  and  N_10
REMARK    3  A    between atoms: N_16  and  C_17
REMARK                            x       y       z     vdW  Elec       q    Type
REMARK                         _______ _______ _______ _____ _____    ______ ____
ROOT
ATOM      1  N   UNL     1       0.286  13.180  18.552  0.00  0.00    +0.000 NA
ATOM      2  C   UNL     1       1.615  12.531  18.647  0.00  0.00    +0.000 C 
ATOM      3  C   UNL     1       1.602  11.401  19.674  0.00  0.00    +0.000 C 
ATOM      4  C   UNL     1       0.483  10.355  19.419  0.00  0.00    +0.000 C 
ATOM      5  C   UNL     1       0.783   9.486  18.171  0.00  0.00    +0.000 C 
ATOM      6  C   UNL     1       2.058   8.668  18.350  0.00  0.00    +0.000 C 
ATOM      7  N   UNL     1       1.936   7.845  19.549  0.00  0.00    +0.000 N 
ATOM      8  C   UNL     1       1.622   8.516  20.811  0.00  0.00    +0.000 C 
ATOM      9  C   UNL     1       0.376   9.396  20.634  0.00  0.00    +0.000 C 
ATOM     10  C   UNL     1      -0.867  11.095  19.232  0.00  0.00    +0.000 C 
ATOM     11  C   UNL     1      -0.782  12.215  18.198  0.00  0.00    +0.000 C 
ENDROOT
BRANCH   7  12
ATOM     12  C   UNL     1       1.994   6.467  19.457  0.00  0.00    +0.000 A 
ATOM     13  C   UNL     1       2.287   5.820  18.250  0.00  0.00    +0.000 A 
ATOM     14  C   UNL     1       2.284   4.424  18.150  0.00  0.00    +0.000 A 
ATOM     15  C   UNL     1       1.993   3.644  19.265  0.00  0.00    +0.000 A 
ATOM     16  C   UNL     1       1.721   4.258  20.478  0.00  0.00    +0.000 A 
ATOM     17  C   UNL     1       1.730   5.650  20.569  0.00  0.00    +0.000 A 
ENDBRANCH   7  12
BRANCH   1  19
ATOM     18  O   UNL     1       0.783  14.192  20.872  0.00  0.00    +0.000 OA
ATOM     19  S   UNL     1      -0.121  14.334  19.750  0.00  0.00    +0.000 S 
ATOM     20  O   UNL     1      -1.552  14.299  19.940  0.00  0.00    +0.000 OA
BRANCH  19  21
ATOM     21  C   UNL     1       0.243  15.870  18.935  0.00  0.00    +0.000 A 
ATOM     22  C   UNL     1       1.573  16.155  18.612  0.00  0.00    +0.000 A 
ATOM     23  C   UNL     1       1.874  17.321  17.909  0.00  0.00    +0.000 A 
ATOM     24  C   UNL     1       0.850  18.191  17.533  0.00  0.00    +0.000 A 
ATOM     25  C   UNL     1      -0.478  17.904  17.865  0.00  0.00    +0.000 A 
ATOM     26  C   UNL     1      -0.788  16.740  18.569  0.00  0.00    +0.000 A 
ENDBRANCH  19  21
ENDBRANCH   1  19
TORSDOF 3
ENDMDL
MODEL 2
REMARK VINA RESULT:      -7.0      0.882      1.131
REMARK  Name = 
REMARK  3 active torsions:
REMARK  status: ('A' for Active; 'I' for Inactive)
REMARK    1  A    between atoms: S_2  and  C_4
REMARK    2  A    between atoms: S_2  and  N_10
REMARK    3  A    between atoms: N_16  and  C_17
REMARK                            x       y       z     vdW  Elec       q    Type
REMARK                         _______ _______ _______ _____ _____    ______ ____
ROOT
ATOM      1  N   UNL     1      -0.280  13.286  19.133  0.00  0.00    +0.000 NA
ATOM      2  C   UNL     1       1.100  12.765  19.272  0.00  0.00    +0.000 C 
ATOM      3  C   UNL     1       1.132  11.530  20.170  0.00  0.00    +0.000 C 
ATOM      4  C   UNL     1       0.154  10.414  19.712  0.00  0.00    +0.000 C 
ATOM      5  C   UNL     1       0.638   9.727  18.410  0.00  0.00    +0.000 C 
ATOM      6  C   UNL     1       1.977   9.024  18.610  0.00  0.00    +0.000 C 
ATOM      7  N   UNL     1       1.855   8.062  19.700  0.00  0.00    +0.000 N 
ATOM      8  C   UNL     1       1.378   8.551  20.995  0.00  0.00    +0.000 C 
ATOM      9  C   UNL     1       0.061   9.318  20.805  0.00  0.00    +0.000 C 
ATOM     10  C   UNL     1      -1.249  11.034  19.489  0.00  0.00    +0.000 C 
ATOM     11  C   UNL     1      -1.210  12.266  18.590  0.00  0.00    +0.000 C 
ENDROOT
BRANCH   7  12
ATOM     12  C   UNL     1       2.068   6.716  19.469  0.00  0.00    +0.000 A 
ATOM     13  C   UNL     1       2.494   6.239  18.223  0.00  0.00    +0.000 A 
ATOM     14  C   UNL     1       2.648   4.870  17.977  0.00  0.00    +0.000 A 
ATOM     15  C   UNL     1       2.384   3.946  18.984  0.00  0.00    +0.000 A 
ATOM     16  C   UNL     1       1.983   4.391  20.235  0.00  0.00    +0.000 A 
ATOM     17  C   UNL     1       1.835   5.758  20.470  0.00  0.00    +0.000 A 
ENDBRANCH   7  12
BRANCH   1  19
ATOM     18  O   UNL     1       0.105  14.361  21.446  0.00  0.00    +0.000 OA
ATOM     19  S   UNL     1      -0.897  14.251  20.406  0.00  0.00    +0.000 S 
ATOM     20  O   UNL     1      -2.233  13.795  20.709  0.00  0.00    +0.000 OA
BRANCH  19  21
ATOM     21  C   UNL     1      -1.068  15.839  19.629  0.00  0.00    +0.000 A 
ATOM     22  C   UNL     1      -0.265  16.131  18.523  0.00  0.00    +0.000 A 
ATOM     23  C   UNL     1      -0.432  17.342  17.854  0.00  0.00    +0.000 A 
ATOM     24  C   UNL     1      -1.397  18.251  18.290  0.00  0.00    +0.000 A 
ATOM     25  C   UNL     1      -2.192  17.957  19.401  0.00  0.00    +0.000 A 
ATOM     26  C   UNL     1      -2.031  16.748  20.077  0.00  0.00    +0.000 A 
ENDBRANCH  19  21
ENDBRANCH   1  19
TORSDOF 3
ENDMDL
MODEL 3
REMARK VINA RESULT:      -6.9      0.285      1.358
REMARK  Name = 
REMARK  3 active torsions:
REMARK  status: ('A' for Active; 'I' for Inactive)
REMARK    1  A    between atoms: S_2  and  C_4
REMARK    2  A    between atoms: S_2  and  N_10
REMARK    3  A    between atoms: N_16  and  C_17
REMARK                            x       y       z     vdW  Elec       q    Type
REMARK                         _______ _______ _______ _____ _____    ______ ____
ROOT
ATOM      1  N   UNL     1       0.203  13.122  18.703  0.00  0.00    +0.000 NA
ATOM      2  C   UNL     1       1.537  12.483  18.811  0.00  0.00    +0.000 C 
ATOM      3  C   UNL     1       1.513  11.328  19.809  0.00  0.00    +0.000 C 
ATOM      4  C   UNL     1       0.410  10.277  19.504  0.00  0.00    +0.000 C 
ATOM      5  C   UNL     1       0.747   9.443  18.241  0.00  0.00    +0.000 C 
ATOM      6  C   UNL     1       2.026   8.634  18.427  0.00  0.00    +0.000 C 
ATOM      7  N   UNL     1       1.887   7.780  19.602  0.00  0.00    +0.000 N 
ATOM      8  C   UNL     1       1.539   8.415  20.873  0.00  0.00    +0.000 C 
ATOM      9  C   UNL     1       0.288   9.287  20.692  0.00  0.00    +0.000 C 
ATOM     10  C   UNL     1      -0.942  11.008  19.306  0.00  0.00    +0.000 C 
ATOM     11  C   UNL     1      -0.848  12.155  18.303  0.00  0.00    +0.000 C 
ENDROOT
BRANCH   7  12
ATOM     12  C   UNL     1       1.961   6.405  19.477  0.00  0.00    +0.000 A 
ATOM     13  C   UNL     1       1.832   5.555  20.583  0.00  0.00    +0.000 A 
ATOM     14  C   UNL     1       1.969   4.168  20.459  0.00  0.00    +0.000 A 
ATOM     15  C   UNL     1       2.232   3.600  19.215  0.00  0.00    +0.000 A 
ATOM     16  C   UNL     1       2.341   4.416  18.099  0.00  0.00    +0.000 A 
ATOM     17  C   UNL     1       2.200   5.798  18.233  0.00  0.00    +0.000 A 
ENDBRANCH   7  12
BRANCH   1  19
ATOM     18  O   UNL     1       0.681  14.125  21.032  0.00  0.00    +0.000 OA
ATOM     19  S   UNL     1      -0.242  14.241  19.921  0.00  0.00    +0.000 S 
ATOM     20  O   UNL     1      -1.667  14.138  20.127  0.00  0.00    +0.000 OA
BRANCH  19  21
ATOM     21  C   UNL     1       0.044  15.802  19.122  0.00  0.00    +0.000 A 
ATOM     22  C   UNL     1      -0.995  16.737  19.093  0.00  0.00    +0.000 A 
ATOM     23  C   UNL     1      -0.772  17.994  18.535  0.00  0.00    +0.000 A 
ATOM     24  C   UNL     1       0.483  18.310  18.013  0.00  0.00    +0.000 A 
ATOM     25  C   UNL     1       1.516  17.369  18.037  0.00  0.00    +0.000 A 
ATOM     26  C   UNL     1       1.301  16.108  18.593  0.00  0.00    +0.000 A 
ENDBRANCH  19  21
ENDBRANCH   1  19
TORSDOF 3
ENDMDL
MODEL 4
REMARK VINA RESULT:      -6.6      1.360      1.939
REMARK  Name = 
REMARK  3 active torsions:
REMARK  status: ('A' for Active; 'I' for Inactive)
REMARK    1  A    between atoms: S_2  and  C_4
REMARK    2  A    between atoms: S_2  and  N_10
REMARK    3  A    between atoms: N_16  and  C_17
REMARK                            x       y       z     vdW  Elec       q    Type
REMARK                         _______ _______ _______ _____ _____    ______ ____
ROOT
ATOM      1  N   UNL     1      -0.085  12.694  19.260  0.00  0.00    +0.000 NA
ATOM      2  C   UNL     1       1.331  12.259  19.212  0.00  0.00    +0.000 C 
ATOM      3  C   UNL     1       1.508  10.893  19.871  0.00  0.00    +0.000 C 
ATOM      4  C   UNL     1       0.567   9.805  19.287  0.00  0.00    +0.000 C 
ATOM      5  C   UNL     1       0.988   9.391  17.853  0.00  0.00    +0.000 C 
ATOM      6  C   UNL     1       2.378   8.764  17.835  0.00  0.00    +0.000 C 
ATOM      7  N   UNL     1       2.401   7.622  18.742  0.00  0.00    +0.000 N 
ATOM      8  C   UNL     1       1.999   7.842  20.132  0.00  0.00    +0.000 C 
ATOM      9  C   UNL     1       0.627   8.531  20.170  0.00  0.00    +0.000 C 
ATOM     10  C   UNL     1      -0.885  10.348  19.272  0.00  0.00    +0.000 C 
ATOM     11  C   UNL     1      -0.991  11.718  18.607  0.00  0.00    +0.000 C 
ENDROOT
BRANCH   7  12
ATOM     12  C   UNL     1       2.676   6.355  18.260  0.00  0.00    +0.000 A 
ATOM     13  C   UNL     1       1.774   5.295  18.416  0.00  0.00    +0.000 A 
ATOM     14  C   UNL     1       2.085   4.002  17.980  0.00  0.00    +0.000 A 
ATOM     15  C   UNL     1       3.309   3.745  17.370  0.00  0.00    +0.000 A 
ATOM     16  C   UNL     1       4.212   4.781  17.183  0.00  0.00    +0.000 A 
ATOM     17  C   UNL     1       3.891   6.068  17.618  0.00  0.00    +0.000 A 
ENDBRANCH   7  12
BRANCH   1  19
ATOM     18  O   UNL     1       0.426  13.412  21.684  0.00  0.00    +0.000 OA
ATOM     19  S   UNL     1      -0.658  13.375  20.724  0.00  0.00    +0.000 S 
ATOM     20  O   UNL     1      -1.917  12.747  21.049  0.00  0.00    +0.000 OA
BRANCH  19  21
ATOM     21  C   UNL     1      -1.033  15.043  20.243  0.00  0.00    +0.000 A 
ATOM     22  C   UNL     1      -0.373  15.583  19.135  0.00  0.00    +0.000 A 
ATOM     23  C   UNL     1      -0.703  16.864  18.697  0.00  0.00    +0.000 A 
ATOM     24  C   UNL     1      -1.686  17.596  19.364  0.00  0.00    +0.000 A 
ATOM     25  C   UNL     1      -2.337  17.054  20.476  0.00  0.00    +0.000 A 
ATOM     26  C   UNL     1      -2.012  15.773  20.922  0.00  0.00    +0.000 A 
ENDBRANCH  19  21
ENDBRANCH   1  19
TORSDOF 3
ENDMDL
MODEL 5
REMARK VINA RESULT:      -6.6      1.261      1.883
REMARK  Name = 
REMARK  3 active torsions:
REMARK  status: ('A' for Active; 'I' for Inactive)
REMARK    1  A    between atoms: S_2  and  C_4
REMARK    2  A    between atoms: S_2  and  N_10
REMARK    3  A    between atoms: N_16  and  C_17
REMARK                            x       y       z     vdW  Elec       q    Type
REMARK                         _______ _______ _______ _____ _____    ______ ____
ROOT
ATOM      1  N   UNL     1      -0.265  12.771  19.058  0.00  0.00    +0.000 NA
ATOM      2  C   UNL     1       1.163  12.375  19.032  0.00  0.00    +0.000 C 
ATOM      3  C   UNL     1       1.377  11.047  19.755  0.00  0.00    +0.000 C 
ATOM      4  C   UNL     1       0.468   9.906  19.223  0.00  0.00    +0.000 C 
ATOM      5  C   UNL     1       0.905   9.437  17.811  0.00  0.00    +0.000 C 
ATOM      6  C   UNL     1       2.312   8.850  17.824  0.00  0.00    +0.000 C 
ATOM      7  N   UNL     1       2.366   7.753  18.784  0.00  0.00    +0.000 N 
ATOM      8  C   UNL     1       1.954   8.028  20.162  0.00  0.00    +0.000 C 
ATOM      9  C   UNL     1       0.562   8.678  20.166  0.00  0.00    +0.000 C 
ATOM     10  C   UNL     1      -0.998  10.407  19.180  0.00  0.00    +0.000 C 
ATOM     11  C   UNL     1      -1.141  11.740  18.451  0.00  0.00    +0.000 C 
ENDROOT
BRANCH   7  12
ATOM     12  C   UNL     1       2.678   6.474  18.364  0.00  0.00    +0.000 A 
ATOM     13  C   UNL     1       3.867   6.191  17.679  0.00  0.00    +0.000 A 
ATOM     14  C   UNL     1       4.148   4.906  17.203  0.00  0.00    +0.000 A 
ATOM     15  C   UNL     1       3.242   3.870  17.410  0.00  0.00    +0.000 A 
ATOM     16  C   UNL     1       2.068   4.116  18.105  0.00  0.00    +0.000 A 
ATOM     17  C   UNL     1       1.798   5.400  18.579  0.00  0.00    +0.000 A 
ENDBRANCH   7  12
BRANCH   1  19
ATOM     18  O   UNL     1       0.196  13.538  21.478  0.00  0.00    +0.000 OA
ATOM     19  S   UNL     1      -0.860  13.504  20.487  0.00  0.00    +0.000 S 
ATOM     20  O   UNL     1      -2.145  12.918  20.791  0.00  0.00    +0.000 OA
BRANCH  19  21
ATOM     21  C   UNL     1      -1.176  15.169  19.955  0.00  0.00    +0.000 A 
ATOM     22  C   UNL     1      -2.169  15.903  20.611  0.00  0.00    +0.000 A 
ATOM     23  C   UNL     1      -2.386  17.233  20.259  0.00  0.00    +0.000 A 
ATOM     24  C   UNL     1      -1.612  17.822  19.257  0.00  0.00    +0.000 A 
ATOM     25  C   UNL     1      -0.626  17.082  18.599  0.00  0.00    +0.000 A 
ATOM     26  C   UNL     1      -0.403  15.749  18.946  0.00  0.00    +0.000 A 
ENDBRANCH  19  21
ENDBRANCH   1  19
TORSDOF 3
ENDMDL
MODEL 6
REMARK VINA RESULT:      -6.4      5.440      9.460
REMARK  Name = 
REMARK  3 active torsions:
REMARK  status: ('A' for Active; 'I' for Inactive)
REMARK    1  A    between atoms: S_2  and  C_4
REMARK    2  A    between atoms: S_2  and  N_10
REMARK    3  A    between atoms: N_16  and  C_17
REMARK                            x       y       z     vdW  Elec       q    Type
REMARK                         _______ _______ _______ _____ _____    ______ ____
ROOT
ATOM      1  N   UNL     1       2.905   3.068  20.206  0.00  0.00    +0.000 NA
ATOM      2  C   UNL     1       3.383   4.292  20.892  0.00  0.00    +0.000 C 
ATOM      3  C   UNL     1       3.360   5.493  19.949  0.00  0.00    +0.000 C 
ATOM      4  C   UNL     1       1.975   5.726  19.287  0.00  0.00    +0.000 C 
ATOM      5  C   UNL     1       0.933   6.252  20.307  0.00  0.00    +0.000 C 
ATOM      6  C   UNL     1       1.336   7.610  20.872  0.00  0.00    +0.000 C 
ATOM      7  N   UNL     1       1.519   8.551  19.773  0.00  0.00    +0.000 N 
ATOM      8  C   UNL     1       2.453   8.185  18.707  0.00  0.00    +0.000 C 
ATOM      9  C   UNL     1       2.102   6.791  18.167  0.00  0.00    +0.000 C 
ATOM     10  C   UNL     1       1.480   4.392  18.671  0.00  0.00    +0.000 C 
ATOM     11  C   UNL     1       1.536   3.232  19.661  0.00  0.00    +0.000 C 
ENDROOT
BRANCH   7  12
ATOM     12  C   UNL     1       0.738   9.689  19.691  0.00  0.00    +0.000 A 
ATOM     13  C   UNL     1       0.546  10.532  20.793  0.00  0.00    +0.000 A 
ATOM     14  C   UNL     1      -0.295  11.648  20.721  0.00  0.00    +0.000 A 
ATOM     15  C   UNL     1      -0.958  11.949  19.535  0.00  0.00    +0.000 A 
ATOM     16  C   UNL     1      -0.768  11.144  18.421  0.00  0.00    +0.000 A 
ATOM     17  C   UNL     1       0.076  10.035  18.503  0.00  0.00    +0.000 A 
ENDBRANCH   7  12
BRANCH   1  19
ATOM     18  O   UNL     1       3.278   1.372  18.298  0.00  0.00    +0.000 OA
ATOM     19  S   UNL     1       4.013   2.240  19.195  0.00  0.00    +0.000 S 
ATOM     20  O   UNL     1       5.076   1.722  20.023  0.00  0.00    +0.000 OA
BRANCH  19  21
ATOM     21  C   UNL     1       4.713   3.563  18.238  0.00  0.00    +0.000 A 
ATOM     22  C   UNL     1       5.816   4.249  18.755  0.00  0.00    +0.000 A 
ATOM     23  C   UNL     1       6.427   5.242  17.992  0.00  0.00    +0.000 A 
ATOM     24  C   UNL     1       5.935   5.543  16.721  0.00  0.00    +0.000 A 
ATOM     25  C   UNL     1       4.828   4.859  16.212  0.00  0.00    +0.000 A 
ATOM     26  C   UNL     1       4.210   3.864  16.970  0.00  0.00    +0.000 A 
ENDBRANCH  19  21
ENDBRANCH   1  19
TORSDOF 3
ENDMDL
MODEL 7
REMARK VINA RESULT:      -6.4      1.295      1.906
REMARK  Name = 
REMARK  3 active torsions:
REMARK  status: ('A' for Active; 'I' for Inactive)
REMARK    1  A    between atoms: S_2  and  C_4
REMARK    2  A    between atoms: S_2  and  N_10
REMARK    3  A    between atoms: N_16  and  C_17
REMARK                            x       y       z     vdW  Elec       q    Type
REMARK                         _______ _______ _______ _____ _____    ______ ____
ROOT
ATOM      1  N   UNL     1      -0.333  12.783  19.113  0.00  0.00    +0.000 NA
ATOM      2  C   UNL     1       1.098  12.401  19.066  0.00  0.00    +0.000 C 
ATOM      3  C   UNL     1       1.333  11.066  19.767  0.00  0.00    +0.000 C 
ATOM      4  C   UNL     1       0.430   9.924  19.227  0.00  0.00    +0.000 C 
ATOM      5  C   UNL     1       0.855   9.480  17.804  0.00  0.00    +0.000 C 
ATOM      6  C   UNL     1       2.269   8.907  17.794  0.00  0.00    +0.000 C 
ATOM      7  N   UNL     1       2.343   7.796  18.737  0.00  0.00    +0.000 N 
ATOM      8  C   UNL     1       1.943   8.046  20.123  0.00  0.00    +0.000 C 
ATOM      9  C   UNL     1       0.545   8.683  20.151  0.00  0.00    +0.000 C 
ATOM     10  C   UNL     1      -1.042  10.410  19.208  0.00  0.00    +0.000 C 
ATOM     11  C   UNL     1      -1.206  11.753  18.500  0.00  0.00    +0.000 C 
ENDROOT
BRANCH   7  12
ATOM     12  C   UNL     1       2.663   6.526  18.295  0.00  0.00    +0.000 A 
ATOM     13  C   UNL     1       1.779   5.449  18.441  0.00  0.00    +0.000 A 
ATOM     14  C   UNL     1       2.133   4.154  18.046  0.00  0.00    +0.000 A 
ATOM     15  C   UNL     1       3.384   3.911  17.487  0.00  0.00    +0.000 A 
ATOM     16  C   UNL     1       4.271   4.963  17.309  0.00  0.00    +0.000 A 
ATOM     17  C   UNL     1       3.906   6.252  17.703  0.00  0.00    +0.000 A 
ENDBRANCH   7  12
BRANCH   1  19
ATOM     18  O   UNL     1       0.019  13.227  21.630  0.00  0.00    +0.000 OA
ATOM     19  S   UNL     1      -0.921  13.489  20.559  0.00  0.00    +0.000 S 
ATOM     20  O   UNL     1      -2.316  13.142  20.694  0.00  0.00    +0.000 OA
BRANCH  19  21
ATOM     21  C   UNL     1      -0.864  15.224  20.183  0.00  0.00    +0.000 A 
ATOM     22  C   UNL     1      -1.108  16.139  21.212  0.00  0.00    +0.000 A 
ATOM     23  C   UNL     1      -0.999  17.504  20.956  0.00  0.00    +0.000 A 
ATOM     24  C   UNL     1      -0.648  17.948  19.681  0.00  0.00    +0.000 A 
ATOM     25  C   UNL     1      -0.413  17.029  18.654  0.00  0.00    +0.000 A 
ATOM     26  C   UNL     1      -0.520  15.661  18.900  0.00  0.00    +0.000 A 
ENDBRANCH  19  21
ENDBRANCH   1  19
TORSDOF 3
ENDMDL
MODEL 8
REMARK VINA RESULT:      -6.3      2.731      3.672
REMARK  Name = 
REMARK  3 active torsions:
REMARK  status: ('A' for Active; 'I' for Inactive)
REMARK    1  A    between atoms: S_2  and  C_4
REMARK    2  A    between atoms: S_2  and  N_10
REMARK    3  A    between atoms: N_16  and  C_17
REMARK                            x       y       z     vdW  Elec       q    Type
REMARK                         _______ _______ _______ _____ _____    ______ ____
ROOT
ATOM      1  N   UNL     1      -0.163  12.486  20.364  0.00  0.00    +0.000 NA
ATOM      2  C   UNL     1       1.248  12.112  20.105  0.00  0.00    +0.000 C 
ATOM      3  C   UNL     1       1.535  10.691  20.583  0.00  0.00    +0.000 C 
ATOM      4  C   UNL     1       0.558   9.637  19.995  0.00  0.00    +0.000 C 
ATOM      5  C   UNL     1       0.816   9.396  18.485  0.00  0.00    +0.000 C 
ATOM      6  C   UNL     1       2.209   8.827  18.237  0.00  0.00    +0.000 C 
ATOM      7  N   UNL     1       2.368   7.595  19.003  0.00  0.00    +0.000 N 
ATOM      8  C   UNL     1       2.128   7.650  20.446  0.00  0.00    +0.000 C 
ATOM      9  C   UNL     1       0.754   8.279  20.719  0.00  0.00    +0.000 C 
ATOM     10  C   UNL     1      -0.898  10.124  20.208  0.00  0.00    +0.000 C 
ATOM     11  C   UNL     1      -1.116  11.553  19.716  0.00  0.00    +0.000 C 
ENDROOT
BRANCH   7  12
ATOM     12  C   UNL     1       2.615   6.399  18.356  0.00  0.00    +0.000 A 
ATOM     13  C   UNL     1       1.644   5.393  18.268  0.00  0.00    +0.000 A 
ATOM     14  C   UNL     1       1.920   4.161  17.665  0.00  0.00    +0.000 A 
ATOM     15  C   UNL     1       3.180   3.913  17.128  0.00  0.00    +0.000 A 
ATOM     16  C   UNL     1       4.153   4.899  17.180  0.00  0.00    +0.000 A 
ATOM     17  C   UNL     1       3.866   6.126  17.781  0.00  0.00    +0.000 A 
ENDBRANCH   7  12
BRANCH   1  19
ATOM     18  O   UNL     1       0.129  14.213  22.258  0.00  0.00    +0.000 OA
ATOM     19  S   UNL     1      -0.574  12.984  21.950  0.00  0.00    +0.000 S 
ATOM     20  O   UNL     1      -0.478  11.836  22.821  0.00  0.00    +0.000 OA
BRANCH  19  21
ATOM     21  C   UNL     1      -2.303  13.358  21.793  0.00  0.00    +0.000 A 
ATOM     22  C   UNL     1      -3.223  12.570  22.492  0.00  0.00    +0.000 A 
ATOM     23  C   UNL     1      -4.579  12.888  22.441  0.00  0.00    +0.000 A 
ATOM     24  C   UNL     1      -5.007  13.988  21.696  0.00  0.00    +0.000 A 
ATOM     25  C   UNL     1      -4.084  14.768  20.993  0.00  0.00    +0.000 A 
ATOM     26  C   UNL     1      -2.726  14.456  21.039  0.00  0.00    +0.000 A 
ENDBRANCH  19  21
ENDBRANCH   1  19
TORSDOF 3
ENDMDL
MODEL 9
REMARK VINA RESULT:      -6.3      1.072      1.847
REMARK  Name = 
REMARK  3 active torsions:
REMARK  status: ('A' for Active; 'I' for Inactive)
REMARK    1  A    between atoms: S_2  and  C_4
REMARK    2  A    between atoms: S_2  and  N_10
REMARK    3  A    between atoms: N_16  and  C_17
REMARK                            x       y       z     vdW  Elec       q    Type
REMARK                         _______ _______ _______ _____ _____    ______ ____
ROOT
ATOM      1  N   UNL     1       0.344  13.056  18.733  0.00  0.00    +0.000 NA
ATOM      2  C   UNL     1       1.677  12.411  18.777  0.00  0.00    +0.000 C 
ATOM      3  C   UNL     1       1.689  11.241  19.757  0.00  0.00    +0.000 C 
ATOM      4  C   UNL     1       0.570  10.199  19.481  0.00  0.00    +0.000 C 
ATOM      5  C   UNL     1       0.851   9.384  18.193  0.00  0.00    +0.000 C 
ATOM      6  C   UNL     1       2.133   8.566  18.314  0.00  0.00    +0.000 C 
ATOM      7  N   UNL     1       2.038   7.694  19.480  0.00  0.00    +0.000 N 
ATOM      8  C   UNL     1       1.745   8.312  20.775  0.00  0.00    +0.000 C 
ATOM      9  C   UNL     1       0.491   9.191  20.657  0.00  0.00    +0.000 C 
ATOM     10  C   UNL     1      -0.786  10.938  19.350  0.00  0.00    +0.000 C 
ATOM     11  C   UNL     1      -0.727  12.100  18.361  0.00  0.00    +0.000 C 
ENDROOT
BRANCH   7  12
ATOM     12  C   UNL     1       2.100   6.321  19.331  0.00  0.00    +0.000 A 
ATOM     13  C   UNL     1       1.858   5.451  20.401  0.00  0.00    +0.000 A 
ATOM     14  C   UNL     1       1.983   4.065  20.259  0.00  0.00    +0.000 A 
ATOM     15  C   UNL     1       2.348   3.518  19.032  0.00  0.00    +0.000 A 
ATOM     16  C   UNL     1       2.572   4.356  17.949  0.00  0.00    +0.000 A 
ATOM     17  C   UNL     1       2.441   5.737  18.101  0.00  0.00    +0.000 A 
ENDBRANCH   7  12
BRANCH   1  19
ATOM     18  O   UNL     1      -0.061  13.453  21.250  0.00  0.00    +0.000 OA
ATOM     19  S   UNL     1      -0.046  14.158  19.985  0.00  0.00    +0.000 S 
ATOM     20  O   UNL     1      -1.184  14.939  19.558  0.00  0.00    +0.000 OA
BRANCH  19  21
ATOM     21  C   UNL     1       1.353  15.253  19.975  0.00  0.00    +0.000 A 
ATOM     22  C   UNL     1       1.539  16.088  18.869  0.00  0.00    +0.000 A 
ATOM     23  C   UNL     1       2.588  17.005  18.871  0.00  0.00    +0.000 A 
ATOM     24  C   UNL     1       3.442  17.084  19.972  0.00  0.00    +0.000 A 
ATOM     25  C   UNL     1       3.255  16.242  21.072  0.00  0.00    +0.000 A 
ATOM     26  C   UNL     1       2.208  15.321  21.078  0.00  0.00    +0.000 A 
ENDBRANCH  19  21
ENDBRANCH   1  19
TORSDOF 3
ENDMDL
