MODEL 1
REMARK VINA RESULT:      -7.3      0.000      0.000
REMARK  Name = 
REMARK  10 active torsions:
REMARK  status: ('A' for Active; 'I' for Inactive)
REMARK    1  A    between atoms: C_1  and  O_2
REMARK    2  A    between atoms: O_2  and  C_3
REMARK    3  A    between atoms: C_7  and  C_8
REMARK    4  A    between atoms: C_9  and  C_10
REMARK    5  A    between atoms: C_10  and  C_12
REMARK    6  A    between atoms: C_22  and  O_23
REMARK    7  A    between atoms: N_26  and  C_27
REMARK    8  A    between atoms: C_27  and  C_28
REMARK    9  A    between atoms: C_28  and  C_29
REMARK   10  A    between atoms: C_29  and  N_30
REMARK                            x       y       z     vdW  Elec       q    Type
REMARK                         _______ _______ _______ _____ _____    ______ ____
ROOT
ATOM      1  C   UNL     1       0.125  11.125  20.360  0.00  0.00    +0.000 C 
ATOM      2  C   UNL     1       0.407  10.210  21.505  0.00  0.00    +0.000 C 
ATOM      3  C   UNL     1      -0.406  10.454  22.553  0.00  0.00    +0.000 C 
ATOM      4  C   UNL     1      -1.361  11.506  22.122  0.00  0.00    +0.000 C 
ATOM      5  O   UNL     1      -2.251  11.982  22.809  0.00  0.00    +0.000 OA
ATOM      6  N   UNL     1      -1.079  11.796  20.802  0.00  0.00    +0.000 N 
ENDROOT
BRANCH   1  11
ATOM      7  C   UNL     1       2.465  14.160  20.512  0.00  0.00    +0.000 A 
ATOM      8  C   UNL     1       2.917  14.204  19.191  0.00  0.00    +0.000 A 
ATOM      9  C   UNL     1       2.533  13.225  18.277  0.00  0.00    +0.000 A 
ATOM     10  C   UNL     1       1.691  12.190  18.683  0.00  0.00    +0.000 A 
ATOM     11  C   UNL     1       1.189  12.145  19.996  0.00  0.00    +0.000 A 
ATOM     12  C   UNL     1       1.582  13.149  20.899  0.00  0.00    +0.000 A 
BRANCH   7  14
ATOM     13  C   UNL     1       3.810  16.111  20.731  0.00  0.00    +0.000 C 
ATOM     14  O   UNL     1       2.946  15.147  21.326  0.00  0.00    +0.000 OA
ENDBRANCH   7  14
ENDBRANCH   1  11
BRANCH   2  15
ATOM     15  C   UNL     1       1.401   9.125  21.607  0.00  0.00    +0.000 C 
ATOM     16  O   UNL     1       2.075   9.014  22.629  0.00  0.00    +0.000 OA
BRANCH  15  17
ATOM     17  C   UNL     1       1.642   8.215  20.452  0.00  0.00    +0.000 A 
ATOM     18  C   UNL     1       1.883   8.554  19.115  0.00  0.00    +0.000 A 
ATOM     19  C   UNL     1       2.370   7.605  18.197  0.00  0.00    +0.000 A 
ATOM     20  C   UNL     1       2.520   6.280  18.634  0.00  0.00    +0.000 A 
ATOM     21  C   UNL     1       1.959   5.924  19.842  0.00  0.00    +0.000 A 
ATOM     22  C   UNL     1       1.604   6.869  20.782  0.00  0.00    +0.000 A 
ATOM     23  O   UNL     1       1.902   4.624  20.241  0.00  0.00    +0.000 OA
ATOM     24  C   UNL     1       3.256   4.214  20.157  0.00  0.00    +0.000 C 
ATOM     25  C   UNL     1       3.696   4.234  18.692  0.00  0.00    +0.000 C 
ATOM     26  O   UNL     1       3.280   5.398  17.920  0.00  0.00    +0.000 OA
ENDBRANCH  15  17
ENDBRANCH   2  15
BRANCH   3  27
ATOM     27  O   UNL     1      -0.445   9.842  23.769  0.00  0.00    +0.000 OA
ATOM     28  H   UNL     1      -1.389   9.719  24.014  0.00  0.00    +0.000 HD
ENDBRANCH   3  27
BRANCH   6  29
ATOM     29  C   UNL     1      -1.785  12.785  19.994  0.00  0.00    +0.000 C 
BRANCH  29  30
ATOM     30  C   UNL     1      -1.996  12.353  18.538  0.00  0.00    +0.000 C 
BRANCH  30  31
ATOM     31  C   UNL     1      -3.150  11.366  18.391  0.00  0.00    +0.000 C 
BRANCH  31  32
ATOM     32  N   UNL     1      -3.236  10.849  17.039  0.00  0.00    +0.000 N 
ATOM     33  C   UNL     1      -4.149  11.211  16.091  0.00  0.00    +0.000 A 
ATOM     34  C   UNL     1      -3.807  10.480  14.976  0.00  0.00    +0.000 A 
ATOM     35  N   UNL     1      -2.722   9.682  15.231  0.00  0.00    +0.000 NA
ATOM     36  C   UNL     1      -2.412   9.911  16.488  0.00  0.00    +0.000 A 
ENDBRANCH  31  32
ENDBRANCH  30  31
ENDBRANCH  29  30
ENDBRANCH   6  29
TORSDOF 9
ENDMDL
MODEL 2
REMARK VINA RESULT:      -7.0      2.688      5.526
REMARK  Name = 
REMARK  10 active torsions:
REMARK  status: ('A' for Active; 'I' for Inactive)
REMARK    1  A    between atoms: C_1  and  O_2
REMARK    2  A    between atoms: O_2  and  C_3
REMARK    3  A    between atoms: C_7  and  C_8
REMARK    4  A    between atoms: C_9  and  C_10
REMARK    5  A    between atoms: C_10  and  C_12
REMARK    6  A    between atoms: C_22  and  O_23
REMARK    7  A    between atoms: N_26  and  C_27
REMARK    8  A    between atoms: C_27  and  C_28
REMARK    9  A    between atoms: C_28  and  C_29
REMARK   10  A    between atoms: C_29  and  N_30
REMARK                            x       y       z     vdW  Elec       q    Type
REMARK                         _______ _______ _______ _____ _____    ______ ____
ROOT
ATOM      1  C   UNL     1      -0.692  10.985  19.610  0.00  0.00    +0.000 C 
ATOM      2  C   UNL     1       0.705  11.020  19.087  0.00  0.00    +0.000 C 
ATOM      3  C   UNL     1       1.282  12.223  19.277  0.00  0.00    +0.000 C 
ATOM      4  C   UNL     1       0.313  13.051  20.039  0.00  0.00    +0.000 C 
ATOM      5  O   UNL     1       0.490  14.205  20.395  0.00  0.00    +0.000 OA
ATOM      6  N   UNL     1      -0.785  12.255  20.298  0.00  0.00    +0.000 N 
ENDROOT
BRANCH   1  11
ATOM      7  C   UNL     1      -2.613  10.258  16.371  0.00  0.00    +0.000 A 
ATOM      8  C   UNL     1      -3.818  10.912  16.633  0.00  0.00    +0.000 A 
ATOM      9  C   UNL     1      -4.042  11.520  17.866  0.00  0.00    +0.000 A 
ATOM     10  C   UNL     1      -3.055  11.473  18.851  0.00  0.00    +0.000 A 
ATOM     11  C   UNL     1      -1.818  10.855  18.599  0.00  0.00    +0.000 A 
ATOM     12  C   UNL     1      -1.610  10.258  17.343  0.00  0.00    +0.000 A 
BRANCH   7  14
ATOM     13  C   UNL     1      -3.542   9.985  14.196  0.00  0.00    +0.000 C 
ATOM     14  O   UNL     1      -2.529   9.661  15.144  0.00  0.00    +0.000 OA
ENDBRANCH   7  14
ENDBRANCH   1  11
BRANCH   2  15
ATOM     15  C   UNL     1       1.485   9.945  18.442  0.00  0.00    +0.000 C 
ATOM     16  O   UNL     1       1.881  10.092  17.288  0.00  0.00    +0.000 OA
BRANCH  15  17
ATOM     17  C   UNL     1       1.728   8.660  19.157  0.00  0.00    +0.000 A 
ATOM     18  C   UNL     1       1.480   8.354  20.500  0.00  0.00    +0.000 A 
ATOM     19  C   UNL     1       1.495   7.024  20.960  0.00  0.00    +0.000 A 
ATOM     20  C   UNL     1       1.857   6.016  20.055  0.00  0.00    +0.000 A 
ATOM     21  C   UNL     1       2.413   6.390  18.850  0.00  0.00    +0.000 A 
ATOM     22  C   UNL     1       2.278   7.670  18.357  0.00  0.00    +0.000 A 
ATOM     23  O   UNL     1       2.957   5.472  18.005  0.00  0.00    +0.000 OA
ATOM     24  C   UNL     1       1.896   4.550  17.823  0.00  0.00    +0.000 C 
ATOM     25  C   UNL     1       1.607   3.849  19.151  0.00  0.00    +0.000 C 
ATOM     26  O   UNL     1       1.579   4.706  20.329  0.00  0.00    +0.000 OA
ENDBRANCH  15  17
ENDBRANCH   2  15
BRANCH   3  27
ATOM     27  O   UNL     1       2.531  12.642  18.928  0.00  0.00    +0.000 OA
ATOM     28  H   UNL     1       2.828  12.098  18.164  0.00  0.00    +0.000 HD
ENDBRANCH   3  27
BRANCH   6  29
ATOM     29  C   UNL     1      -1.976  12.685  21.025  0.00  0.00    +0.000 C 
BRANCH  29  30
ATOM     30  C   UNL     1      -1.857  12.535  22.545  0.00  0.00    +0.000 C 
BRANCH  30  31
ATOM     31  C   UNL     1      -2.603  13.636  23.293  0.00  0.00    +0.000 C 
BRANCH  31  32
ATOM     32  N   UNL     1      -3.951  13.224  23.633  0.00  0.00    +0.000 N 
ATOM     33  C   UNL     1      -5.105  13.684  23.066  0.00  0.00    +0.000 A 
ATOM     34  C   UNL     1      -6.109  12.980  23.690  0.00  0.00    +0.000 A 
ATOM     35  N   UNL     1      -5.592  12.120  24.624  0.00  0.00    +0.000 NA
ATOM     36  C   UNL     1      -4.291  12.303  24.581  0.00  0.00    +0.000 A 
ENDBRANCH  31  32
ENDBRANCH  30  31
ENDBRANCH  29  30
ENDBRANCH   6  29
TORSDOF 9
ENDMDL
MODEL 3
REMARK VINA RESULT:      -6.9      2.316      3.182
REMARK  Name = 
REMARK  10 active torsions:
REMARK  status: ('A' for Active; 'I' for Inactive)
REMARK    1  A    between atoms: C_1  and  O_2
REMARK    2  A    between atoms: O_2  and  C_3
REMARK    3  A    between atoms: C_7  and  C_8
REMARK    4  A    between atoms: C_9  and  C_10
REMARK    5  A    between atoms: C_10  and  C_12
REMARK    6  A    between atoms: C_22  and  O_23
REMARK    7  A    between atoms: N_26  and  C_27
REMARK    8  A    between atoms: C_27  and  C_28
REMARK    9  A    between atoms: C_28  and  C_29
REMARK   10  A    between atoms: C_29  and  N_30
REMARK                            x       y       z     vdW  Elec       q    Type
REMARK                         _______ _______ _______ _____ _____    ______ ____
ROOT
ATOM      1  C   UNL     1      -0.383  11.602  20.661  0.00  0.00    +0.000 C 
ATOM      2  C   UNL     1       0.045  10.594  21.675  0.00  0.00    +0.000 C 
ATOM      3  C   UNL     1      -0.748  10.610  22.765  0.00  0.00    +0.000 C 
ATOM      4  C   UNL     1      -1.832  11.589  22.495  0.00  0.00    +0.000 C 
ATOM      5  O   UNL     1      -2.741  11.870  23.258  0.00  0.00    +0.000 OA
ATOM      6  N   UNL     1      -1.636  12.069  21.215  0.00  0.00    +0.000 N 
ENDROOT
BRANCH   1  11
ATOM      7  C   UNL     1       2.132  13.953  18.971  0.00  0.00    +0.000 A 
ATOM      8  C   UNL     1       2.495  14.762  20.050  0.00  0.00    +0.000 A 
ATOM      9  C   UNL     1       1.884  14.603  21.292  0.00  0.00    +0.000 A 
ATOM     10  C   UNL     1       0.900  13.630  21.462  0.00  0.00    +0.000 A 
ATOM     11  C   UNL     1       0.545  12.776  20.402  0.00  0.00    +0.000 A 
ATOM     12  C   UNL     1       1.181  12.947  19.160  0.00  0.00    +0.000 A 
BRANCH   7  14
ATOM     13  C   UNL     1       3.512  15.447  17.734  0.00  0.00    +0.000 C 
ATOM     14  O   UNL     1       2.766  14.234  17.793  0.00  0.00    +0.000 OA
ENDBRANCH   7  14
ENDBRANCH   1  11
BRANCH   2  15
ATOM     15  C   UNL     1       1.158   9.627  21.614  0.00  0.00    +0.000 C 
ATOM     16  O   UNL     1       1.887   9.479  22.594  0.00  0.00    +0.000 OA
BRANCH  15  17
ATOM     17  C   UNL     1       1.446   8.890  20.352  0.00  0.00    +0.000 A 
ATOM     18  C   UNL     1       1.356   9.356  19.035  0.00  0.00    +0.000 A 
ATOM     19  C   UNL     1       1.927   8.640  17.966  0.00  0.00    +0.000 A 
ATOM     20  C   UNL     1       2.511   7.395  18.243  0.00  0.00    +0.000 A 
ATOM     21  C   UNL     1       2.282   6.826  19.477  0.00  0.00    +0.000 A 
ATOM     22  C   UNL     1       1.841   7.575  20.548  0.00  0.00    +0.000 A 
ATOM     23  O   UNL     1       2.657   5.547  19.749  0.00  0.00    +0.000 OA
ATOM     24  C   UNL     1       4.037   5.553  19.429  0.00  0.00    +0.000 C 
ATOM     25  C   UNL     1       4.202   5.779  17.925  0.00  0.00    +0.000 C 
ATOM     26  O   UNL     1       3.357   6.811  17.341  0.00  0.00    +0.000 OA
ENDBRANCH  15  17
ENDBRANCH   2  15
BRANCH   3  27
ATOM     27  O   UNL     1      -0.670   9.855  23.896  0.00  0.00    +0.000 OA
ATOM     28  H   UNL     1       0.125   9.280  23.819  0.00  0.00    +0.000 HD
ENDBRANCH   3  27
BRANCH   6  29
ATOM     29  C   UNL     1      -2.481  13.060  20.556  0.00  0.00    +0.000 C 
BRANCH  29  30
ATOM     30  C   UNL     1      -3.668  12.452  19.801  0.00  0.00    +0.000 C 
BRANCH  30  31
ATOM     31  C   UNL     1      -4.927  13.305  19.924  0.00  0.00    +0.000 C 
BRANCH  31  32
ATOM     32  N   UNL     1      -5.729  12.904  21.064  0.00  0.00    +0.000 N 
ATOM     33  C   UNL     1      -5.705  13.467  22.308  0.00  0.00    +0.000 A 
ATOM     34  C   UNL     1      -6.653  12.774  23.025  0.00  0.00    +0.000 A 
ATOM     35  N   UNL     1      -7.236  11.803  22.252  0.00  0.00    +0.000 NA
ATOM     36  C   UNL     1      -6.645  11.893  21.081  0.00  0.00    +0.000 A 
ENDBRANCH  31  32
ENDBRANCH  30  31
ENDBRANCH  29  30
ENDBRANCH   6  29
TORSDOF 9
ENDMDL
MODEL 4
REMARK VINA RESULT:      -6.9      1.933      2.372
REMARK  Name = 
REMARK  10 active torsions:
REMARK  status: ('A' for Active; 'I' for Inactive)
REMARK    1  A    between atoms: C_1  and  O_2
REMARK    2  A    between atoms: O_2  and  C_3
REMARK    3  A    between atoms: C_7  and  C_8
REMARK    4  A    between atoms: C_9  and  C_10
REMARK    5  A    between atoms: C_10  and  C_12
REMARK    6  A    between atoms: C_22  and  O_23
REMARK    7  A    between atoms: N_26  and  C_27
REMARK    8  A    between atoms: C_27  and  C_28
REMARK    9  A    between atoms: C_28  and  C_29
REMARK   10  A    between atoms: C_29  and  N_30
REMARK                            x       y       z     vdW  Elec       q    Type
REMARK                         _______ _______ _______ _____ _____    ______ ____
ROOT
ATOM      1  C   UNL     1      -0.065  11.206  20.356  0.00  0.00    +0.000 C 
ATOM      2  C   UNL     1       0.270  10.267  21.465  0.00  0.00    +0.000 C 
ATOM      3  C   UNL     1      -0.505  10.473  22.549  0.00  0.00    +0.000 C 
ATOM      4  C   UNL     1      -1.488  11.524  22.182  0.00  0.00    +0.000 C 
ATOM      5  O   UNL     1      -2.356  11.971  22.914  0.00  0.00    +0.000 OA
ATOM      6  N   UNL     1      -1.259  11.851  20.860  0.00  0.00    +0.000 N 
ENDROOT
BRANCH   1  11
ATOM      7  C   UNL     1       2.415  14.123  20.577  0.00  0.00    +0.000 A 
ATOM      8  C   UNL     1       2.642  14.373  19.222  0.00  0.00    +0.000 A 
ATOM      9  C   UNL     1       2.062  13.566  18.245  0.00  0.00    +0.000 A 
ATOM     10  C   UNL     1       1.249  12.497  18.622  0.00  0.00    +0.000 A 
ATOM     11  C   UNL     1       0.972  12.248  19.979  0.00  0.00    +0.000 A 
ATOM     12  C   UNL     1       1.560  13.082  20.947  0.00  0.00    +0.000 A 
BRANCH   7  14
ATOM     13  C   UNL     1       4.316  14.488  21.964  0.00  0.00    +0.000 C 
ATOM     14  O   UNL     1       3.074  14.953  21.441  0.00  0.00    +0.000 OA
ENDBRANCH   7  14
ENDBRANCH   1  11
BRANCH   2  15
ATOM     15  C   UNL     1       1.280   9.191  21.501  0.00  0.00    +0.000 C 
ATOM     16  O   UNL     1       1.891   8.968  22.545  0.00  0.00    +0.000 OA
BRANCH  15  17
ATOM     17  C   UNL     1       1.612   8.430  20.264  0.00  0.00    +0.000 A 
ATOM     18  C   UNL     1       1.643   8.892  18.943  0.00  0.00    +0.000 A 
ATOM     19  C   UNL     1       2.246   8.137  17.919  0.00  0.00    +0.000 A 
ATOM     20  C   UNL     1       2.734   6.861  18.240  0.00  0.00    +0.000 A 
ATOM     21  C   UNL     1       2.384   6.316  19.456  0.00  0.00    +0.000 A 
ATOM     22  C   UNL     1       1.914   7.096  20.491  0.00  0.00    +0.000 A 
ATOM     23  O   UNL     1       2.663   5.018  19.757  0.00  0.00    +0.000 OA
ATOM     24  C   UNL     1       4.060   4.941  19.536  0.00  0.00    +0.000 C 
ATOM     25  C   UNL     1       4.345   5.147  18.047  0.00  0.00    +0.000 C 
ATOM     26  O   UNL     1       3.605   6.223  17.402  0.00  0.00    +0.000 OA
ENDBRANCH  15  17
ENDBRANCH   2  15
BRANCH   3  27
ATOM     27  O   UNL     1      -0.490   9.830  23.750  0.00  0.00    +0.000 OA
ATOM     28  H   UNL     1      -0.286   8.883  23.582  0.00  0.00    +0.000 HD
ENDBRANCH   3  27
BRANCH   6  29
ATOM     29  C   UNL     1      -2.007  12.851  20.105  0.00  0.00    +0.000 C 
BRANCH  29  30
ATOM     30  C   UNL     1      -3.362  12.350  19.595  0.00  0.00    +0.000 C 
BRANCH  30  31
ATOM     31  C   UNL     1      -4.527  13.146  20.175  0.00  0.00    +0.000 C 
BRANCH  31  32
ATOM     32  N   UNL     1      -5.717  12.328  20.301  0.00  0.00    +0.000 N 
ATOM     33  C   UNL     1      -6.581  12.311  21.359  0.00  0.00    +0.000 A 
ATOM     34  C   UNL     1      -7.558  11.411  21.002  0.00  0.00    +0.000 A 
ATOM     35  N   UNL     1      -7.300  10.876  19.766  0.00  0.00    +0.000 NA
ATOM     36  C   UNL     1      -6.174  11.433  19.377  0.00  0.00    +0.000 A 
ENDBRANCH  31  32
ENDBRANCH  30  31
ENDBRANCH  29  30
ENDBRANCH   6  29
TORSDOF 9
ENDMDL
MODEL 5
REMARK VINA RESULT:      -6.9      2.532      5.423
REMARK  Name = 
REMARK  10 active torsions:
REMARK  status: ('A' for Active; 'I' for Inactive)
REMARK    1  A    between atoms: C_1  and  O_2
REMARK    2  A    between atoms: O_2  and  C_3
REMARK    3  A    between atoms: C_7  and  C_8
REMARK    4  A    between atoms: C_9  and  C_10
REMARK    5  A    between atoms: C_10  and  C_12
REMARK    6  A    between atoms: C_22  and  O_23
REMARK    7  A    between atoms: N_26  and  C_27
REMARK    8  A    between atoms: C_27  and  C_28
REMARK    9  A    between atoms: C_28  and  C_29
REMARK   10  A    between atoms: C_29  and  N_30
REMARK                            x       y       z     vdW  Elec       q    Type
REMARK                         _______ _______ _______ _____ _____    ______ ____
ROOT
ATOM      1  C   UNL     1      -0.153  11.296  19.396  0.00  0.00    +0.000 C 
ATOM      2  C   UNL     1       1.161  11.059  18.731  0.00  0.00    +0.000 C 
ATOM      3  C   UNL     1       1.859  12.202  18.576  0.00  0.00    +0.000 C 
ATOM      4  C   UNL     1       1.072  13.279  19.229  0.00  0.00    +0.000 C 
ATOM      5  O   UNL     1       1.393  14.455  19.291  0.00  0.00    +0.000 OA
ATOM      6  N   UNL     1      -0.046  12.687  19.782  0.00  0.00    +0.000 N 
ENDROOT
BRANCH   1  11
ATOM      7  C   UNL     1      -3.785  11.465  18.176  0.00  0.00    +0.000 A 
ATOM      8  C   UNL     1      -3.794  10.425  17.246  0.00  0.00    +0.000 A 
ATOM      9  C   UNL     1      -2.626   9.722  16.957  0.00  0.00    +0.000 A 
ATOM     10  C   UNL     1      -1.436  10.060  17.601  0.00  0.00    +0.000 A 
ATOM     11  C   UNL     1      -1.409  11.078  18.572  0.00  0.00    +0.000 A 
ATOM     12  C   UNL     1      -2.602  11.767  18.854  0.00  0.00    +0.000 A 
BRANCH   7  14
ATOM     13  C   UNL     1      -5.978  11.438  19.103  0.00  0.00    +0.000 C 
ATOM     14  O   UNL     1      -4.979  12.110  18.341  0.00  0.00    +0.000 OA
ENDBRANCH   7  14
ENDBRANCH   1  11
BRANCH   2  15
ATOM     15  C   UNL     1       1.755   9.790  18.268  0.00  0.00    +0.000 C 
ATOM     16  O   UNL     1       2.135   9.687  17.103  0.00  0.00    +0.000 OA
BRANCH  15  17
ATOM     17  C   UNL     1       1.825   8.615  19.183  0.00  0.00    +0.000 A 
ATOM     18  C   UNL     1       1.362   8.512  20.500  0.00  0.00    +0.000 A 
ATOM     19  C   UNL     1       1.244   7.262  21.137  0.00  0.00    +0.000 A 
ATOM     20  C   UNL     1       1.694   6.126  20.448  0.00  0.00    +0.000 A 
ATOM     21  C   UNL     1       2.444   6.308  19.306  0.00  0.00    +0.000 A 
ATOM     22  C   UNL     1       2.445   7.507  18.625  0.00  0.00    +0.000 A 
ATOM     23  O   UNL     1       3.067   5.265  18.693  0.00  0.00    +0.000 OA
ATOM     24  C   UNL     1       2.005   4.353  18.475  0.00  0.00    +0.000 C 
ATOM     25  C   UNL     1       1.484   3.858  19.825  0.00  0.00    +0.000 C 
ATOM     26  O   UNL     1       1.316   4.876  20.854  0.00  0.00    +0.000 OA
ENDBRANCH  15  17
ENDBRANCH   2  15
BRANCH   3  27
ATOM     27  O   UNL     1       3.082  12.391  18.006  0.00  0.00    +0.000 OA
ATOM     28  H   UNL     1       3.591  11.556  18.102  0.00  0.00    +0.000 HD
ENDBRANCH   3  27
BRANCH   6  29
ATOM     29  C   UNL     1      -1.090  13.396  20.516  0.00  0.00    +0.000 C 
BRANCH  29  30
ATOM     30  C   UNL     1      -0.940  13.306  22.039  0.00  0.00    +0.000 C 
BRANCH  30  31
ATOM     31  C   UNL     1      -1.856  14.286  22.766  0.00  0.00    +0.000 C 
BRANCH  31  32
ATOM     32  N   UNL     1      -3.024  13.618  23.306  0.00  0.00    +0.000 N 
ATOM     33  C   UNL     1      -4.254  14.176  23.509  0.00  0.00    +0.000 A 
ATOM     34  C   UNL     1      -5.029  13.150  24.000  0.00  0.00    +0.000 A 
ATOM     35  N   UNL     1      -4.296  11.996  24.109  0.00  0.00    +0.000 NA
ATOM     36  C   UNL     1      -3.088  12.314  23.702  0.00  0.00    +0.000 A 
ENDBRANCH  31  32
ENDBRANCH  30  31
ENDBRANCH  29  30
ENDBRANCH   6  29
TORSDOF 9
ENDMDL
MODEL 6
REMARK VINA RESULT:      -6.9      3.307      7.904
REMARK  Name = 
REMARK  10 active torsions:
REMARK  status: ('A' for Active; 'I' for Inactive)
REMARK    1  A    between atoms: C_1  and  O_2
REMARK    2  A    between atoms: O_2  and  C_3
REMARK    3  A    between atoms: C_7  and  C_8
REMARK    4  A    between atoms: C_9  and  C_10
REMARK    5  A    between atoms: C_10  and  C_12
REMARK    6  A    between atoms: C_22  and  O_23
REMARK    7  A    between atoms: N_26  and  C_27
REMARK    8  A    between atoms: C_27  and  C_28
REMARK    9  A    between atoms: C_28  and  C_29
REMARK   10  A    between atoms: C_29  and  N_30
REMARK                            x       y       z     vdW  Elec       q    Type
REMARK                         _______ _______ _______ _____ _____    ______ ____
ROOT
ATOM      1  C   UNL     1      -0.043  10.857  18.674  0.00  0.00    +0.000 C 
ATOM      2  C   UNL     1      -0.181  11.487  20.020  0.00  0.00    +0.000 C 
ATOM      3  C   UNL     1       0.279  10.683  21.000  0.00  0.00    +0.000 C 
ATOM      4  C   UNL     1       0.850   9.481  20.340  0.00  0.00    +0.000 C 
ATOM      5  O   UNL     1       1.362   8.533  20.911  0.00  0.00    +0.000 OA
ATOM      6  N   UNL     1       0.731   9.672  18.977  0.00  0.00    +0.000 N 
ENDROOT
BRANCH   1  11
ATOM      7  C   UNL     1      -2.833  10.727  16.047  0.00  0.00    +0.000 A 
ATOM      8  C   UNL     1      -3.814  10.020  16.745  0.00  0.00    +0.000 A 
ATOM      9  C   UNL     1      -3.557   9.525  18.022  0.00  0.00    +0.000 A 
ATOM     10  C   UNL     1      -2.309   9.734  18.608  0.00  0.00    +0.000 A 
ATOM     11  C   UNL     1      -1.317  10.477  17.942  0.00  0.00    +0.000 A 
ATOM     12  C   UNL     1      -1.603  10.976  16.659  0.00  0.00    +0.000 A 
BRANCH   7  14
ATOM     13  C   UNL     1      -3.712  10.121  13.918  0.00  0.00    +0.000 C 
ATOM     14  O   UNL     1      -3.186  11.122  14.786  0.00  0.00    +0.000 OA
ENDBRANCH   7  14
ENDBRANCH   1  11
BRANCH   2  15
ATOM     15  C   UNL     1      -0.714  12.816  20.376  0.00  0.00    +0.000 C 
ATOM     16  O   UNL     1       0.035  13.791  20.371  0.00  0.00    +0.000 OA
BRANCH  15  17
ATOM     17  C   UNL     1      -2.131  12.965  20.812  0.00  0.00    +0.000 A 
ATOM     18  C   UNL     1      -3.296  12.725  20.074  0.00  0.00    +0.000 A 
ATOM     19  C   UNL     1      -4.553  12.638  20.702  0.00  0.00    +0.000 A 
ATOM     20  C   UNL     1      -4.622  12.890  22.080  0.00  0.00    +0.000 A 
ATOM     21  C   UNL     1      -3.522  13.446  22.697  0.00  0.00    +0.000 A 
ATOM     22  C   UNL     1      -2.271  13.409  22.118  0.00  0.00    +0.000 A 
ATOM     23  O   UNL     1      -3.579  13.889  23.983  0.00  0.00    +0.000 OA
ATOM     24  C   UNL     1      -4.046  12.749  24.683  0.00  0.00    +0.000 C 
ATOM     25  C   UNL     1      -5.473  12.433  24.233  0.00  0.00    +0.000 C 
ATOM     26  O   UNL     1      -5.719  12.507  22.800  0.00  0.00    +0.000 OA
ENDBRANCH  15  17
ENDBRANCH   2  15
BRANCH   3  27
ATOM     27  O   UNL     1       0.311  10.900  22.344  0.00  0.00    +0.000 OA
ATOM     28  H   UNL     1       0.535  11.845  22.492  0.00  0.00    +0.000 HD
ENDBRANCH   3  27
BRANCH   6  29
ATOM     29  C   UNL     1       1.168   8.721  17.960  0.00  0.00    +0.000 C 
BRANCH  29  30
ATOM     30  C   UNL     1       2.660   8.380  18.036  0.00  0.00    +0.000 C 
BRANCH  30  31
ATOM     31  C   UNL     1       2.899   6.937  18.471  0.00  0.00    +0.000 C 
BRANCH  31  32
ATOM     32  N   UNL     1       3.801   6.254  17.564  0.00  0.00    +0.000 N 
ATOM     33  C   UNL     1       4.739   6.839  16.762  0.00  0.00    +0.000 A 
ATOM     34  C   UNL     1       5.359   5.790  16.122  0.00  0.00    +0.000 A 
ATOM     35  N   UNL     1       4.812   4.593  16.508  0.00  0.00    +0.000 NA
ATOM     36  C   UNL     1       3.863   4.906  17.362  0.00  0.00    +0.000 A 
ENDBRANCH  31  32
ENDBRANCH  30  31
ENDBRANCH  29  30
ENDBRANCH   6  29
TORSDOF 9
ENDMDL
MODEL 7
REMARK VINA RESULT:      -6.9      1.326      1.723
REMARK  Name = 
REMARK  10 active torsions:
REMARK  status: ('A' for Active; 'I' for Inactive)
REMARK    1  A    between atoms: C_1  and  O_2
REMARK    2  A    between atoms: O_2  and  C_3
REMARK    3  A    between atoms: C_7  and  C_8
REMARK    4  A    between atoms: C_9  and  C_10
REMARK    5  A    between atoms: C_10  and  C_12
REMARK    6  A    between atoms: C_22  and  O_23
REMARK    7  A    between atoms: N_26  and  C_27
REMARK    8  A    between atoms: C_27  and  C_28
REMARK    9  A    between atoms: C_28  and  C_29
REMARK   10  A    between atoms: C_29  and  N_30
REMARK                            x       y       z     vdW  Elec       q    Type
REMARK                         _______ _______ _______ _____ _____    ______ ____
ROOT
ATOM      1  C   UNL     1      -0.402  11.568  20.707  0.00  0.00    +0.000 C 
ATOM      2  C   UNL     1       0.047  10.563  21.714  0.00  0.00    +0.000 C 
ATOM      3  C   UNL     1      -0.729  10.578  22.817  0.00  0.00    +0.000 C 
ATOM      4  C   UNL     1      -1.822  11.550  22.562  0.00  0.00    +0.000 C 
ATOM      5  O   UNL     1      -2.721  11.828  23.340  0.00  0.00    +0.000 OA
ATOM      6  N   UNL     1      -1.649  12.030  21.279  0.00  0.00    +0.000 N 
ENDROOT
BRANCH   1  11
ATOM      7  C   UNL     1       2.072  13.931  18.973  0.00  0.00    +0.000 A 
ATOM      8  C   UNL     1       2.450  14.741  20.045  0.00  0.00    +0.000 A 
ATOM      9  C   UNL     1       1.861  14.580  21.298  0.00  0.00    +0.000 A 
ATOM     10  C   UNL     1       0.885  13.602  21.484  0.00  0.00    +0.000 A 
ATOM     11  C   UNL     1       0.515  12.746  20.431  0.00  0.00    +0.000 A 
ATOM     12  C   UNL     1       1.130  12.920  19.179  0.00  0.00    +0.000 A 
BRANCH   7  14
ATOM     13  C   UNL     1       3.380  15.455  17.695  0.00  0.00    +0.000 C 
ATOM     14  O   UNL     1       2.685  14.214  17.784  0.00  0.00    +0.000 OA
ENDBRANCH   7  14
ENDBRANCH   1  11
BRANCH   2  15
ATOM     15  C   UNL     1       1.164   9.602  21.638  0.00  0.00    +0.000 C 
ATOM     16  O   UNL     1       1.901   9.450  22.611  0.00  0.00    +0.000 OA
BRANCH  15  17
ATOM     17  C   UNL     1       1.445   8.876  20.368  0.00  0.00    +0.000 A 
ATOM     18  C   UNL     1       1.356   9.356  19.056  0.00  0.00    +0.000 A 
ATOM     19  C   UNL     1       1.921   8.647  17.979  0.00  0.00    +0.000 A 
ATOM     20  C   UNL     1       2.497   7.395  18.242  0.00  0.00    +0.000 A 
ATOM     21  C   UNL     1       2.266   6.816  19.471  0.00  0.00    +0.000 A 
ATOM     22  C   UNL     1       1.832   7.557  20.550  0.00  0.00    +0.000 A 
ATOM     23  O   UNL     1       2.634   5.531  19.730  0.00  0.00    +0.000 OA
ATOM     24  C   UNL     1       4.013   5.532  19.408  0.00  0.00    +0.000 C 
ATOM     25  C   UNL     1       4.178   5.772  17.906  0.00  0.00    +0.000 C 
ATOM     26  O   UNL     1       3.338   6.816  17.334  0.00  0.00    +0.000 OA
ENDBRANCH  15  17
ENDBRANCH   2  15
BRANCH   3  27
ATOM     27  O   UNL     1      -0.630   9.824  23.947  0.00  0.00    +0.000 OA
ATOM     28  H   UNL     1      -1.391  10.049  24.528  0.00  0.00    +0.000 HD
ENDBRANCH   3  27
BRANCH   6  29
ATOM     29  C   UNL     1      -2.509  13.015  20.632  0.00  0.00    +0.000 C 
BRANCH  29  30
ATOM     30  C   UNL     1      -3.925  12.503  20.347  0.00  0.00    +0.000 C 
BRANCH  30  31
ATOM     31  C   UNL     1      -4.255  12.518  18.858  0.00  0.00    +0.000 C 
BRANCH  31  32
ATOM     32  N   UNL     1      -3.539  11.477  18.147  0.00  0.00    +0.000 N 
ATOM     33  C   UNL     1      -3.974  10.202  17.926  0.00  0.00    +0.000 A 
ATOM     34  C   UNL     1      -2.972   9.611  17.189  0.00  0.00    +0.000 A 
ATOM     35  N   UNL     1      -1.944  10.491  16.972  0.00  0.00    +0.000 NA
ATOM     36  C   UNL     1      -2.305  11.601  17.578  0.00  0.00    +0.000 A 
ENDBRANCH  31  32
ENDBRANCH  30  31
ENDBRANCH  29  30
ENDBRANCH   6  29
TORSDOF 9
ENDMDL
MODEL 8
REMARK VINA RESULT:      -6.8      3.958      6.961
REMARK  Name = 
REMARK  10 active torsions:
REMARK  status: ('A' for Active; 'I' for Inactive)
REMARK    1  A    between atoms: C_1  and  O_2
REMARK    2  A    between atoms: O_2  and  C_3
REMARK    3  A    between atoms: C_7  and  C_8
REMARK    4  A    between atoms: C_9  and  C_10
REMARK    5  A    between atoms: C_10  and  C_12
REMARK    6  A    between atoms: C_22  and  O_23
REMARK    7  A    between atoms: N_26  and  C_27
REMARK    8  A    between atoms: C_27  and  C_28
REMARK    9  A    between atoms: C_28  and  C_29
REMARK   10  A    between atoms: C_29  and  N_30
REMARK                            x       y       z     vdW  Elec       q    Type
REMARK                         _______ _______ _______ _____ _____    ______ ____
ROOT
ATOM      1  C   UNL     1      -2.982  13.690  20.948  0.00  0.00    +0.000 C 
ATOM      2  C   UNL     1      -4.411  13.456  21.307  0.00  0.00    +0.000 C 
ATOM      3  C   UNL     1      -4.841  14.324  22.246  0.00  0.00    +0.000 C 
ATOM      4  C   UNL     1      -3.724  15.269  22.503  0.00  0.00    +0.000 C 
ATOM      5  O   UNL     1      -3.748  16.197  23.295  0.00  0.00    +0.000 OA
ATOM      6  N   UNL     1      -2.695  14.923  21.651  0.00  0.00    +0.000 N 
ENDROOT
BRANCH   1  11
ATOM      7  C   UNL     1      -0.328  10.932  20.714  0.00  0.00    +0.000 A 
ATOM      8  C   UNL     1      -0.359  10.432  22.017  0.00  0.00    +0.000 A 
ATOM      9  C   UNL     1      -1.170  11.023  22.984  0.00  0.00    +0.000 A 
ATOM     10  C   UNL     1      -1.958  12.124  22.650  0.00  0.00    +0.000 A 
ATOM     11  C   UNL     1      -1.976  12.621  21.334  0.00  0.00    +0.000 A 
ATOM     12  C   UNL     1      -1.157  12.003  20.373  0.00  0.00    +0.000 A 
BRANCH   7  14
ATOM     13  C   UNL     1       1.159  11.097  18.862  0.00  0.00    +0.000 C 
ATOM     14  O   UNL     1       0.541  10.300  19.868  0.00  0.00    +0.000 OA
ENDBRANCH   7  14
ENDBRANCH   1  11
BRANCH   2  15
ATOM     15  C   UNL     1      -5.355  12.456  20.772  0.00  0.00    +0.000 C 
ATOM     16  O   UNL     1      -6.157  11.913  21.529  0.00  0.00    +0.000 OA
BRANCH  15  17
ATOM     17  C   UNL     1      -5.286  12.049  19.340  0.00  0.00    +0.000 A 
ATOM     18  C   UNL     1      -5.928  12.630  18.241  0.00  0.00    +0.000 A 
ATOM     19  C   UNL     1      -5.548  12.316  16.922  0.00  0.00    +0.000 A 
ATOM     20  C   UNL     1      -4.568  11.330  16.736  0.00  0.00    +0.000 A 
ATOM     21  C   UNL     1      -4.210  10.553  17.816  0.00  0.00    +0.000 A 
ATOM     22  C   UNL     1      -4.481  10.943  19.110  0.00  0.00    +0.000 A 
ATOM     23  O   UNL     1      -3.408   9.462  17.670  0.00  0.00    +0.000 OA
ATOM     24  C   UNL     1      -2.271   9.997  17.016  0.00  0.00    +0.000 C 
ATOM     25  C   UNL     1      -2.673  10.472  15.619  0.00  0.00    +0.000 C 
ATOM     26  O   UNL     1      -3.926  11.211  15.535  0.00  0.00    +0.000 OA
ENDBRANCH  15  17
ENDBRANCH   2  15
BRANCH   3  27
ATOM     27  O   UNL     1      -6.067  14.417  22.832  0.00  0.00    +0.000 OA
ATOM     28  H   UNL     1      -5.932  14.647  23.778  0.00  0.00    +0.000 HD
ENDBRANCH   3  27
BRANCH   6  29
ATOM     29  C   UNL     1      -1.403  15.599  21.583  0.00  0.00    +0.000 C 
BRANCH  29  30
ATOM     30  C   UNL     1      -1.217  16.444  20.318  0.00  0.00    +0.000 C 
BRANCH  30  31
ATOM     31  C   UNL     1      -0.162  15.859  19.384  0.00  0.00    +0.000 C 
BRANCH  31  32
ATOM     32  N   UNL     1       0.304  16.845  18.428  0.00  0.00    +0.000 N 
ATOM     33  C   UNL     1      -0.477  17.650  17.650  0.00  0.00    +0.000 A 
ATOM     34  C   UNL     1       0.412  18.426  16.943  0.00  0.00    +0.000 A 
ATOM     35  N   UNL     1       1.705  18.102  17.264  0.00  0.00    +0.000 NA
ATOM     36  C   UNL     1       1.608  17.133  18.147  0.00  0.00    +0.000 A 
ENDBRANCH  31  32
ENDBRANCH  30  31
ENDBRANCH  29  30
ENDBRANCH   6  29
TORSDOF 9
ENDMDL
MODEL 9
REMARK VINA RESULT:      -6.8      2.779      7.162
REMARK  Name = 
REMARK  10 active torsions:
REMARK  status: ('A' for Active; 'I' for Inactive)
REMARK    1  A    between atoms: C_1  and  O_2
REMARK    2  A    between atoms: O_2  and  C_3
REMARK    3  A    between atoms: C_7  and  C_8
REMARK    4  A    between atoms: C_9  and  C_10
REMARK    5  A    between atoms: C_10  and  C_12
REMARK    6  A    between atoms: C_22  and  O_23
REMARK    7  A    between atoms: N_26  and  C_27
REMARK    8  A    between atoms: C_27  and  C_28
REMARK    9  A    between atoms: C_28  and  C_29
REMARK   10  A    between atoms: C_29  and  N_30
REMARK                            x       y       z     vdW  Elec       q    Type
REMARK                         _______ _______ _______ _____ _____    ______ ____
ROOT
ATOM      1  C   UNL     1      -0.008  11.414  20.082  0.00  0.00    +0.000 C 
ATOM      2  C   UNL     1       0.020  12.767  20.710  0.00  0.00    +0.000 C 
ATOM      3  C   UNL     1      -0.325  12.723  22.013  0.00  0.00    +0.000 C 
ATOM      4  C   UNL     1      -0.516  11.291  22.360  0.00  0.00    +0.000 C 
ATOM      5  O   UNL     1      -0.833  10.863  23.458  0.00  0.00    +0.000 OA
ATOM      6  N   UNL     1      -0.222  10.557  21.229  0.00  0.00    +0.000 N 
ENDROOT
BRANCH   1  11
ATOM      7  C   UNL     1      -3.379  11.280  18.258  0.00  0.00    +0.000 A 
ATOM      8  C   UNL     1      -3.082  10.383  17.231  0.00  0.00    +0.000 A 
ATOM      9  C   UNL     1      -1.791   9.881  17.079  0.00  0.00    +0.000 A 
ATOM     10  C   UNL     1      -0.785  10.278  17.959  0.00  0.00    +0.000 A 
ATOM     11  C   UNL     1      -1.067  11.150  19.027  0.00  0.00    +0.000 A 
ATOM     12  C   UNL     1      -2.379  11.636  19.166  0.00  0.00    +0.000 A 
BRANCH   7  14
ATOM     13  C   UNL     1      -5.262  12.047  17.019  0.00  0.00    +0.000 C 
ATOM     14  O   UNL     1      -4.667  11.739  18.277  0.00  0.00    +0.000 OA
ENDBRANCH   7  14
ENDBRANCH   1  11
BRANCH   2  15
ATOM     15  C   UNL     1       0.377  14.066  20.108  0.00  0.00    +0.000 C 
ATOM     16  O   UNL     1      -0.483  14.936  19.986  0.00  0.00    +0.000 OA
BRANCH  15  17
ATOM     17  C   UNL     1       1.752  14.297  19.582  0.00  0.00    +0.000 A 
ATOM     18  C   UNL     1       2.159  14.439  18.250  0.00  0.00    +0.000 A 
ATOM     19  C   UNL     1       3.438  14.932  17.926  0.00  0.00    +0.000 A 
ATOM     20  C   UNL     1       4.331  15.189  18.975  0.00  0.00    +0.000 A 
ATOM     21  C   UNL     1       4.014  14.722  20.233  0.00  0.00    +0.000 A 
ATOM     22  C   UNL     1       2.725  14.363  20.567  0.00  0.00    +0.000 A 
ATOM     23  O   UNL     1       4.912  14.770  21.254  0.00  0.00    +0.000 OA
ATOM     24  C   UNL     1       5.273  16.140  21.286  0.00  0.00    +0.000 C 
ATOM     25  C   UNL     1       6.014  16.493  19.995  0.00  0.00    +0.000 C 
ATOM     26  O   UNL     1       5.439  15.962  18.767  0.00  0.00    +0.000 OA
ENDBRANCH  15  17
ENDBRANCH   2  15
BRANCH   3  27
ATOM     27  O   UNL     1      -0.428  13.744  22.909  0.00  0.00    +0.000 OA
ATOM     28  H   UNL     1      -0.396  14.589  22.408  0.00  0.00    +0.000 HD
ENDBRANCH   3  27
BRANCH   6  29
ATOM     29  C   UNL     1      -0.288   9.101  21.137  0.00  0.00    +0.000 C 
BRANCH  29  30
ATOM     30  C   UNL     1       1.066   8.411  21.335  0.00  0.00    +0.000 C 
BRANCH  30  31
ATOM     31  C   UNL     1       1.811   8.215  20.018  0.00  0.00    +0.000 C 
BRANCH  31  32
ATOM     32  N   UNL     1       2.151   6.822  19.805  0.00  0.00    +0.000 N 
ATOM     33  C   UNL     1       1.840   5.777  20.627  0.00  0.00    +0.000 A 
ATOM     34  C   UNL     1       2.342   4.666  19.990  0.00  0.00    +0.000 A 
ATOM     35  N   UNL     1       2.957   5.014  18.815  0.00  0.00    +0.000 NA
ATOM     36  C   UNL     1       2.843   6.322  18.740  0.00  0.00    +0.000 A 
ENDBRANCH  31  32
ENDBRANCH  30  31
ENDBRANCH  29  30
ENDBRANCH   6  29
TORSDOF 9
ENDMDL
