MODEL 1
REMARK VINA RESULT:      -7.8      0.000      0.000
REMARK  Name = 
REMARK  6 active torsions:
REMARK  status: ('A' for Active; 'I' for Inactive)
REMARK    1  A    between atoms: C_1  and  C_2
REMARK    2  A    between atoms: C_2  and  C_3
REMARK    3  A    between atoms: C_2  and  C_4
REMARK    4  A    between atoms: C_2  and  C_5
REMARK    5  A    between atoms: C_7  and  C_8
REMARK    6  A    between atoms: C_8  and  N_9
REMARK                            x       y       z     vdW  Elec       q    Type
REMARK                         _______ _______ _______ _____ _____    ______ ____
ROOT
ATOM      1  N   UNL     1       6.315   5.357  17.478  0.00  0.00    +0.000 N 
ATOM      2  C   UNL     1       7.344   4.481  16.927  0.00  0.00    +0.000 C 
ATOM      3  C   UNL     1       6.847   3.710  15.711  0.00  0.00    +0.000 C 
ATOM      4  C   UNL     1       6.249   4.559  14.574  0.00  0.00    +0.000 C 
ATOM      5  C   UNL     1       7.261   5.497  13.900  0.00  0.00    +0.000 C 
ATOM      6  C   UNL     1       7.815   4.659  12.776  0.00  0.00    +0.000 C 
ATOM      7  C   UNL     1       6.589   3.891  12.349  0.00  0.00    +0.000 C 
ATOM      8  O   UNL     1       5.861   3.605  13.549  0.00  0.00    +0.000 OA
ATOM      9  C   UNL     1       4.963   5.276  15.023  0.00  0.00    +0.000 C 
ATOM     10  C   UNL     1       5.168   6.603  15.748  0.00  0.00    +0.000 C 
ATOM     11  C   UNL     1       6.192   6.594  16.861  0.00  0.00    +0.000 C 
ATOM     12  O   UNL     1       6.745   7.617  17.239  0.00  0.00    +0.000 OA
ENDROOT
BRANCH   1  13
ATOM     13  C   UNL     1       6.071   5.319  18.918  0.00  0.00    +0.000 C 
BRANCH  13  16
ATOM     14  C   UNL     1       3.120   3.668  19.875  0.00  0.00    +0.000 A 
ATOM     15  N   UNL     1       3.687   4.738  19.372  0.00  0.00    +0.000 NA
ATOM     16  C   UNL     1       5.001   4.372  19.318  0.00  0.00    +0.000 A 
ATOM     17  N   UNL     1       5.246   3.099  19.665  0.00  0.00    +0.000 NA
ATOM     18  O   UNL     1       3.988   2.628  20.045  0.00  0.00    +0.000 OA
BRANCH  14  20
ATOM     19  C   UNL     1       1.042   4.842  20.517  0.00  0.00    +0.000 C 
ATOM     20  C   UNL     1       1.691   3.472  20.272  0.00  0.00    +0.000 C 
ATOM     21  C   UNL     1       1.646   2.645  21.571  0.00  0.00    +0.000 C 
ATOM     22  C   UNL     1       0.915   2.714  19.183  0.00  0.00    +0.000 C 
ENDBRANCH  14  20
ENDBRANCH  13  16
ENDBRANCH   1  13
TORSDOF 3
ENDMDL
MODEL 2
REMARK VINA RESULT:      -7.6      3.573      6.887
REMARK  Name = 
REMARK  6 active torsions:
REMARK  status: ('A' for Active; 'I' for Inactive)
REMARK    1  A    between atoms: C_1  and  C_2
REMARK    2  A    between atoms: C_2  and  C_3
REMARK    3  A    between atoms: C_2  and  C_4
REMARK    4  A    between atoms: C_2  and  C_5
REMARK    5  A    between atoms: C_7  and  C_8
REMARK    6  A    between atoms: C_8  and  N_9
REMARK                            x       y       z     vdW  Elec       q    Type
REMARK                         _______ _______ _______ _____ _____    ______ ____
ROOT
ATOM      1  N   UNL     1       6.906   5.737  18.378  0.00  0.00    +0.000 N 
ATOM      2  C   UNL     1       6.049   5.128  19.389  0.00  0.00    +0.000 C 
ATOM      3  C   UNL     1       4.579   5.467  19.171  0.00  0.00    +0.000 C 
ATOM      4  C   UNL     1       4.015   5.148  17.775  0.00  0.00    +0.000 C 
ATOM      5  C   UNL     1       3.995   3.650  17.439  0.00  0.00    +0.000 C 
ATOM      6  C   UNL     1       2.639   3.204  17.921  0.00  0.00    +0.000 C 
ATOM      7  C   UNL     1       1.795   4.408  17.581  0.00  0.00    +0.000 C 
ATOM      8  O   UNL     1       2.620   5.553  17.825  0.00  0.00    +0.000 OA
ATOM      9  C   UNL     1       4.687   6.004  16.686  0.00  0.00    +0.000 C 
ATOM     10  C   UNL     1       6.008   5.464  16.146  0.00  0.00    +0.000 C 
ATOM     11  C   UNL     1       7.017   5.033  17.187  0.00  0.00    +0.000 C 
ATOM     12  O   UNL     1       7.908   4.235  16.932  0.00  0.00    +0.000 OA
ENDROOT
BRANCH   1  13
ATOM     13  C   UNL     1       8.097   6.458  18.823  0.00  0.00    +0.000 C 
BRANCH  13  16
ATOM     14  C   UNL     1       8.698   9.871  18.238  0.00  0.00    +0.000 A 
ATOM     15  N   UNL     1       9.058   8.761  18.836  0.00  0.00    +0.000 NA
ATOM     16  C   UNL     1       8.162   7.859  18.338  0.00  0.00    +0.000 A 
ATOM     17  N   UNL     1       7.343   8.342  17.391  0.00  0.00    +0.000 NA
ATOM     18  O   UNL     1       7.696   9.691  17.327  0.00  0.00    +0.000 OA
BRANCH  14  20
ATOM     19  C   UNL     1       9.282  11.563  19.942  0.00  0.00    +0.000 C 
ATOM     20  C   UNL     1       9.235  11.253  18.439  0.00  0.00    +0.000 C 
ATOM     21  C   UNL     1       8.299  12.256  17.738  0.00  0.00    +0.000 C 
ATOM     22  C   UNL     1      10.641  11.392  17.834  0.00  0.00    +0.000 C 
ENDBRANCH  14  20
ENDBRANCH  13  16
ENDBRANCH   1  13
TORSDOF 3
ENDMDL
MODEL 3
REMARK VINA RESULT:      -7.3      0.893      1.102
REMARK  Name = 
REMARK  6 active torsions:
REMARK  status: ('A' for Active; 'I' for Inactive)
REMARK    1  A    between atoms: C_1  and  C_2
REMARK    2  A    between atoms: C_2  and  C_3
REMARK    3  A    between atoms: C_2  and  C_4
REMARK    4  A    between atoms: C_2  and  C_5
REMARK    5  A    between atoms: C_7  and  C_8
REMARK    6  A    between atoms: C_8  and  N_9
REMARK                            x       y       z     vdW  Elec       q    Type
REMARK                         _______ _______ _______ _____ _____    ______ ____
ROOT
ATOM      1  N   UNL     1       6.437   5.400  17.482  0.00  0.00    +0.000 N 
ATOM      2  C   UNL     1       7.432   4.501  16.908  0.00  0.00    +0.000 C 
ATOM      3  C   UNL     1       6.871   3.699  15.740  0.00  0.00    +0.000 C 
ATOM      4  C   UNL     1       6.223   4.520  14.609  0.00  0.00    +0.000 C 
ATOM      5  C   UNL     1       7.206   5.430  13.860  0.00  0.00    +0.000 C 
ATOM      6  C   UNL     1       7.699   4.556  12.735  0.00  0.00    +0.000 C 
ATOM      7  C   UNL     1       6.449   3.786  12.391  0.00  0.00    +0.000 C 
ATOM      8  O   UNL     1       5.778   3.540  13.633  0.00  0.00    +0.000 OA
ATOM      9  C   UNL     1       4.965   5.260  15.100  0.00  0.00    +0.000 C 
ATOM     10  C   UNL     1       5.214   6.606  15.775  0.00  0.00    +0.000 C 
ATOM     11  C   UNL     1       6.292   6.620  16.836  0.00  0.00    +0.000 C 
ATOM     12  O   UNL     1       6.869   7.649  17.157  0.00  0.00    +0.000 OA
ENDROOT
BRANCH   1  13
ATOM     13  C   UNL     1       6.264   5.407  18.933  0.00  0.00    +0.000 C 
BRANCH  13  16
ATOM     14  C   UNL     1       3.141   4.103  19.882  0.00  0.00    +0.000 A 
ATOM     15  N   UNL     1       4.419   3.898  19.674  0.00  0.00    +0.000 NA
ATOM     16  C   UNL     1       4.868   5.150  19.369  0.00  0.00    +0.000 A 
ATOM     17  N   UNL     1       3.949   6.122  19.483  0.00  0.00    +0.000 NA
ATOM     18  O   UNL     1       2.790   5.421  19.820  0.00  0.00    +0.000 OA
BRANCH  14  20
ATOM     19  C   UNL     1       0.699   3.782  20.087  0.00  0.00    +0.000 C 
ATOM     20  C   UNL     1       2.070   3.096  20.160  0.00  0.00    +0.000 C 
ATOM     21  C   UNL     1       2.282   2.526  21.576  0.00  0.00    +0.000 C 
ATOM     22  C   UNL     1       2.128   1.936  19.153  0.00  0.00    +0.000 C 
ENDBRANCH  14  20
ENDBRANCH  13  16
ENDBRANCH   1  13
TORSDOF 3
ENDMDL
MODEL 4
REMARK VINA RESULT:      -7.0      1.798      6.797
REMARK  Name = 
REMARK  6 active torsions:
REMARK  status: ('A' for Active; 'I' for Inactive)
REMARK    1  A    between atoms: C_1  and  C_2
REMARK    2  A    between atoms: C_2  and  C_3
REMARK    3  A    between atoms: C_2  and  C_4
REMARK    4  A    between atoms: C_2  and  C_5
REMARK    5  A    between atoms: C_7  and  C_8
REMARK    6  A    between atoms: C_8  and  N_9
REMARK                            x       y       z     vdW  Elec       q    Type
REMARK                         _______ _______ _______ _____ _____    ______ ____
ROOT
ATOM      1  N   UNL     1       5.342   4.335  17.483  0.00  0.00    +0.000 N 
ATOM      2  C   UNL     1       4.554   3.138  17.211  0.00  0.00    +0.000 C 
ATOM      3  C   UNL     1       3.845   2.625  18.458  0.00  0.00    +0.000 C 
ATOM      4  C   UNL     1       2.965   3.648  19.201  0.00  0.00    +0.000 C 
ATOM      5  C   UNL     1       1.757   4.134  18.388  0.00  0.00    +0.000 C 
ATOM      6  C   UNL     1       0.671   3.158  18.763  0.00  0.00    +0.000 C 
ATOM      7  C   UNL     1       0.980   2.920  20.220  0.00  0.00    +0.000 C 
ATOM      8  O   UNL     1       2.408   2.923  20.331  0.00  0.00    +0.000 OA
ATOM      9  C   UNL     1       3.807   4.798  19.783  0.00  0.00    +0.000 C 
ATOM     10  C   UNL     1       4.117   5.940  18.820  0.00  0.00    +0.000 C 
ATOM     11  C   UNL     1       4.637   5.531  17.460  0.00  0.00    +0.000 C 
ATOM     12  O   UNL     1       4.542   6.262  16.484  0.00  0.00    +0.000 OA
ENDROOT
BRANCH   1  13
ATOM     13  C   UNL     1       6.721   4.382  17.001  0.00  0.00    +0.000 C 
BRANCH  13  16
ATOM     14  C   UNL     1       6.622   4.215  13.492  0.00  0.00    +0.000 A 
ATOM     15  N   UNL     1       6.146   3.803  14.643  0.00  0.00    +0.000 NA
ATOM     16  C   UNL     1       6.835   4.574  15.534  0.00  0.00    +0.000 A 
ATOM     17  N   UNL     1       7.628   5.505  14.980  0.00  0.00    +0.000 NA
ATOM     18  O   UNL     1       7.491   5.261  13.612  0.00  0.00    +0.000 OA
BRANCH  14  20
ATOM     19  C   UNL     1       6.963   2.291  11.979  0.00  0.00    +0.000 C 
ATOM     20  C   UNL     1       6.334   3.684  12.124  0.00  0.00    +0.000 C 
ATOM     21  C   UNL     1       6.952   4.636  11.082  0.00  0.00    +0.000 C 
ATOM     22  C   UNL     1       4.820   3.601  11.871  0.00  0.00    +0.000 C 
ENDBRANCH  14  20
ENDBRANCH  13  16
ENDBRANCH   1  13
TORSDOF 3
ENDMDL
MODEL 5
REMARK VINA RESULT:      -6.8      1.766      6.811
REMARK  Name = 
REMARK  6 active torsions:
REMARK  status: ('A' for Active; 'I' for Inactive)
REMARK    1  A    between atoms: C_1  and  C_2
REMARK    2  A    between atoms: C_2  and  C_3
REMARK    3  A    between atoms: C_2  and  C_4
REMARK    4  A    between atoms: C_2  and  C_5
REMARK    5  A    between atoms: C_7  and  C_8
REMARK    6  A    between atoms: C_8  and  N_9
REMARK                            x       y       z     vdW  Elec       q    Type
REMARK                         _______ _______ _______ _____ _____    ______ ____
ROOT
ATOM      1  N   UNL     1       5.278   5.422  17.767  0.00  0.00    +0.000 N 
ATOM      2  C   UNL     1       4.090   6.262  17.870  0.00  0.00    +0.000 C 
ATOM      3  C   UNL     1       2.810   5.437  17.930  0.00  0.00    +0.000 C 
ATOM      4  C   UNL     1       2.758   4.354  19.024  0.00  0.00    +0.000 C 
ATOM      5  C   UNL     1       2.781   4.914  20.453  0.00  0.00    +0.000 C 
ATOM      6  C   UNL     1       1.321   5.097  20.778  0.00  0.00    +0.000 C 
ATOM      7  C   UNL     1       0.713   3.902  20.086  0.00  0.00    +0.000 C 
ATOM      8  O   UNL     1       1.457   3.724  18.875  0.00  0.00    +0.000 OA
ATOM      9  C   UNL     1       3.813   3.259  18.784  0.00  0.00    +0.000 C 
ATOM     10  C   UNL     1       5.210   3.563  19.317  0.00  0.00    +0.000 C 
ATOM     11  C   UNL     1       5.765   4.926  18.968  0.00  0.00    +0.000 C 
ATOM     12  O   UNL     1       6.646   5.454  19.631  0.00  0.00    +0.000 OA
ENDROOT
BRANCH   1  13
ATOM     13  C   UNL     1       6.272   5.749  16.746  0.00  0.00    +0.000 C 
BRANCH  13  16
ATOM     14  C   UNL     1       6.398   4.087  13.652  0.00  0.00    +0.000 A 
ATOM     15  N   UNL     1       6.613   5.183  14.339  0.00  0.00    +0.000 NA
ATOM     16  C   UNL     1       6.297   4.795  15.610  0.00  0.00    +0.000 A 
ATOM     17  N   UNL     1       6.003   3.492  15.745  0.00  0.00    +0.000 NA
ATOM     18  O   UNL     1       6.063   3.018  14.433  0.00  0.00    +0.000 OA
BRANCH  14  20
ATOM     19  C   UNL     1       7.188   2.565  11.872  0.00  0.00    +0.000 C 
ATOM     20  C   UNL     1       6.470   3.889  12.171  0.00  0.00    +0.000 C 
ATOM     21  C   UNL     1       7.266   5.055  11.553  0.00  0.00    +0.000 C 
ATOM     22  C   UNL     1       5.065   3.872  11.548  0.00  0.00    +0.000 C 
ENDBRANCH  14  20
ENDBRANCH  13  16
ENDBRANCH   1  13
TORSDOF 3
ENDMDL
MODEL 6
REMARK VINA RESULT:      -6.7      3.643      6.609
REMARK  Name = 
REMARK  6 active torsions:
REMARK  status: ('A' for Active; 'I' for Inactive)
REMARK    1  A    between atoms: C_1  and  C_2
REMARK    2  A    between atoms: C_2  and  C_3
REMARK    3  A    between atoms: C_2  and  C_4
REMARK    4  A    between atoms: C_2  and  C_5
REMARK    5  A    between atoms: C_7  and  C_8
REMARK    6  A    between atoms: C_8  and  N_9
REMARK                            x       y       z     vdW  Elec       q    Type
REMARK                         _______ _______ _______ _____ _____    ______ ____
ROOT
ATOM      1  N   UNL     1       3.225   5.985  18.201  0.00  0.00    +0.000 N 
ATOM      2  C   UNL     1       3.591   5.941  19.612  0.00  0.00    +0.000 C 
ATOM      3  C   UNL     1       2.489   5.332  20.470  0.00  0.00    +0.000 C 
ATOM      4  C   UNL     1       1.991   3.941  20.037  0.00  0.00    +0.000 C 
ATOM      5  C   UNL     1       3.053   2.838  20.146  0.00  0.00    +0.000 C 
ATOM      6  C   UNL     1       2.859   2.305  21.541  0.00  0.00    +0.000 C 
ATOM      7  C   UNL     1       1.360   2.390  21.683  0.00  0.00    +0.000 C 
ATOM      8  O   UNL     1       0.963   3.586  21.002  0.00  0.00    +0.000 OA
ATOM      9  C   UNL     1       1.308   3.991  18.659  0.00  0.00    +0.000 C 
ATOM     10  C   UNL     1       2.243   3.900  17.457  0.00  0.00    +0.000 C 
ATOM     11  C   UNL     1       3.448   4.813  17.490  0.00  0.00    +0.000 C 
ATOM     12  O   UNL     1       4.457   4.576  16.841  0.00  0.00    +0.000 OA
ENDROOT
BRANCH   1  13
ATOM     13  C   UNL     1       3.419   7.237  17.472  0.00  0.00    +0.000 C 
BRANCH  13  16
ATOM     14  C   UNL     1       1.249   9.413  19.177  0.00  0.00    +0.000 A 
ATOM     15  N   UNL     1       1.926   8.289  19.172  0.00  0.00    +0.000 NA
ATOM     16  C   UNL     1       2.597   8.360  17.985  0.00  0.00    +0.000 A 
ATOM     17  N   UNL     1       2.443   9.515  17.319  0.00  0.00    +0.000 NA
ATOM     18  O   UNL     1       1.536  10.219  18.113  0.00  0.00    +0.000 OA
BRANCH  14  20
ATOM     19  C   UNL     1       0.781  11.128  20.893  0.00  0.00    +0.000 C 
ATOM     20  C   UNL     1       0.239   9.885  20.174  0.00  0.00    +0.000 C 
ATOM     21  C   UNL     1      -0.005   8.764  21.202  0.00  0.00    +0.000 C 
ATOM     22  C   UNL     1      -1.096  10.219  19.489  0.00  0.00    +0.000 C 
ENDBRANCH  14  20
ENDBRANCH  13  16
ENDBRANCH   1  13
TORSDOF 3
ENDMDL
MODEL 7
REMARK VINA RESULT:      -6.6      1.900      6.555
REMARK  Name = 
REMARK  6 active torsions:
REMARK  status: ('A' for Active; 'I' for Inactive)
REMARK    1  A    between atoms: C_1  and  C_2
REMARK    2  A    between atoms: C_2  and  C_3
REMARK    3  A    between atoms: C_2  and  C_4
REMARK    4  A    between atoms: C_2  and  C_5
REMARK    5  A    between atoms: C_7  and  C_8
REMARK    6  A    between atoms: C_8  and  N_9
REMARK                            x       y       z     vdW  Elec       q    Type
REMARK                         _______ _______ _______ _____ _____    ______ ____
ROOT
ATOM      1  N   UNL     1       4.578   5.760  17.861  0.00  0.00    +0.000 N 
ATOM      2  C   UNL     1       3.236   6.212  18.210  0.00  0.00    +0.000 C 
ATOM      3  C   UNL     1       2.178   5.164  17.887  0.00  0.00    +0.000 C 
ATOM      4  C   UNL     1       2.410   3.766  18.490  0.00  0.00    +0.000 C 
ATOM      5  C   UNL     1       2.358   3.733  20.024  0.00  0.00    +0.000 C 
ATOM      6  C   UNL     1       0.907   3.451  20.315  0.00  0.00    +0.000 C 
ATOM      7  C   UNL     1       0.560   2.504  19.194  0.00  0.00    +0.000 C 
ATOM      8  O   UNL     1       1.281   2.966  18.045  0.00  0.00    +0.000 OA
ATOM      9  C   UNL     1       3.675   3.106  17.912  0.00  0.00    +0.000 C 
ATOM     10  C   UNL     1       4.986   3.488  18.593  0.00  0.00    +0.000 C 
ATOM     11  C   UNL     1       5.207   4.968  18.812  0.00  0.00    +0.000 C 
ATOM     12  O   UNL     1       5.970   5.388  19.670  0.00  0.00    +0.000 OA
ENDROOT
BRANCH   1  13
ATOM     13  C   UNL     1       5.435   6.661  17.092  0.00  0.00    +0.000 C 
BRANCH  13  16
ATOM     14  C   UNL     1       6.333   4.904  14.184  0.00  0.00    +0.000 A 
ATOM     15  N   UNL     1       5.390   5.460  14.905  0.00  0.00    +0.000 NA
ATOM     16  C   UNL     1       6.098   6.011  15.934  0.00  0.00    +0.000 A 
ATOM     17  N   UNL     1       7.431   5.907  15.821  0.00  0.00    +0.000 NA
ATOM     18  O   UNL     1       7.590   5.160  14.652  0.00  0.00    +0.000 OA
BRANCH  14  20
ATOM     19  C   UNL     1       7.264   4.451  11.940  0.00  0.00    +0.000 C 
ATOM     20  C   UNL     1       6.190   4.052  12.963  0.00  0.00    +0.000 C 
ATOM     21  C   UNL     1       4.793   4.285  12.356  0.00  0.00    +0.000 C 
ATOM     22  C   UNL     1       6.329   2.561  13.310  0.00  0.00    +0.000 C 
ENDBRANCH  14  20
ENDBRANCH  13  16
ENDBRANCH   1  13
TORSDOF 3
ENDMDL
MODEL 8
REMARK VINA RESULT:      -6.5      2.836      4.285
REMARK  Name = 
REMARK  6 active torsions:
REMARK  status: ('A' for Active; 'I' for Inactive)
REMARK    1  A    between atoms: C_1  and  C_2
REMARK    2  A    between atoms: C_2  and  C_3
REMARK    3  A    between atoms: C_2  and  C_4
REMARK    4  A    between atoms: C_2  and  C_5
REMARK    5  A    between atoms: C_7  and  C_8
REMARK    6  A    between atoms: C_8  and  N_9
REMARK                            x       y       z     vdW  Elec       q    Type
REMARK                         _______ _______ _______ _____ _____    ______ ____
ROOT
ATOM      1  N   UNL     1       3.865   4.678  18.724  0.00  0.00    +0.000 N 
ATOM      2  C   UNL     1       3.454   4.352  17.363  0.00  0.00    +0.000 C 
ATOM      3  C   UNL     1       4.176   5.206  16.328  0.00  0.00    +0.000 C 
ATOM      4  C   UNL     1       5.714   5.196  16.404  0.00  0.00    +0.000 C 
ATOM      5  C   UNL     1       6.343   3.828  16.107  0.00  0.00    +0.000 C 
ATOM      6  C   UNL     1       6.570   3.866  14.618  0.00  0.00    +0.000 C 
ATOM      7  C   UNL     1       6.957   5.309  14.416  0.00  0.00    +0.000 C 
ATOM      8  O   UNL     1       6.155   6.068  15.328  0.00  0.00    +0.000 OA
ATOM      9  C   UNL     1       6.217   5.823  17.718  0.00  0.00    +0.000 C 
ATOM     10  C   UNL     1       6.270   4.883  18.918  0.00  0.00    +0.000 C 
ATOM     11  C   UNL     1       5.026   4.056  19.161  0.00  0.00    +0.000 C 
ATOM     12  O   UNL     1       5.059   3.011  19.795  0.00  0.00    +0.000 OA
ENDROOT
BRANCH   1  13
ATOM     13  C   UNL     1       2.826   4.898  19.729  0.00  0.00    +0.000 C 
BRANCH  13  16
ATOM     14  C   UNL     1       1.470   8.022  20.594  0.00  0.00    +0.000 A 
ATOM     15  N   UNL     1       1.787   6.804  20.960  0.00  0.00    +0.000 NA
ATOM     16  C   UNL     1       2.393   6.313  19.839  0.00  0.00    +0.000 A 
ATOM     17  N   UNL     1       2.553   7.204  18.849  0.00  0.00    +0.000 NA
ATOM     18  O   UNL     1       1.929   8.348  19.350  0.00  0.00    +0.000 OA
BRANCH  14  20
ATOM     19  C   UNL     1       0.539  10.309  20.491  0.00  0.00    +0.000 C 
ATOM     20  C   UNL     1       0.689   9.048  21.353  0.00  0.00    +0.000 C 
ATOM     21  C   UNL     1       1.454   9.398  22.644  0.00  0.00    +0.000 C 
ATOM     22  C   UNL     1      -0.699   8.511  21.738  0.00  0.00    +0.000 C 
ENDBRANCH  14  20
ENDBRANCH  13  16
ENDBRANCH   1  13
TORSDOF 3
ENDMDL
MODEL 9
REMARK VINA RESULT:      -6.4      4.541      7.193
REMARK  Name = 
REMARK  6 active torsions:
REMARK  status: ('A' for Active; 'I' for Inactive)
REMARK    1  A    between atoms: C_1  and  C_2
REMARK    2  A    between atoms: C_2  and  C_3
REMARK    3  A    between atoms: C_2  and  C_4
REMARK    4  A    between atoms: C_2  and  C_5
REMARK    5  A    between atoms: C_7  and  C_8
REMARK    6  A    between atoms: C_8  and  N_9
REMARK                            x       y       z     vdW  Elec       q    Type
REMARK                         _______ _______ _______ _____ _____    ______ ____
ROOT
ATOM      1  N   UNL     1       2.630   7.094  18.481  0.00  0.00    +0.000 N 
ATOM      2  C   UNL     1       2.426   7.044  19.925  0.00  0.00    +0.000 C 
ATOM      3  C   UNL     1       1.426   5.966  20.324  0.00  0.00    +0.000 C 
ATOM      4  C   UNL     1       1.725   4.546  19.809  0.00  0.00    +0.000 C 
ATOM      5  C   UNL     1       3.014   3.937  20.379  0.00  0.00    +0.000 C 
ATOM      6  C   UNL     1       2.542   3.223  21.619  0.00  0.00    +0.000 C 
ATOM      7  C   UNL     1       1.200   2.704  21.167  0.00  0.00    +0.000 C 
ATOM      8  O   UNL     1       0.646   3.719  20.321  0.00  0.00    +0.000 OA
ATOM      9  C   UNL     1       1.649   4.476  18.274  0.00  0.00    +0.000 C 
ATOM     10  C   UNL     1       2.917   4.885  17.532  0.00  0.00    +0.000 C 
ATOM     11  C   UNL     1       3.550   6.185  17.976  0.00  0.00    +0.000 C 
ATOM     12  O   UNL     1       4.731   6.430  17.780  0.00  0.00    +0.000 OA
ENDROOT
BRANCH   1  13
ATOM     13  C   UNL     1       2.565   8.394  17.816  0.00  0.00    +0.000 C 
BRANCH  13  16
ATOM     14  C   UNL     1       0.300  10.500  19.484  0.00  0.00    +0.000 A 
ATOM     15  N   UNL     1       1.522  10.037  19.378  0.00  0.00    +0.000 NA
ATOM     16  C   UNL     1       1.436   9.242  18.272  0.00  0.00    +0.000 A 
ATOM     17  N   UNL     1       0.252   9.281  17.640  0.00  0.00    +0.000 NA
ATOM     18  O   UNL     1      -0.512  10.118  18.455  0.00  0.00    +0.000 OA
BRANCH  14  20
ATOM     19  C   UNL     1       0.699  12.497  20.884  0.00  0.00    +0.000 C 
ATOM     20  C   UNL     1      -0.279  11.358  20.564  0.00  0.00    +0.000 C 
ATOM     21  C   UNL     1      -0.491  10.495  21.824  0.00  0.00    +0.000 C 
ATOM     22  C   UNL     1      -1.636  11.941  20.138  0.00  0.00    +0.000 C 
ENDBRANCH  14  20
ENDBRANCH  13  16
ENDBRANCH   1  13
TORSDOF 3
ENDMDL
