MODEL 1
REMARK VINA RESULT:      -4.2      0.000      0.000
REMARK  Name = 
REMARK  6 active torsions:
REMARK  status: ('A' for Active; 'I' for Inactive)
REMARK    1  A    between atoms: CD1_1  and  CG_2
REMARK    2  A    between atoms: CG_2  and  CD2_3
REMARK    3  A    between atoms: CG_2  and  CB_4
REMARK    4  A    between atoms: CB_4  and  CA_5
REMARK    5  A    between atoms: CA_5  and  N_6
REMARK    6  A    between atoms: CA_5  and  C_7
REMARK                            x       y       z     vdW  Elec       q    Type
REMARK                         _______ _______ _______ _____ _____    ______ ____
ROOT
ATOM      1  CA  LEU A   1       7.188   5.146  17.969  0.00  0.00    +0.000 C 
ENDROOT
BRANCH   1   2
ATOM      2  N   LEU A   1       8.148   4.087  17.618  0.00  0.00    +0.000 NA
ATOM      3  H1  LEU A   1       8.062   3.878  16.621  0.00  0.00    +0.000 HD
ATOM      4  H2  LEU A   1       7.890   3.226  18.098  0.00  0.00    +0.000 HD
ENDBRANCH   1   2
BRANCH   1   5
ATOM      5  C   LEU A   1       7.699   5.839  19.233  0.00  0.00    +0.000 C 
ATOM      6  O   LEU A   1       7.706   5.339  20.355  0.00  0.00    +0.000 OA
ENDBRANCH   1   5
BRANCH   1   7
ATOM      7  CB  LEU A   1       6.982   6.154  16.826  0.00  0.00    +0.000 C 
BRANCH   7   9
ATOM      8  CD1 LEU A   1       5.511   4.826  15.217  0.00  0.00    +0.000 C 
ATOM      9  CG  LEU A   1       5.627   6.073  16.095  0.00  0.00    +0.000 C 
ATOM     10  CD2 LEU A   1       4.487   6.092  17.119  0.00  0.00    +0.000 C 
ENDBRANCH   7   9
ENDBRANCH   1   7
TORSDOF 4
ENDMDL
MODEL 2
REMARK VINA RESULT:      -4.2      4.218      4.883
REMARK  Name = 
REMARK  6 active torsions:
REMARK  status: ('A' for Active; 'I' for Inactive)
REMARK    1  A    between atoms: CD1_1  and  CG_2
REMARK    2  A    between atoms: CG_2  and  CD2_3
REMARK    3  A    between atoms: CG_2  and  CB_4
REMARK    4  A    between atoms: CB_4  and  CA_5
REMARK    5  A    between atoms: CA_5  and  N_6
REMARK    6  A    between atoms: CA_5  and  C_7
REMARK                            x       y       z     vdW  Elec       q    Type
REMARK                         _______ _______ _______ _____ _____    ______ ____
ROOT
ATOM      1  CA  LEU A   1       4.076   2.705  19.642  0.00  0.00    +0.000 C 
ENDROOT
BRANCH   1   2
ATOM      2  N   LEU A   1       5.051   1.714  20.125  0.00  0.00    +0.000 NA
ATOM      3  H1  LEU A   1       5.885   2.202  20.460  0.00  0.00    +0.000 HD
ATOM      4  H2  LEU A   1       5.367   1.143  19.342  0.00  0.00    +0.000 HD
ENDBRANCH   1   2
BRANCH   1   5
ATOM      5  C   LEU A   1       4.855   3.841  18.978  0.00  0.00    +0.000 C 
ATOM      6  O   LEU A   1       5.992   4.189  19.287  0.00  0.00    +0.000 OA
ENDBRANCH   1   5
BRANCH   1   7
ATOM      7  CB  LEU A   1       3.049   2.094  18.674  0.00  0.00    +0.000 C 
BRANCH   7   9
ATOM      8  CD1 LEU A   1       1.224   2.910  20.261  0.00  0.00    +0.000 C 
ATOM      9  CG  LEU A   1       1.605   2.617  18.809  0.00  0.00    +0.000 C 
ATOM     10  CD2 LEU A   1       1.435   3.884  17.964  0.00  0.00    +0.000 C 
ENDBRANCH   7   9
ENDBRANCH   1   7
TORSDOF 4
ENDMDL
MODEL 3
REMARK VINA RESULT:      -4.1      4.207      4.708
REMARK  Name = 
REMARK  6 active torsions:
REMARK  status: ('A' for Active; 'I' for Inactive)
REMARK    1  A    between atoms: CD1_1  and  CG_2
REMARK    2  A    between atoms: CG_2  and  CD2_3
REMARK    3  A    between atoms: CG_2  and  CB_4
REMARK    4  A    between atoms: CB_4  and  CA_5
REMARK    5  A    between atoms: CA_5  and  N_6
REMARK    6  A    between atoms: CA_5  and  C_7
REMARK                            x       y       z     vdW  Elec       q    Type
REMARK                         _______ _______ _______ _____ _____    ______ ____
ROOT
ATOM      1  CA  LEU A   1       3.485   1.965  18.787  0.00  0.00    +0.000 C 
ENDROOT
BRANCH   1   2
ATOM      2  N   LEU A   1       4.104   0.705  18.343  0.00  0.00    +0.000 NA
ATOM      3  H1  LEU A   1       3.388   0.116  17.913  0.00  0.00    +0.000 HD
ATOM      4  H2  LEU A   1       4.430   0.185  19.158  0.00  0.00    +0.000 HD
ENDBRANCH   1   2
BRANCH   1   5
ATOM      5  C   LEU A   1       4.451   2.643  19.759  0.00  0.00    +0.000 C 
ATOM      6  O   LEU A   1       5.245   3.530  19.457  0.00  0.00    +0.000 OA
ENDBRANCH   1   5
BRANCH   1   7
ATOM      7  CB  LEU A   1       3.136   2.892  17.610  0.00  0.00    +0.000 C 
BRANCH   7   9
ATOM      8  CD1 LEU A   1       0.906   3.120  18.832  0.00  0.00    +0.000 C 
ATOM      9  CG  LEU A   1       1.826   3.693  17.753  0.00  0.00    +0.000 C 
ATOM     10  CD2 LEU A   1       2.149   5.157  18.072  0.00  0.00    +0.000 C 
ENDBRANCH   7   9
ENDBRANCH   1   7
TORSDOF 4
ENDMDL
MODEL 4
REMARK VINA RESULT:      -4.0      5.008      6.054
REMARK  Name = 
REMARK  6 active torsions:
REMARK  status: ('A' for Active; 'I' for Inactive)
REMARK    1  A    between atoms: CD1_1  and  CG_2
REMARK    2  A    between atoms: CG_2  and  CD2_3
REMARK    3  A    between atoms: CG_2  and  CB_4
REMARK    4  A    between atoms: CB_4  and  CA_5
REMARK    5  A    between atoms: CA_5  and  N_6
REMARK    6  A    between atoms: CA_5  and  C_7
REMARK                            x       y       z     vdW  Elec       q    Type
REMARK                         _______ _______ _______ _____ _____    ______ ____
ROOT
ATOM      1  CA  LEU A   1       2.700   2.822  18.667  0.00  0.00    +0.000 C 
ENDROOT
BRANCH   1   2
ATOM      2  N   LEU A   1       2.968   1.407  18.366  0.00  0.00    +0.000 NA
ATOM      3  H1  LEU A   1       2.856   1.253  17.362  0.00  0.00    +0.000 HD
ATOM      4  H2  LEU A   1       2.256   0.827  18.810  0.00  0.00    +0.000 HD
ENDBRANCH   1   2
BRANCH   1   5
ATOM      5  C   LEU A   1       3.113   3.645  17.446  0.00  0.00    +0.000 C 
ATOM      6  O   LEU A   1       4.200   3.566  16.879  0.00  0.00    +0.000 OA
ENDBRANCH   1   5
BRANCH   1   7
ATOM      7  CB  LEU A   1       1.229   3.074  19.037  0.00  0.00    +0.000 C 
BRANCH   7   9
ATOM      8  CD1 LEU A   1       1.530   2.702  21.544  0.00  0.00    +0.000 C 
ATOM      9  CG  LEU A   1       0.978   3.624  20.456  0.00  0.00    +0.000 C 
ATOM     10  CD2 LEU A   1       1.606   5.015  20.589  0.00  0.00    +0.000 C 
ENDBRANCH   7   9
ENDBRANCH   1   7
TORSDOF 4
ENDMDL
MODEL 5
REMARK VINA RESULT:      -4.0      3.874      4.458
REMARK  Name = 
REMARK  6 active torsions:
REMARK  status: ('A' for Active; 'I' for Inactive)
REMARK    1  A    between atoms: CD1_1  and  CG_2
REMARK    2  A    between atoms: CG_2  and  CD2_3
REMARK    3  A    between atoms: CG_2  and  CB_4
REMARK    4  A    between atoms: CB_4  and  CA_5
REMARK    5  A    between atoms: CA_5  and  N_6
REMARK    6  A    between atoms: CA_5  and  C_7
REMARK                            x       y       z     vdW  Elec       q    Type
REMARK                         _______ _______ _______ _____ _____    ______ ____
ROOT
ATOM      1  CA  LEU A   1       4.251   3.152  19.605  0.00  0.00    +0.000 C 
ENDROOT
BRANCH   1   2
ATOM      2  N   LEU A   1       5.135   2.022  19.933  0.00  0.00    +0.000 NA
ATOM      3  H1  LEU A   1       5.493   2.144  20.883  0.00  0.00    +0.000 HD
ATOM      4  H2  LEU A   1       5.955   2.050  19.328  0.00  0.00    +0.000 HD
ENDBRANCH   1   2
BRANCH   1   5
ATOM      5  C   LEU A   1       5.128   4.306  19.119  0.00  0.00    +0.000 C 
ATOM      6  O   LEU A   1       6.322   4.214  18.843  0.00  0.00    +0.000 OA
ENDBRANCH   1   5
BRANCH   1   7
ATOM      7  CB  LEU A   1       3.189   2.780  18.556  0.00  0.00    +0.000 C 
BRANCH   7   9
ATOM      8  CD1 LEU A   1       1.475   4.425  17.623  0.00  0.00    +0.000 C 
ATOM      9  CG  LEU A   1       1.805   3.435  18.741  0.00  0.00    +0.000 C 
ATOM     10  CD2 LEU A   1       0.725   2.349  18.806  0.00  0.00    +0.000 C 
ENDBRANCH   7   9
ENDBRANCH   1   7
TORSDOF 4
ENDMDL
MODEL 6
REMARK VINA RESULT:      -4.0      3.632      4.287
REMARK  Name = 
REMARK  6 active torsions:
REMARK  status: ('A' for Active; 'I' for Inactive)
REMARK    1  A    between atoms: CD1_1  and  CG_2
REMARK    2  A    between atoms: CG_2  and  CD2_3
REMARK    3  A    between atoms: CG_2  and  CB_4
REMARK    4  A    between atoms: CB_4  and  CA_5
REMARK    5  A    between atoms: CA_5  and  N_6
REMARK    6  A    between atoms: CA_5  and  C_7
REMARK                            x       y       z     vdW  Elec       q    Type
REMARK                         _______ _______ _______ _____ _____    ______ ____
ROOT
ATOM      1  CA  LEU A   1       4.245   3.989  19.434  0.00  0.00    +0.000 C 
ENDROOT
BRANCH   1   2
ATOM      2  N   LEU A   1       4.886   2.666  19.506  0.00  0.00    +0.000 NA
ATOM      3  H1  LEU A   1       4.448   2.124  20.254  0.00  0.00    +0.000 HD
ATOM      4  H2  LEU A   1       5.859   2.778  19.787  0.00  0.00    +0.000 HD
ENDBRANCH   1   2
BRANCH   1   5
ATOM      5  C   LEU A   1       5.329   5.016  19.105  0.00  0.00    +0.000 C 
ATOM      6  O   LEU A   1       6.374   5.162  19.735  0.00  0.00    +0.000 OA
ENDBRANCH   1   5
BRANCH   1   7
ATOM      7  CB  LEU A   1       3.105   4.033  18.403  0.00  0.00    +0.000 C 
BRANCH   7   9
ATOM      8  CD1 LEU A   1       1.016   2.619  18.790  0.00  0.00    +0.000 C 
ATOM      9  CG  LEU A   1       1.676   3.986  18.979  0.00  0.00    +0.000 C 
ATOM     10  CD2 LEU A   1       1.708   4.342  20.469  0.00  0.00    +0.000 C 
ENDBRANCH   7   9
ENDBRANCH   1   7
TORSDOF 4
ENDMDL
MODEL 7
REMARK VINA RESULT:      -4.0      2.985      3.638
REMARK  Name = 
REMARK  6 active torsions:
REMARK  status: ('A' for Active; 'I' for Inactive)
REMARK    1  A    between atoms: CD1_1  and  CG_2
REMARK    2  A    between atoms: CG_2  and  CD2_3
REMARK    3  A    between atoms: CG_2  and  CB_4
REMARK    4  A    between atoms: CB_4  and  CA_5
REMARK    5  A    between atoms: CA_5  and  N_6
REMARK    6  A    between atoms: CA_5  and  C_7
REMARK                            x       y       z     vdW  Elec       q    Type
REMARK                         _______ _______ _______ _____ _____    ______ ____
ROOT
ATOM      1  CA  LEU A   1       5.444   4.458  17.399  0.00  0.00    +0.000 C 
ENDROOT
BRANCH   1   2
ATOM      2  N   LEU A   1       5.815   3.742  18.630  0.00  0.00    +0.000 NA
ATOM      3  H1  LEU A   1       5.432   2.795  18.592  0.00  0.00    +0.000 HD
ATOM      4  H2  LEU A   1       5.360   4.186  19.427  0.00  0.00    +0.000 HD
ENDBRANCH   1   2
BRANCH   1   5
ATOM      5  C   LEU A   1       6.577   4.267  16.389  0.00  0.00    +0.000 C 
ATOM      6  O   LEU A   1       7.718   4.703  16.521  0.00  0.00    +0.000 OA
ENDBRANCH   1   5
BRANCH   1   7
ATOM      7  CB  LEU A   1       4.101   3.979  16.824  0.00  0.00    +0.000 C 
BRANCH   7   9
ATOM      8  CD1 LEU A   1       1.753   4.493  17.684  0.00  0.00    +0.000 C 
ATOM      9  CG  LEU A   1       3.010   3.640  17.860  0.00  0.00    +0.000 C 
ATOM     10  CD2 LEU A   1       2.646   2.155  17.759  0.00  0.00    +0.000 C 
ENDBRANCH   7   9
ENDBRANCH   1   7
TORSDOF 4
ENDMDL
MODEL 8
REMARK VINA RESULT:      -4.0      3.178      4.335
REMARK  Name = 
REMARK  6 active torsions:
REMARK  status: ('A' for Active; 'I' for Inactive)
REMARK    1  A    between atoms: CD1_1  and  CG_2
REMARK    2  A    between atoms: CG_2  and  CD2_3
REMARK    3  A    between atoms: CG_2  and  CB_4
REMARK    4  A    between atoms: CB_4  and  CA_5
REMARK    5  A    between atoms: CA_5  and  N_6
REMARK    6  A    between atoms: CA_5  and  C_7
REMARK                            x       y       z     vdW  Elec       q    Type
REMARK                         _______ _______ _______ _____ _____    ______ ____
ROOT
ATOM      1  CA  LEU A   1       6.612   4.185  14.927  0.00  0.00    +0.000 C 
ENDROOT
BRANCH   1   2
ATOM      2  N   LEU A   1       7.457   5.389  14.979  0.00  0.00    +0.000 NA
ATOM      3  H1  LEU A   1       8.387   5.129  15.313  0.00  0.00    +0.000 HD
ATOM      4  H2  LEU A   1       7.086   6.031  15.679  0.00  0.00    +0.000 HD
ENDBRANCH   1   2
BRANCH   1   5
ATOM      5  C   LEU A   1       5.958   4.015  16.299  0.00  0.00    +0.000 C 
ATOM      6  O   LEU A   1       4.750   3.893  16.492  0.00  0.00    +0.000 OA
ENDBRANCH   1   5
BRANCH   1   7
ATOM      7  CB  LEU A   1       5.555   4.259  13.812  0.00  0.00    +0.000 C 
BRANCH   7   9
ATOM      8  CD1 LEU A   1       4.607   3.315  11.638  0.00  0.00    +0.000 C 
ATOM      9  CG  LEU A   1       5.802   3.348  12.592  0.00  0.00    +0.000 C 
ATOM     10  CD2 LEU A   1       7.051   3.819  11.840  0.00  0.00    +0.000 C 
ENDBRANCH   7   9
ENDBRANCH   1   7
TORSDOF 4
ENDMDL
MODEL 9
REMARK VINA RESULT:      -3.9      2.580      2.983
REMARK  Name = 
REMARK  6 active torsions:
REMARK  status: ('A' for Active; 'I' for Inactive)
REMARK    1  A    between atoms: CD1_1  and  CG_2
REMARK    2  A    between atoms: CG_2  and  CD2_3
REMARK    3  A    between atoms: CG_2  and  CB_4
REMARK    4  A    between atoms: CB_4  and  CA_5
REMARK    5  A    between atoms: CA_5  and  N_6
REMARK    6  A    between atoms: CA_5  and  C_7
REMARK                            x       y       z     vdW  Elec       q    Type
REMARK                         _______ _______ _______ _____ _____    ______ ____
ROOT
ATOM      1  CA  LEU A   1       5.293   4.184  18.033  0.00  0.00    +0.000 C 
ENDROOT
BRANCH   1   2
ATOM      2  N   LEU A   1       6.496   4.107  17.188  0.00  0.00    +0.000 NA
ATOM      3  H1  LEU A   1       7.007   4.990  17.254  0.00  0.00    +0.000 HD
ATOM      4  H2  LEU A   1       6.217   4.028  16.211  0.00  0.00    +0.000 HD
ENDBRANCH   1   2
BRANCH   1   5
ATOM      5  C   LEU A   1       5.582   5.169  19.167  0.00  0.00    +0.000 C 
ATOM      6  O   LEU A   1       6.654   5.265  19.759  0.00  0.00    +0.000 OA
ENDBRANCH   1   5
BRANCH   1   7
ATOM      7  CB  LEU A   1       4.045   4.601  17.237  0.00  0.00    +0.000 C 
BRANCH   7   9
ATOM      8  CD1 LEU A   1       3.256   2.273  17.923  0.00  0.00    +0.000 C 
ATOM      9  CG  LEU A   1       2.897   3.573  17.202  0.00  0.00    +0.000 C 
ATOM     10  CD2 LEU A   1       1.639   4.182  17.831  0.00  0.00    +0.000 C 
ENDBRANCH   7   9
ENDBRANCH   1   7
TORSDOF 4
ENDMDL
