MODEL 1
REMARK VINA RESULT:      -7.9      0.000      0.000
REMARK  Name = 
REMARK  3 active torsions:
REMARK  status: ('A' for Active; 'I' for Inactive)
REMARK    1  A    between atoms: C_2  and  C_9
REMARK    2  A    between atoms: N_3  and  C_4
REMARK    3  A    between atoms: C_16  and  C_17
REMARK                            x       y       z     vdW  Elec       q    Type
REMARK                         _______ _______ _______ _____ _____    ______ ____
ROOT
ATOM      1  C   UNL     1       5.885   5.366  17.769  0.00  0.00    +0.000 C 
ATOM      2  C   UNL     1       4.827   5.102  18.854  0.00  0.00    +0.000 C 
ATOM      3  C   UNL     1       3.428   5.539  18.421  0.00  0.00    +0.000 C 
ATOM      4  N   UNL     1       3.470   6.924  17.958  0.00  0.00    +0.000 N 
ATOM      5  C   UNL     1       2.584   7.835  18.496  0.00  0.00    +0.000 A 
ATOM      6  C   UNL     1       2.131   8.938  17.786  0.00  0.00    +0.000 A 
ATOM      7  C   UNL     1       1.238   9.845  18.363  0.00  0.00    +0.000 A 
ATOM      8  C   UNL     1       0.808   9.639  19.662  0.00  0.00    +0.000 A 
ATOM      9  N   UNL     1       1.238   8.564  20.346  0.00  0.00    +0.000 NA
ATOM     10  N   UNL     1       2.123   7.667  19.755  0.00  0.00    +0.000 NA
ATOM     11  C   UNL     1       4.392   7.227  16.874  0.00  0.00    +0.000 C 
ATOM     12  C   UNL     1       5.808   6.827  17.299  0.00  0.00    +0.000 C 
ENDROOT
BRANCH   8  13
ATOM     13  C   UNL     1      -0.158  10.495  20.357  0.00  0.00    +0.000 A 
ATOM     14  C   UNL     1      -1.065  11.389  19.813  0.00  0.00    +0.000 A 
ATOM     15  C   UNL     1      -1.810  12.098  20.801  0.00  0.00    +0.000 A 
ATOM     16  C   UNL     1      -1.477  11.703  22.076  0.00  0.00    +0.000 A 
ATOM     17  S   UNL     1      -0.285  10.482  22.075  0.00  0.00    +0.000 S 
ENDBRANCH   8  13
BRANCH   1  19
ATOM     18  O   UNL     1       5.143   3.322  16.690  0.00  0.00    +0.000 OA
ATOM     19  C   UNL     1       5.757   4.380  16.607  0.00  0.00    +0.000 C 
ATOM     20  N   UNL     1       6.404   4.772  15.450  0.00  0.00    +0.000 N 
ATOM     21  H   UNL     1       7.089   5.515  15.511  0.00  0.00    +0.000 HD
BRANCH  20  22
ATOM     22  C   UNL     1       6.409   3.932  14.270  0.00  0.00    +0.000 C 
ATOM     23  C   UNL     1       5.068   3.933  13.548  0.00  0.00    +0.000 C 
ATOM     24  C   UNL     1       5.406   3.366  12.176  0.00  0.00    +0.000 C 
ATOM     25  C   UNL     1       6.847   3.792  11.896  0.00  0.00    +0.000 C 
ATOM     26  C   UNL     1       7.374   4.414  13.190  0.00  0.00    +0.000 C 
ENDBRANCH  20  22
ENDBRANCH   1  19
TORSDOF 3
ENDMDL
MODEL 2
REMARK VINA RESULT:      -7.1      4.693      9.479
REMARK  Name = 
REMARK  3 active torsions:
REMARK  status: ('A' for Active; 'I' for Inactive)
REMARK    1  A    between atoms: C_2  and  C_9
REMARK    2  A    between atoms: N_3  and  C_4
REMARK    3  A    between atoms: C_16  and  C_17
REMARK                            x       y       z     vdW  Elec       q    Type
REMARK                         _______ _______ _______ _____ _____    ______ ____
ROOT
ATOM      1  C   UNL     1      -0.759  11.279  20.374  0.00  0.00    +0.000 C 
ATOM      2  C   UNL     1      -0.330  10.246  21.431  0.00  0.00    +0.000 C 
ATOM      3  C   UNL     1       1.084   9.718  21.187  0.00  0.00    +0.000 C 
ATOM      4  N   UNL     1       1.196   9.240  19.811  0.00  0.00    +0.000 N 
ATOM      5  C   UNL     1       1.675   7.966  19.584  0.00  0.00    +0.000 A 
ATOM      6  C   UNL     1       2.354   7.625  18.423  0.00  0.00    +0.000 A 
ATOM      7  C   UNL     1       2.821   6.323  18.221  0.00  0.00    +0.000 A 
ATOM      8  C   UNL     1       2.594   5.365  19.193  0.00  0.00    +0.000 A 
ATOM      9  N   UNL     1       1.945   5.698  20.323  0.00  0.00    +0.000 NA
ATOM     10  N   UNL     1       1.492   7.001  20.511  0.00  0.00    +0.000 NA
ATOM     11  C   UNL     1       0.884  10.194  18.757  0.00  0.00    +0.000 C 
ATOM     12  C   UNL     1      -0.542  10.712  18.962  0.00  0.00    +0.000 C 
ENDROOT
BRANCH   8  13
ATOM     13  C   UNL     1       3.070   3.980  19.114  0.00  0.00    +0.000 A 
ATOM     14  C   UNL     1       4.041   3.358  19.882  0.00  0.00    +0.000 A 
ATOM     15  C   UNL     1       4.287   2.010  19.484  0.00  0.00    +0.000 A 
ATOM     16  C   UNL     1       3.473   1.626  18.443  0.00  0.00    +0.000 A 
ATOM     17  S   UNL     1       2.418   2.877  17.963  0.00  0.00    +0.000 S 
ENDBRANCH   8  13
BRANCH   1  19
ATOM     18  O   UNL     1       0.459  12.955  21.638  0.00  0.00    +0.000 OA
ATOM     19  C   UNL     1      -0.046  12.617  20.573  0.00  0.00    +0.000 C 
ATOM     20  N   UNL     1      -0.028  13.428  19.454  0.00  0.00    +0.000 N 
ATOM     21  H   UNL     1      -0.663  13.213  18.695  0.00  0.00    +0.000 HD
BRANCH  20  22
ATOM     22  C   UNL     1       0.576  14.744  19.489  0.00  0.00    +0.000 C 
ATOM     23  C   UNL     1       1.865  14.814  18.681  0.00  0.00    +0.000 C 
ATOM     24  C   UNL     1       2.088  16.310  18.505  0.00  0.00    +0.000 C 
ATOM     25  C   UNL     1       0.694  16.937  18.475  0.00  0.00    +0.000 C 
ATOM     26  C   UNL     1      -0.288  15.823  18.840  0.00  0.00    +0.000 C 
ENDBRANCH  20  22
ENDBRANCH   1  19
TORSDOF 3
ENDMDL
MODEL 3
REMARK VINA RESULT:      -7.1      4.470     10.054
REMARK  Name = 
REMARK  3 active torsions:
REMARK  status: ('A' for Active; 'I' for Inactive)
REMARK    1  A    between atoms: C_2  and  C_9
REMARK    2  A    between atoms: N_3  and  C_4
REMARK    3  A    between atoms: C_16  and  C_17
REMARK                            x       y       z     vdW  Elec       q    Type
REMARK                         _______ _______ _______ _____ _____    ______ ____
ROOT
ATOM      1  C   UNL     1      -1.244  12.788  20.378  0.00  0.00    +0.000 C 
ATOM      2  C   UNL     1      -0.584  11.799  21.356  0.00  0.00    +0.000 C 
ATOM      3  C   UNL     1       0.821  11.391  20.910  0.00  0.00    +0.000 C 
ATOM      4  N   UNL     1       0.777  10.919  19.528  0.00  0.00    +0.000 N 
ATOM      5  C   UNL     1       1.324   9.689  19.226  0.00  0.00    +0.000 A 
ATOM      6  C   UNL     1       1.857   9.402  17.977  0.00  0.00    +0.000 A 
ATOM      7  C   UNL     1       2.399   8.144  17.702  0.00  0.00    +0.000 A 
ATOM      8  C   UNL     1       2.394   7.173  18.688  0.00  0.00    +0.000 A 
ATOM      9  N   UNL     1       1.886   7.455  19.901  0.00  0.00    +0.000 NA
ATOM     10  N   UNL     1       1.356   8.716  20.162  0.00  0.00    +0.000 NA
ATOM     11  C   UNL     1       0.239  11.838  18.537  0.00  0.00    +0.000 C 
ATOM     12  C   UNL     1      -1.182  12.236  18.946  0.00  0.00    +0.000 C 
ENDROOT
BRANCH   8  13
ATOM     13  C   UNL     1       2.969   5.833  18.531  0.00  0.00    +0.000 A 
ATOM     14  C   UNL     1       2.454   4.751  17.836  0.00  0.00    +0.000 A 
ATOM     15  C   UNL     1       3.263   3.581  17.949  0.00  0.00    +0.000 A 
ATOM     16  C   UNL     1       4.393   3.809  18.700  0.00  0.00    +0.000 A 
ATOM     17  S   UNL     1       4.478   5.421  19.251  0.00  0.00    +0.000 S 
ENDBRANCH   8  13
BRANCH   1  19
ATOM     18  O   UNL     1      -0.079  14.597  21.502  0.00  0.00    +0.000 OA
ATOM     19  C   UNL     1      -0.625  14.183  20.486  0.00  0.00    +0.000 C 
ATOM     20  N   UNL     1      -0.744  14.950  19.343  0.00  0.00    +0.000 N 
ATOM     21  H   UNL     1      -1.409  14.660  18.636  0.00  0.00    +0.000 HD
BRANCH  20  22
ATOM     22  C   UNL     1      -0.242  16.308  19.294  0.00  0.00    +0.000 C 
ATOM     23  C   UNL     1       1.114  16.403  18.607  0.00  0.00    +0.000 C 
ATOM     24  C   UNL     1       1.246  17.888  18.294  0.00  0.00    +0.000 C 
ATOM     25  C   UNL     1      -0.180  18.392  18.068  0.00  0.00    +0.000 C 
ATOM     26  C   UNL     1      -1.112  17.243  18.456  0.00  0.00    +0.000 C 
ENDBRANCH  20  22
ENDBRANCH   1  19
TORSDOF 3
ENDMDL
MODEL 4
REMARK VINA RESULT:      -7.0      2.370      3.591
REMARK  Name = 
REMARK  3 active torsions:
REMARK  status: ('A' for Active; 'I' for Inactive)
REMARK    1  A    between atoms: C_2  and  C_9
REMARK    2  A    between atoms: N_3  and  C_4
REMARK    3  A    between atoms: C_16  and  C_17
REMARK                            x       y       z     vdW  Elec       q    Type
REMARK                         _______ _______ _______ _____ _____    ______ ____
ROOT
ATOM      1  C   UNL     1       1.797   4.505  18.611  0.00  0.00    +0.000 C 
ATOM      2  C   UNL     1       1.701   5.863  17.895  0.00  0.00    +0.000 C 
ATOM      3  C   UNL     1       2.365   6.988  18.690  0.00  0.00    +0.000 C 
ATOM      4  N   UNL     1       1.840   6.998  20.053  0.00  0.00    +0.000 N 
ATOM      5  C   UNL     1       1.343   8.177  20.568  0.00  0.00    +0.000 A 
ATOM      6  C   UNL     1       1.374   8.465  21.925  0.00  0.00    +0.000 A 
ATOM      7  C   UNL     1       0.856   9.667  22.415  0.00  0.00    +0.000 A 
ATOM      8  C   UNL     1       0.300  10.575  21.532  0.00  0.00    +0.000 A 
ATOM      9  N   UNL     1       0.279  10.300  20.215  0.00  0.00    +0.000 NA
ATOM     10  N   UNL     1       0.805   9.101  19.743  0.00  0.00    +0.000 NA
ATOM     11  C   UNL     1       1.974   5.767  20.817  0.00  0.00    +0.000 C 
ATOM     12  C   UNL     1       1.286   4.631  20.054  0.00  0.00    +0.000 C 
ENDROOT
BRANCH   8  13
ATOM     13  C   UNL     1      -0.236  11.883  21.920  0.00  0.00    +0.000 A 
ATOM     14  C   UNL     1      -1.143  12.178  22.925  0.00  0.00    +0.000 A 
ATOM     15  C   UNL     1      -1.483  13.563  22.979  0.00  0.00    +0.000 A 
ATOM     16  C   UNL     1      -0.800  14.296  22.037  0.00  0.00    +0.000 A 
ATOM     17  S   UNL     1       0.246  13.322  21.105  0.00  0.00    +0.000 S 
ENDBRANCH   8  13
BRANCH   1  19
ATOM     18  O   UNL     1       3.601   3.019  19.266  0.00  0.00    +0.000 OA
ATOM     19  C   UNL     1       3.215   3.935  18.548  0.00  0.00    +0.000 C 
ATOM     20  N   UNL     1       4.036   4.547  17.621  0.00  0.00    +0.000 N 
ATOM     21  H   UNL     1       3.751   5.442  17.242  0.00  0.00    +0.000 HD
BRANCH  20  22
ATOM     22  C   UNL     1       5.419   4.148  17.463  0.00  0.00    +0.000 C 
ATOM     23  C   UNL     1       5.974   4.497  16.088  0.00  0.00    +0.000 C 
ATOM     24  C   UNL     1       7.481   4.391  16.279  0.00  0.00    +0.000 C 
ATOM     25  C   UNL     1       7.742   4.768  17.738  0.00  0.00    +0.000 C 
ATOM     26  C   UNL     1       6.371   4.882  18.406  0.00  0.00    +0.000 C 
ENDBRANCH  20  22
ENDBRANCH   1  19
TORSDOF 3
ENDMDL
MODEL 5
REMARK VINA RESULT:      -7.0      3.764     10.658
REMARK  Name = 
REMARK  3 active torsions:
REMARK  status: ('A' for Active; 'I' for Inactive)
REMARK    1  A    between atoms: C_2  and  C_9
REMARK    2  A    between atoms: N_3  and  C_4
REMARK    3  A    between atoms: C_16  and  C_17
REMARK                            x       y       z     vdW  Elec       q    Type
REMARK                         _______ _______ _______ _____ _____    ______ ____
ROOT
ATOM      1  C   UNL     1      -0.243  12.694  20.165  0.00  0.00    +0.000 C 
ATOM      2  C   UNL     1      -0.042  12.282  18.696  0.00  0.00    +0.000 C 
ATOM      3  C   UNL     1      -0.222  10.779  18.485  0.00  0.00    +0.000 C 
ATOM      4  N   UNL     1       0.622  10.048  19.427  0.00  0.00    +0.000 N 
ATOM      5  C   UNL     1       1.477   9.079  18.943  0.00  0.00    +0.000 A 
ATOM      6  C   UNL     1       1.856   7.980  19.701  0.00  0.00    +0.000 A 
ATOM      7  C   UNL     1       2.728   7.019  19.183  0.00  0.00    +0.000 A 
ATOM      8  C   UNL     1       3.223   7.174  17.901  0.00  0.00    +0.000 A 
ATOM      9  N   UNL     1       2.847   8.234  17.163  0.00  0.00    +0.000 NA
ATOM     10  N   UNL     1       1.972   9.179  17.691  0.00  0.00    +0.000 NA
ATOM     11  C   UNL     1       0.425  10.330  20.841  0.00  0.00    +0.000 C 
ATOM     12  C   UNL     1       0.634  11.828  21.082  0.00  0.00    +0.000 C 
ENDROOT
BRANCH   8  13
ATOM     13  C   UNL     1       4.110   6.214  17.236  0.00  0.00    +0.000 A 
ATOM     14  C   UNL     1       5.047   6.451  16.244  0.00  0.00    +0.000 A 
ATOM     15  C   UNL     1       5.691   5.262  15.790  0.00  0.00    +0.000 A 
ATOM     16  C   UNL     1       5.253   4.150  16.470  0.00  0.00    +0.000 A 
ATOM     17  S   UNL     1       4.086   4.543  17.651  0.00  0.00    +0.000 S 
ENDBRANCH   8  13
BRANCH   1  19
ATOM     18  O   UNL     1      -2.628  12.498  19.758  0.00  0.00    +0.000 OA
ATOM     19  C   UNL     1      -1.718  12.648  20.566  0.00  0.00    +0.000 C 
ATOM     20  N   UNL     1      -1.948  12.803  21.920  0.00  0.00    +0.000 N 
ATOM     21  H   UNL     1      -1.199  13.166  22.496  0.00  0.00    +0.000 HD
BRANCH  20  22
ATOM     22  C   UNL     1      -3.293  12.819  22.456  0.00  0.00    +0.000 C 
ATOM     23  C   UNL     1      -3.375  12.190  23.841  0.00  0.00    +0.000 C 
ATOM     24  C   UNL     1      -4.718  12.677  24.370  0.00  0.00    +0.000 C 
ATOM     25  C   UNL     1      -4.943  14.048  23.730  0.00  0.00    +0.000 C 
ATOM     26  C   UNL     1      -3.832  14.228  22.693  0.00  0.00    +0.000 C 
ENDBRANCH  20  22
ENDBRANCH   1  19
TORSDOF 3
ENDMDL
MODEL 6
REMARK VINA RESULT:      -7.0      4.082     10.511
REMARK  Name = 
REMARK  3 active torsions:
REMARK  status: ('A' for Active; 'I' for Inactive)
REMARK    1  A    between atoms: C_2  and  C_9
REMARK    2  A    between atoms: N_3  and  C_4
REMARK    3  A    between atoms: C_16  and  C_17
REMARK                            x       y       z     vdW  Elec       q    Type
REMARK                         _______ _______ _______ _____ _____    ______ ____
ROOT
ATOM      1  C   UNL     1      -1.048  12.804  20.434  0.00  0.00    +0.000 C 
ATOM      2  C   UNL     1      -0.879  12.338  18.977  0.00  0.00    +0.000 C 
ATOM      3  C   UNL     1      -0.930  10.816  18.844  0.00  0.00    +0.000 C 
ATOM      4  N   UNL     1       0.021  10.212  19.774  0.00  0.00    +0.000 N 
ATOM      5  C   UNL     1       0.937   9.300  19.292  0.00  0.00    +0.000 A 
ATOM      6  C   UNL     1       1.451   8.279  20.079  0.00  0.00    +0.000 A 
ATOM      7  C   UNL     1       2.383   7.375  19.562  0.00  0.00    +0.000 A 
ATOM      8  C   UNL     1       2.800   7.509  18.250  0.00  0.00    +0.000 A 
ATOM      9  N   UNL     1       2.295   8.493  17.484  0.00  0.00    +0.000 NA
ATOM     10  N   UNL     1       1.362   9.381  18.012  0.00  0.00    +0.000 NA
ATOM     11  C   UNL     1      -0.134  10.547  21.182  0.00  0.00    +0.000 C 
ATOM     12  C   UNL     1      -0.053  12.067  21.343  0.00  0.00    +0.000 C 
ENDROOT
BRANCH   8  13
ATOM     13  C   UNL     1       3.739   6.600  17.585  0.00  0.00    +0.000 A 
ATOM     14  C   UNL     1       4.836   6.917  16.800  0.00  0.00    +0.000 A 
ATOM     15  C   UNL     1       5.490   5.767  16.267  0.00  0.00    +0.000 A 
ATOM     16  C   UNL     1       4.898   4.599  16.686  0.00  0.00    +0.000 A 
ATOM     17  S   UNL     1       3.573   4.891  17.720  0.00  0.00    +0.000 S 
ENDBRANCH   8  13
BRANCH   1  19
ATOM     18  O   UNL     1      -2.787  12.312  22.053  0.00  0.00    +0.000 OA
ATOM     19  C   UNL     1      -2.492  12.646  20.911  0.00  0.00    +0.000 C 
ATOM     20  N   UNL     1      -3.445  12.900  19.943  0.00  0.00    +0.000 N 
ATOM     21  H   UNL     1      -3.152  12.925  18.975  0.00  0.00    +0.000 HD
BRANCH  20  22
ATOM     22  C   UNL     1      -4.859  12.759  20.226  0.00  0.00    +0.000 C 
ATOM     23  C   UNL     1      -5.601  14.087  20.160  0.00  0.00    +0.000 C 
ATOM     24  C   UNL     1      -7.062  13.670  20.064  0.00  0.00    +0.000 C 
ATOM     25  C   UNL     1      -7.063  12.331  19.325  0.00  0.00    +0.000 C 
ATOM     26  C   UNL     1      -5.599  11.908  19.196  0.00  0.00    +0.000 C 
ENDBRANCH  20  22
ENDBRANCH   1  19
TORSDOF 3
ENDMDL
MODEL 7
REMARK VINA RESULT:      -6.9      2.886      4.082
REMARK  Name = 
REMARK  3 active torsions:
REMARK  status: ('A' for Active; 'I' for Inactive)
REMARK    1  A    between atoms: C_2  and  C_9
REMARK    2  A    between atoms: N_3  and  C_4
REMARK    3  A    between atoms: C_16  and  C_17
REMARK                            x       y       z     vdW  Elec       q    Type
REMARK                         _______ _______ _______ _____ _____    ______ ____
ROOT
ATOM      1  C   UNL     1       2.088   5.171  18.466  0.00  0.00    +0.000 C 
ATOM      2  C   UNL     1       1.778   6.562  17.887  0.00  0.00    +0.000 C 
ATOM      3  C   UNL     1       2.255   7.692  18.801  0.00  0.00    +0.000 C 
ATOM      4  N   UNL     1       1.736   7.481  20.150  0.00  0.00    +0.000 N 
ATOM      5  C   UNL     1       1.057   8.510  20.771  0.00  0.00    +0.000 A 
ATOM      6  C   UNL     1       1.042   8.661  22.150  0.00  0.00    +0.000 A 
ATOM      7  C   UNL     1       0.340   9.710  22.749  0.00  0.00    +0.000 A 
ATOM      8  C   UNL     1      -0.353  10.603  21.951  0.00  0.00    +0.000 A 
ATOM      9  N   UNL     1      -0.330  10.463  20.614  0.00  0.00    +0.000 NA
ATOM     10  N   UNL     1       0.380   9.416  20.033  0.00  0.00    +0.000 NA
ATOM     11  C   UNL     1       2.063   6.216  20.790  0.00  0.00    +0.000 C 
ATOM     12  C   UNL     1       1.564   5.069  19.907  0.00  0.00    +0.000 C 
ENDROOT
BRANCH   8  13
ATOM     13  C   UNL     1      -1.090  11.765  22.459  0.00  0.00    +0.000 A 
ATOM     14  C   UNL     1      -2.256  11.786  23.206  0.00  0.00    +0.000 A 
ATOM     15  C   UNL     1      -2.722  13.107  23.475  0.00  0.00    +0.000 A 
ATOM     16  C   UNL     1      -1.881  14.063  22.955  0.00  0.00    +0.000 A 
ATOM     17  S   UNL     1      -0.539  13.369  22.161  0.00  0.00    +0.000 S 
ENDBRANCH   8  13
BRANCH   1  19
ATOM     18  O   UNL     1       4.036   3.730  18.616  0.00  0.00    +0.000 OA
ATOM     19  C   UNL     1       3.579   4.841  18.371  0.00  0.00    +0.000 C 
ATOM     20  N   UNL     1       4.376   5.905  17.995  0.00  0.00    +0.000 N 
ATOM     21  H   UNL     1       3.989   6.839  18.049  0.00  0.00    +0.000 HD
BRANCH  20  22
ATOM     22  C   UNL     1       5.814   5.766  17.894  0.00  0.00    +0.000 C 
ATOM     23  C   UNL     1       6.489   7.039  17.396  0.00  0.00    +0.000 C 
ATOM     24  C   UNL     1       7.952   6.826  17.760  0.00  0.00    +0.000 C 
ATOM     25  C   UNL     1       7.945   5.964  19.022  0.00  0.00    +0.000 C 
ATOM     26  C   UNL     1       6.495   5.528  19.240  0.00  0.00    +0.000 C 
ENDBRANCH  20  22
ENDBRANCH   1  19
TORSDOF 3
ENDMDL
MODEL 8
REMARK VINA RESULT:      -6.9      3.953     10.628
REMARK  Name = 
REMARK  3 active torsions:
REMARK  status: ('A' for Active; 'I' for Inactive)
REMARK    1  A    between atoms: C_2  and  C_9
REMARK    2  A    between atoms: N_3  and  C_4
REMARK    3  A    between atoms: C_16  and  C_17
REMARK                            x       y       z     vdW  Elec       q    Type
REMARK                         _______ _______ _______ _____ _____    ______ ____
ROOT
ATOM      1  C   UNL     1      -0.034  12.939  20.038  0.00  0.00    +0.000 C 
ATOM      2  C   UNL     1      -0.111  12.249  18.665  0.00  0.00    +0.000 C 
ATOM      3  C   UNL     1      -0.390  10.751  18.783  0.00  0.00    +0.000 C 
ATOM      4  N   UNL     1       0.573  10.145  19.698  0.00  0.00    +0.000 N 
ATOM      5  C   UNL     1       1.288   9.041  19.280  0.00  0.00    +0.000 A 
ATOM      6  C   UNL     1       1.745   8.075  20.165  0.00  0.00    +0.000 A 
ATOM      7  C   UNL     1       2.471   6.972  19.710  0.00  0.00    +0.000 A 
ATOM      8  C   UNL     1       2.741   6.849  18.358  0.00  0.00    +0.000 A 
ATOM      9  N   UNL     1       2.288   7.780  17.499  0.00  0.00    +0.000 NA
ATOM     10  N   UNL     1       1.560   8.870  17.968  0.00  0.00    +0.000 NA
ATOM     11  C   UNL     1       0.639  10.697  21.043  0.00  0.00    +0.000 C 
ATOM     12  C   UNL     1       0.951  12.194  20.951  0.00  0.00    +0.000 C 
ENDROOT
BRANCH   8  13
ATOM     13  C   UNL     1       3.455   5.719  17.757  0.00  0.00    +0.000 A 
ATOM     14  C   UNL     1       3.107   4.378  17.765  0.00  0.00    +0.000 A 
ATOM     15  C   UNL     1       4.075   3.547  17.126  0.00  0.00    +0.000 A 
ATOM     16  C   UNL     1       5.123   4.279  16.617  0.00  0.00    +0.000 A 
ATOM     17  S   UNL     1       4.930   5.950  16.899  0.00  0.00    +0.000 S 
ENDBRANCH   8  13
BRANCH   1  19
ATOM     18  O   UNL     1      -2.460  13.010  20.035  0.00  0.00    +0.000 OA
ATOM     19  C   UNL     1      -1.417  13.080  20.675  0.00  0.00    +0.000 C 
ATOM     20  N   UNL     1      -1.398  13.307  22.038  0.00  0.00    +0.000 N 
ATOM     21  H   UNL     1      -0.528  13.600  22.465  0.00  0.00    +0.000 HD
BRANCH  20  22
ATOM     22  C   UNL     1      -2.624  13.499  22.785  0.00  0.00    +0.000 C 
ATOM     23  C   UNL     1      -3.117  12.213  23.437  0.00  0.00    +0.000 C 
ATOM     24  C   UNL     1      -4.120  12.704  24.471  0.00  0.00    +0.000 C 
ATOM     25  C   UNL     1      -3.621  14.081  24.911  0.00  0.00    +0.000 C 
ATOM     26  C   UNL     1      -2.464  14.440  23.977  0.00  0.00    +0.000 C 
ENDBRANCH  20  22
ENDBRANCH   1  19
TORSDOF 3
ENDMDL
MODEL 9
REMARK VINA RESULT:      -6.8      4.311      9.688
REMARK  Name = 
REMARK  3 active torsions:
REMARK  status: ('A' for Active; 'I' for Inactive)
REMARK    1  A    between atoms: C_2  and  C_9
REMARK    2  A    between atoms: N_3  and  C_4
REMARK    3  A    between atoms: C_16  and  C_17
REMARK                            x       y       z     vdW  Elec       q    Type
REMARK                         _______ _______ _______ _____ _____    ______ ____
ROOT
ATOM      1  C   UNL     1      -1.034  11.903  20.700  0.00  0.00    +0.000 C 
ATOM      2  C   UNL     1      -0.421  10.879  21.673  0.00  0.00    +0.000 C 
ATOM      3  C   UNL     1       0.988  10.454  21.258  0.00  0.00    +0.000 C 
ATOM      4  N   UNL     1       0.975  10.015  19.865  0.00  0.00    +0.000 N 
ATOM      5  C   UNL     1       1.507   8.782  19.549  0.00  0.00    +0.000 A 
ATOM      6  C   UNL     1       2.072   8.513  18.310  0.00  0.00    +0.000 A 
ATOM      7  C   UNL     1       2.597   7.251  18.021  0.00  0.00    +0.000 A 
ATOM      8  C   UNL     1       2.545   6.258  18.983  0.00  0.00    +0.000 A 
ATOM      9  N   UNL     1       2.007   6.522  20.187  0.00  0.00    +0.000 NA
ATOM     10  N   UNL     1       1.494   7.787  20.462  0.00  0.00    +0.000 NA
ATOM     11  C   UNL     1       0.484  10.967  18.880  0.00  0.00    +0.000 C 
ATOM     12  C   UNL     1      -0.941  11.383  19.258  0.00  0.00    +0.000 C 
ENDROOT
BRANCH   8  13
ATOM     13  C   UNL     1       3.099   4.912  18.811  0.00  0.00    +0.000 A 
ATOM     14  C   UNL     1       3.818   4.406  17.741  0.00  0.00    +0.000 A 
ATOM     15  C   UNL     1       4.149   3.027  17.893  0.00  0.00    +0.000 A 
ATOM     16  C   UNL     1       3.704   2.522  19.093  0.00  0.00    +0.000 A 
ATOM     17  S   UNL     1       2.905   3.706  20.026  0.00  0.00    +0.000 S 
ENDBRANCH   8  13
BRANCH   1  19
ATOM     18  O   UNL     1      -0.068  13.750  21.944  0.00  0.00    +0.000 OA
ATOM     19  C   UNL     1      -0.393  13.282  20.859  0.00  0.00    +0.000 C 
ATOM     20  N   UNL     1      -0.219  13.971  19.673  0.00  0.00    +0.000 N 
ATOM     21  H   UNL     1      -0.722  13.653  18.854  0.00  0.00    +0.000 HD
BRANCH  20  22
ATOM     22  C   UNL     1       0.342  15.306  19.655  0.00  0.00    +0.000 C 
ATOM     23  C   UNL     1       1.653  15.377  18.884  0.00  0.00    +0.000 C 
ATOM     24  C   UNL     1       1.834  16.869  18.634  0.00  0.00    +0.000 C 
ATOM     25  C   UNL     1       0.422  17.445  18.528  0.00  0.00    +0.000 C 
ATOM     26  C   UNL     1      -0.535  16.320  18.923  0.00  0.00    +0.000 C 
ENDBRANCH  20  22
ENDBRANCH   1  19
TORSDOF 3
ENDMDL
