MODEL 1
REMARK VINA RESULT:      -7.6      0.000      0.000
REMARK  Name = 
REMARK  11 active torsions:
REMARK  status: ('A' for Active; 'I' for Inactive)
REMARK    1  A    between atoms: C_1  and  C_2
REMARK    2  A    between atoms: C_2  and  O_3
REMARK    3  A    between atoms: C_2  and  C_4
REMARK    4  A    between atoms: C_8  and  C_9
REMARK    5  A    between atoms: C_9  and  O_11
REMARK    6  A    between atoms: C_12  and  S_13
REMARK    7  A    between atoms: S_13  and  C_14
REMARK    8  A    between atoms: C_17  and  C_18
REMARK    9  A    between atoms: C_21  and  C_22
REMARK   10  A    between atoms: C_22  and  N_23
REMARK   11  A    between atoms: C_27  and  C_28
REMARK                            x       y       z     vdW  Elec       q    Type
REMARK                         _______ _______ _______ _____ _____    ______ ____
ROOT
ATOM      1  C   UNL     1       4.978   4.803  17.521  0.00  0.00    +0.000 C 
ATOM      2  C   UNL     1       4.307   3.598  18.229  0.00  0.00    +0.000 C 
ATOM      3  O   UNL     1       3.868   2.507  17.929  0.00  0.00    +0.000 OA
ATOM      4  N   UNL     1       4.199   4.279  19.395  0.00  0.00    +0.000 N 
ATOM      5  C   UNL     1       3.034   4.426  20.129  0.00  0.00    +0.000 C 
ATOM      6  C   UNL     1       2.579   5.697  20.086  0.00  0.00    +0.000 C 
ATOM      7  C   UNL     1       3.312   6.466  18.994  0.00  0.00    +0.000 C 
ATOM      8  C   UNL     1       2.536   6.567  17.676  0.00  0.00    +0.000 C 
ATOM      9  C   UNL     1       4.566   5.596  18.810  0.00  0.00    +0.000 C 
ENDROOT
BRANCH   1  11
ATOM     10  C   UNL     1       7.092   6.155  17.287  0.00  0.00    +0.000 C 
ATOM     11  C   UNL     1       6.479   4.767  17.307  0.00  0.00    +0.000 C 
BRANCH  11  12
ATOM     12  O   UNL     1       7.048   4.012  18.379  0.00  0.00    +0.000 OA
ATOM     13  H   UNL     1       6.864   3.067  18.225  0.00  0.00    +0.000 HD
ENDBRANCH  11  12
ENDBRANCH   1  11
BRANCH   5  14
ATOM     14  C   UNL     1       2.437   3.279  20.879  0.00  0.00    +0.000 C 
ATOM     15  O   UNL     1       2.539   3.112  22.084  0.00  0.00    +0.000 OA
BRANCH  14  16
ATOM     16  O   UNL     1       1.759   2.406  20.100  0.00  0.00    +0.000 OA
ATOM     17  H   UNL     1       1.155   1.793  20.575  0.00  0.00    +0.000 HD
ENDBRANCH  14  16
ENDBRANCH   5  14
BRANCH   6  18
ATOM     18  S   UNL     1       1.259   6.399  20.944  0.00  0.00    +0.000 S 
BRANCH  18  19
ATOM     19  C   UNL     1       1.534   8.219  20.901  0.00  0.00    +0.000 C 
ATOM     20  C   UNL     1       0.983   9.011  22.077  0.00  0.00    +0.000 C 
ATOM     21  N   UNL     1       0.964  10.413  21.644  0.00  0.00    +0.000 NA
ATOM     22  C   UNL     1       0.703  10.404  20.189  0.00  0.00    +0.000 C 
ATOM     23  C   UNL     1       1.064   8.994  19.674  0.00  0.00    +0.000 C 
ATOM     24  H   UNL     1       1.880  10.833  21.800  0.00  0.00    +0.000 HD
BRANCH  22  25
ATOM     25  C   UNL     1      -0.697  10.863  19.804  0.00  0.00    +0.000 A 
ATOM     26  C   UNL     1      -1.384  11.874  20.489  0.00  0.00    +0.000 A 
ATOM     27  C   UNL     1      -2.633  12.331  20.046  0.00  0.00    +0.000 A 
ATOM     28  C   UNL     1      -3.226  11.805  18.891  0.00  0.00    +0.000 A 
ATOM     29  C   UNL     1      -2.561  10.767  18.226  0.00  0.00    +0.000 A 
ATOM     30  C   UNL     1      -1.316  10.309  18.670  0.00  0.00    +0.000 A 
BRANCH  28  31
ATOM     31  C   UNL     1      -4.574  12.314  18.437  0.00  0.00    +0.000 C 
BRANCH  31  32
ATOM     32  N   UNL     1      -4.843  12.055  17.024  0.00  0.00    +0.000 NA
ATOM     33  H   UNL     1      -5.360  11.181  16.947  0.00  0.00    +0.000 HD
ATOM     34  H   UNL     1      -3.961  11.910  16.538  0.00  0.00    +0.000 HD
ENDBRANCH  31  32
ENDBRANCH  28  31
ENDBRANCH  22  25
ENDBRANCH  18  19
ENDBRANCH   6  18
TORSDOF 9
ENDMDL
MODEL 2
REMARK VINA RESULT:      -7.4      1.247      1.577
REMARK  Name = 
REMARK  11 active torsions:
REMARK  status: ('A' for Active; 'I' for Inactive)
REMARK    1  A    between atoms: C_1  and  C_2
REMARK    2  A    between atoms: C_2  and  O_3
REMARK    3  A    between atoms: C_2  and  C_4
REMARK    4  A    between atoms: C_8  and  C_9
REMARK    5  A    between atoms: C_9  and  O_11
REMARK    6  A    between atoms: C_12  and  S_13
REMARK    7  A    between atoms: S_13  and  C_14
REMARK    8  A    between atoms: C_17  and  C_18
REMARK    9  A    between atoms: C_21  and  C_22
REMARK   10  A    between atoms: C_22  and  N_23
REMARK   11  A    between atoms: C_27  and  C_28
REMARK                            x       y       z     vdW  Elec       q    Type
REMARK                         _______ _______ _______ _____ _____    ______ ____
ROOT
ATOM      1  C   UNL     1       4.823   4.608  18.104  0.00  0.00    +0.000 C 
ATOM      2  C   UNL     1       3.883   3.514  18.672  0.00  0.00    +0.000 C 
ATOM      3  O   UNL     1       3.352   2.494  18.287  0.00  0.00    +0.000 OA
ATOM      4  N   UNL     1       3.679   4.213  19.815  0.00  0.00    +0.000 N 
ATOM      5  C   UNL     1       2.440   4.528  20.348  0.00  0.00    +0.000 C 
ATOM      6  C   UNL     1       2.181   5.849  20.251  0.00  0.00    +0.000 C 
ATOM      7  C   UNL     1       3.184   6.499  19.307  0.00  0.00    +0.000 C 
ATOM      8  C   UNL     1       2.659   6.698  17.881  0.00  0.00    +0.000 C 
ATOM      9  C   UNL     1       4.317   5.461  19.319  0.00  0.00    +0.000 C 
ENDROOT
BRANCH   1  11
ATOM     10  C   UNL     1       6.996   4.726  16.832  0.00  0.00    +0.000 C 
ATOM     11  C   UNL     1       6.319   4.361  18.140  0.00  0.00    +0.000 C 
BRANCH  11  12
ATOM     12  O   UNL     1       6.861   5.158  19.195  0.00  0.00    +0.000 OA
ATOM     13  H   UNL     1       7.723   4.784  19.456  0.00  0.00    +0.000 HD
ENDBRANCH  11  12
ENDBRANCH   1  11
BRANCH   5  14
ATOM     14  C   UNL     1       1.573   3.481  20.972  0.00  0.00    +0.000 C 
ATOM     15  O   UNL     1       1.691   3.078  22.118  0.00  0.00    +0.000 OA
BRANCH  14  16
ATOM     16  O   UNL     1       0.621   2.992  20.146  0.00  0.00    +0.000 OA
ATOM     17  H   UNL     1       0.930   2.338  19.481  0.00  0.00    +0.000 HD
ENDBRANCH  14  16
ENDBRANCH   5  14
BRANCH   6  18
ATOM     18  S   UNL     1       0.848   6.736  20.890  0.00  0.00    +0.000 S 
BRANCH  18  19
ATOM     19  C   UNL     1       1.346   8.508  20.843  0.00  0.00    +0.000 C 
ATOM     20  C   UNL     1       1.226   9.276  22.150  0.00  0.00    +0.000 C 
ATOM     21  N   UNL     1       1.286  10.697  21.790  0.00  0.00    +0.000 NA
ATOM     22  C   UNL     1       0.662  10.823  20.455  0.00  0.00    +0.000 C 
ATOM     23  C   UNL     1       0.686   9.419  19.812  0.00  0.00    +0.000 C 
ATOM     24  H   UNL     1       2.260  10.991  21.714  0.00  0.00    +0.000 HD
BRANCH  22  25
ATOM     25  C   UNL     1      -0.714  11.473  20.469  0.00  0.00    +0.000 A 
ATOM     26  C   UNL     1      -1.498  11.625  19.317  0.00  0.00    +0.000 A 
ATOM     27  C   UNL     1      -2.798  12.144  19.388  0.00  0.00    +0.000 A 
ATOM     28  C   UNL     1      -3.363  12.510  20.617  0.00  0.00    +0.000 A 
ATOM     29  C   UNL     1      -2.569  12.397  21.764  0.00  0.00    +0.000 A 
ATOM     30  C   UNL     1      -1.270  11.881  21.694  0.00  0.00    +0.000 A 
BRANCH  28  31
ATOM     31  C   UNL     1      -4.766  13.069  20.664  0.00  0.00    +0.000 C 
BRANCH  31  32
ATOM     32  N   UNL     1      -5.661  12.310  21.536  0.00  0.00    +0.000 NA
ATOM     33  H   UNL     1      -6.516  12.848  21.669  0.00  0.00    +0.000 HD
ATOM     34  H   UNL     1      -5.233  12.221  22.455  0.00  0.00    +0.000 HD
ENDBRANCH  31  32
ENDBRANCH  28  31
ENDBRANCH  22  25
ENDBRANCH  18  19
ENDBRANCH   6  18
TORSDOF 9
ENDMDL
MODEL 3
REMARK VINA RESULT:      -7.4      0.718      1.322
REMARK  Name = 
REMARK  11 active torsions:
REMARK  status: ('A' for Active; 'I' for Inactive)
REMARK    1  A    between atoms: C_1  and  C_2
REMARK    2  A    between atoms: C_2  and  O_3
REMARK    3  A    between atoms: C_2  and  C_4
REMARK    4  A    between atoms: C_8  and  C_9
REMARK    5  A    between atoms: C_9  and  O_11
REMARK    6  A    between atoms: C_12  and  S_13
REMARK    7  A    between atoms: S_13  and  C_14
REMARK    8  A    between atoms: C_17  and  C_18
REMARK    9  A    between atoms: C_21  and  C_22
REMARK   10  A    between atoms: C_22  and  N_23
REMARK   11  A    between atoms: C_27  and  C_28
REMARK                            x       y       z     vdW  Elec       q    Type
REMARK                         _______ _______ _______ _____ _____    ______ ____
ROOT
ATOM      1  C   UNL     1       5.145   4.693  17.622  0.00  0.00    +0.000 C 
ATOM      2  C   UNL     1       4.391   3.483  18.232  0.00  0.00    +0.000 C 
ATOM      3  O   UNL     1       3.942   2.420  17.857  0.00  0.00    +0.000 OA
ATOM      4  N   UNL     1       4.221   4.122  19.415  0.00  0.00    +0.000 N 
ATOM      5  C   UNL     1       3.012   4.277  20.071  0.00  0.00    +0.000 C 
ATOM      6  C   UNL     1       2.599   5.562  20.050  0.00  0.00    +0.000 C 
ATOM      7  C   UNL     1       3.429   6.349  19.044  0.00  0.00    +0.000 C 
ATOM      8  C   UNL     1       2.751   6.527  17.681  0.00  0.00    +0.000 C 
ATOM      9  C   UNL     1       4.666   5.447  18.911  0.00  0.00    +0.000 C 
ENDROOT
BRANCH   1  11
ATOM     10  C   UNL     1       7.120   4.431  16.079  0.00  0.00    +0.000 C 
ATOM     11  C   UNL     1       6.655   4.618  17.511  0.00  0.00    +0.000 C 
BRANCH  11  12
ATOM     12  O   UNL     1       7.187   5.840  18.028  0.00  0.00    +0.000 OA
ATOM     13  H   UNL     1       7.481   5.688  18.945  0.00  0.00    +0.000 HD
ENDBRANCH  11  12
ENDBRANCH   1  11
BRANCH   5  14
ATOM     14  C   UNL     1       2.330   3.120  20.731  0.00  0.00    +0.000 C 
ATOM     15  O   UNL     1       1.536   2.378  20.176  0.00  0.00    +0.000 OA
BRANCH  14  16
ATOM     16  O   UNL     1       2.662   2.956  22.032  0.00  0.00    +0.000 OA
ATOM     17  H   UNL     1       3.376   2.304  22.208  0.00  0.00    +0.000 HD
ENDBRANCH  14  16
ENDBRANCH   5  14
BRANCH   6  18
ATOM     18  S   UNL     1       1.242   6.272  20.843  0.00  0.00    +0.000 S 
BRANCH  18  19
ATOM     19  C   UNL     1       1.496   8.094  20.753  0.00  0.00    +0.000 C 
ATOM     20  C   UNL     1       0.708   8.932  21.747  0.00  0.00    +0.000 C 
ATOM     21  N   UNL     1       0.758  10.309  21.241  0.00  0.00    +0.000 NA
ATOM     22  C   UNL     1       0.797  10.217  19.766  0.00  0.00    +0.000 C 
ATOM     23  C   UNL     1       1.273   8.791  19.415  0.00  0.00    +0.000 C 
ATOM     24  H   UNL     1       1.618  10.759  21.554  0.00  0.00    +0.000 HD
BRANCH  22  25
ATOM     25  C   UNL     1      -0.503  10.621  19.082  0.00  0.00    +0.000 A 
ATOM     26  C   UNL     1      -0.955  10.030  17.894  0.00  0.00    +0.000 A 
ATOM     27  C   UNL     1      -2.201  10.364  17.348  0.00  0.00    +0.000 A 
ATOM     28  C   UNL     1      -3.045  11.286  17.982  0.00  0.00    +0.000 A 
ATOM     29  C   UNL     1      -2.580  11.907  19.148  0.00  0.00    +0.000 A 
ATOM     30  C   UNL     1      -1.334  11.575  19.693  0.00  0.00    +0.000 A 
BRANCH  28  31
ATOM     31  C   UNL     1      -4.382  11.629  17.370  0.00  0.00    +0.000 C 
BRANCH  31  32
ATOM     32  N   UNL     1      -5.114  12.651  18.117  0.00  0.00    +0.000 NA
ATOM     33  H   UNL     1      -5.204  12.343  19.083  0.00  0.00    +0.000 HD
ATOM     34  H   UNL     1      -6.060  12.719  17.747  0.00  0.00    +0.000 HD
ENDBRANCH  31  32
ENDBRANCH  28  31
ENDBRANCH  22  25
ENDBRANCH  18  19
ENDBRANCH   6  18
TORSDOF 9
ENDMDL
MODEL 4
REMARK VINA RESULT:      -7.3      0.932      1.324
REMARK  Name = 
REMARK  11 active torsions:
REMARK  status: ('A' for Active; 'I' for Inactive)
REMARK    1  A    between atoms: C_1  and  C_2
REMARK    2  A    between atoms: C_2  and  O_3
REMARK    3  A    between atoms: C_2  and  C_4
REMARK    4  A    between atoms: C_8  and  C_9
REMARK    5  A    between atoms: C_9  and  O_11
REMARK    6  A    between atoms: C_12  and  S_13
REMARK    7  A    between atoms: S_13  and  C_14
REMARK    8  A    between atoms: C_17  and  C_18
REMARK    9  A    between atoms: C_21  and  C_22
REMARK   10  A    between atoms: C_22  and  N_23
REMARK   11  A    between atoms: C_27  and  C_28
REMARK                            x       y       z     vdW  Elec       q    Type
REMARK                         _______ _______ _______ _____ _____    ______ ____
ROOT
ATOM      1  C   UNL     1       5.807   5.383  17.367  0.00  0.00    +0.000 C 
ATOM      2  C   UNL     1       5.124   4.046  17.756  0.00  0.00    +0.000 C 
ATOM      3  O   UNL     1       4.810   3.005  17.217  0.00  0.00    +0.000 OA
ATOM      4  N   UNL     1       4.801   4.512  18.986  0.00  0.00    +0.000 N 
ATOM      5  C   UNL     1       3.533   4.481  19.543  0.00  0.00    +0.000 C 
ATOM      6  C   UNL     1       3.004   5.720  19.638  0.00  0.00    +0.000 C 
ATOM      7  C   UNL     1       3.834   6.695  18.814  0.00  0.00    +0.000 C 
ATOM      8  C   UNL     1       3.254   6.987  17.426  0.00  0.00    +0.000 C 
ATOM      9  C   UNL     1       5.158   5.924  18.688  0.00  0.00    +0.000 C 
ENDROOT
BRANCH   1  11
ATOM     10  C   UNL     1       7.859   6.010  18.690  0.00  0.00    +0.000 C 
ATOM     11  C   UNL     1       7.322   5.448  17.386  0.00  0.00    +0.000 C 
BRANCH  11  12
ATOM     12  O   UNL     1       7.813   4.118  17.206  0.00  0.00    +0.000 OA
ATOM     13  H   UNL     1       7.966   3.970  16.254  0.00  0.00    +0.000 HD
ENDBRANCH  11  12
ENDBRANCH   1  11
BRANCH   5  14
ATOM     14  C   UNL     1       2.913   3.197  19.995  0.00  0.00    +0.000 C 
ATOM     15  O   UNL     1       3.326   2.516  20.919  0.00  0.00    +0.000 OA
BRANCH  14  16
ATOM     16  O   UNL     1       1.828   2.829  19.276  0.00  0.00    +0.000 OA
ATOM     17  H   UNL     1       1.995   2.182  18.556  0.00  0.00    +0.000 HD
ENDBRANCH  14  16
ENDBRANCH   5  14
BRANCH   6  18
ATOM     18  S   UNL     1       1.528   6.207  20.384  0.00  0.00    +0.000 S 
BRANCH  18  19
ATOM     19  C   UNL     1       1.616   8.040  20.536  0.00  0.00    +0.000 C 
ATOM     20  C   UNL     1       0.704   8.672  21.576  0.00  0.00    +0.000 C 
ATOM     21  N   UNL     1       0.651  10.102  21.249  0.00  0.00    +0.000 NA
ATOM     22  C   UNL     1       0.773  10.206  19.779  0.00  0.00    +0.000 C 
ATOM     23  C   UNL     1       1.397   8.883  19.284  0.00  0.00    +0.000 C 
ATOM     24  H   UNL     1       1.449  10.580  21.668  0.00  0.00    +0.000 HD
BRANCH  22  25
ATOM     25  C   UNL     1      -0.522  10.581  19.071  0.00  0.00    +0.000 A 
ATOM     26  C   UNL     1      -0.927   9.998  17.862  0.00  0.00    +0.000 A 
ATOM     27  C   UNL     1      -2.170  10.304  17.291  0.00  0.00    +0.000 A 
ATOM     28  C   UNL     1      -3.057  11.187  17.921  0.00  0.00    +0.000 A 
ATOM     29  C   UNL     1      -2.639  11.801  19.108  0.00  0.00    +0.000 A 
ATOM     30  C   UNL     1      -1.397  11.498  19.678  0.00  0.00    +0.000 A 
BRANCH  28  31
ATOM     31  C   UNL     1      -4.390  11.500  17.283  0.00  0.00    +0.000 C 
BRANCH  31  32
ATOM     32  N   UNL     1      -5.102  12.594  17.940  0.00  0.00    +0.000 NA
ATOM     33  H   UNL     1      -4.798  12.642  18.911  0.00  0.00    +0.000 HD
ATOM     34  H   UNL     1      -6.096  12.379  17.960  0.00  0.00    +0.000 HD
ENDBRANCH  31  32
ENDBRANCH  28  31
ENDBRANCH  22  25
ENDBRANCH  18  19
ENDBRANCH   6  18
TORSDOF 9
ENDMDL
MODEL 5
REMARK VINA RESULT:      -7.2      2.089      2.564
REMARK  Name = 
REMARK  11 active torsions:
REMARK  status: ('A' for Active; 'I' for Inactive)
REMARK    1  A    between atoms: C_1  and  C_2
REMARK    2  A    between atoms: C_2  and  O_3
REMARK    3  A    between atoms: C_2  and  C_4
REMARK    4  A    between atoms: C_8  and  C_9
REMARK    5  A    between atoms: C_9  and  O_11
REMARK    6  A    between atoms: C_12  and  S_13
REMARK    7  A    between atoms: S_13  and  C_14
REMARK    8  A    between atoms: C_17  and  C_18
REMARK    9  A    between atoms: C_21  and  C_22
REMARK   10  A    between atoms: C_22  and  N_23
REMARK   11  A    between atoms: C_27  and  C_28
REMARK                            x       y       z     vdW  Elec       q    Type
REMARK                         _______ _______ _______ _____ _____    ______ ____
ROOT
ATOM      1  C   UNL     1       4.052   5.316  17.306  0.00  0.00    +0.000 C 
ATOM      2  C   UNL     1       3.204   4.189  17.952  0.00  0.00    +0.000 C 
ATOM      3  O   UNL     1       2.540   3.241  17.588  0.00  0.00    +0.000 OA
ATOM      4  N   UNL     1       3.309   4.747  19.182  0.00  0.00    +0.000 N 
ATOM      5  C   UNL     1       2.245   5.031  20.022  0.00  0.00    +0.000 C 
ATOM      6  C   UNL     1       2.048   6.362  20.139  0.00  0.00    +0.000 C 
ATOM      7  C   UNL     1       2.846   7.092  19.066  0.00  0.00    +0.000 C 
ATOM      8  C   UNL     1       2.021   7.482  17.834  0.00  0.00    +0.000 C 
ATOM      9  C   UNL     1       3.889   6.026  18.695  0.00  0.00    +0.000 C 
ENDROOT
BRANCH   1  11
ATOM     10  C   UNL     1       6.456   5.491  18.043  0.00  0.00    +0.000 C 
ATOM     11  C   UNL     1       5.499   5.019  16.964  0.00  0.00    +0.000 C 
BRANCH  11  12
ATOM     12  O   UNL     1       5.623   3.604  16.805  0.00  0.00    +0.000 OA
ATOM     13  H   UNL     1       6.433   3.310  17.261  0.00  0.00    +0.000 HD
ENDBRANCH  11  12
ENDBRANCH   1  11
BRANCH   5  14
ATOM     14  C   UNL     1       1.483   3.942  20.709  0.00  0.00    +0.000 C 
ATOM     15  O   UNL     1       1.790   3.456  21.785  0.00  0.00    +0.000 OA
BRANCH  14  16
ATOM     16  O   UNL     1       0.397   3.516  20.024  0.00  0.00    +0.000 OA
ATOM     17  H   UNL     1       0.585   2.973  19.227  0.00  0.00    +0.000 HD
ENDBRANCH  14  16
ENDBRANCH   5  14
BRANCH   6  18
ATOM     18  S   UNL     1       0.951   7.203  21.168  0.00  0.00    +0.000 S 
BRANCH  18  19
ATOM     19  C   UNL     1       1.015   8.968  20.646  0.00  0.00    +0.000 C 
ATOM     20  C   UNL     1       1.606   9.945  21.651  0.00  0.00    +0.000 C 
ATOM     21  N   UNL     1       1.197  11.281  21.201  0.00  0.00    +0.000 NA
ATOM     22  C   UNL     1      -0.129  11.127  20.564  0.00  0.00    +0.000 C 
ATOM     23  C   UNL     1      -0.278   9.636  20.190  0.00  0.00    +0.000 C 
ATOM     24  H   UNL     1       1.851  11.621  20.497  0.00  0.00    +0.000 HD
BRANCH  22  25
ATOM     25  C   UNL     1      -1.285  11.677  21.388  0.00  0.00    +0.000 A 
ATOM     26  C   UNL     1      -2.349  12.394  20.825  0.00  0.00    +0.000 A 
ATOM     27  C   UNL     1      -3.440  12.802  21.604  0.00  0.00    +0.000 A 
ATOM     28  C   UNL     1      -3.511  12.489  22.968  0.00  0.00    +0.000 A 
ATOM     29  C   UNL     1      -2.431  11.806  23.542  0.00  0.00    +0.000 A 
ATOM     30  C   UNL     1      -1.340  11.401  22.765  0.00  0.00    +0.000 A 
BRANCH  28  31
ATOM     31  C   UNL     1      -4.698  12.942  23.785  0.00  0.00    +0.000 C 
BRANCH  31  32
ATOM     32  N   UNL     1      -5.246  11.892  24.641  0.00  0.00    +0.000 NA
ATOM     33  H   UNL     1      -5.005  12.104  25.608  0.00  0.00    +0.000 HD
ATOM     34  H   UNL     1      -4.790  11.010  24.418  0.00  0.00    +0.000 HD
ENDBRANCH  31  32
ENDBRANCH  28  31
ENDBRANCH  22  25
ENDBRANCH  18  19
ENDBRANCH   6  18
TORSDOF 9
ENDMDL
MODEL 6
REMARK VINA RESULT:      -7.2      1.150      1.256
REMARK  Name = 
REMARK  11 active torsions:
REMARK  status: ('A' for Active; 'I' for Inactive)
REMARK    1  A    between atoms: C_1  and  C_2
REMARK    2  A    between atoms: C_2  and  O_3
REMARK    3  A    between atoms: C_2  and  C_4
REMARK    4  A    between atoms: C_8  and  C_9
REMARK    5  A    between atoms: C_9  and  O_11
REMARK    6  A    between atoms: C_12  and  S_13
REMARK    7  A    between atoms: S_13  and  C_14
REMARK    8  A    between atoms: C_17  and  C_18
REMARK    9  A    between atoms: C_21  and  C_22
REMARK   10  A    between atoms: C_22  and  N_23
REMARK   11  A    between atoms: C_27  and  C_28
REMARK                            x       y       z     vdW  Elec       q    Type
REMARK                         _______ _______ _______ _____ _____    ______ ____
ROOT
ATOM      1  C   UNL     1       4.177   3.743  17.017  0.00  0.00    +0.000 C 
ATOM      2  C   UNL     1       3.896   2.749  18.174  0.00  0.00    +0.000 C 
ATOM      3  O   UNL     1       3.543   1.596  18.304  0.00  0.00    +0.000 OA
ATOM      4  N   UNL     1       4.024   3.723  19.107  0.00  0.00    +0.000 N 
ATOM      5  C   UNL     1       3.098   4.006  20.097  0.00  0.00    +0.000 C 
ATOM      6  C   UNL     1       2.483   5.187  19.876  0.00  0.00    +0.000 C 
ATOM      7  C   UNL     1       2.775   5.658  18.457  0.00  0.00    +0.000 C 
ATOM      8  C   UNL     1       1.659   5.344  17.455  0.00  0.00    +0.000 C 
ATOM      9  C   UNL     1       4.034   4.841  18.127  0.00  0.00    +0.000 C 
ENDROOT
BRANCH   1  11
ATOM     10  C   UNL     1       5.635   4.652  15.173  0.00  0.00    +0.000 C 
ATOM     11  C   UNL     1       5.551   3.730  16.375  0.00  0.00    +0.000 C 
BRANCH  11  12
ATOM     12  O   UNL     1       6.492   4.153  17.365  0.00  0.00    +0.000 OA
ATOM     13  H   UNL     1       6.376   3.600  18.160  0.00  0.00    +0.000 HD
ENDBRANCH  11  12
ENDBRANCH   1  11
BRANCH   5  14
ATOM     14  C   UNL     1       2.892   3.084  21.256  0.00  0.00    +0.000 C 
ATOM     15  O   UNL     1       1.946   3.140  22.025  0.00  0.00    +0.000 OA
BRANCH  14  16
ATOM     16  O   UNL     1       3.865   2.155  21.400  0.00  0.00    +0.000 OA
ATOM     17  H   UNL     1       3.701   1.471  22.086  0.00  0.00    +0.000 HD
ENDBRANCH  14  16
ENDBRANCH   5  14
BRANCH   6  18
ATOM     18  S   UNL     1       1.369   6.028  20.888  0.00  0.00    +0.000 S 
BRANCH  18  19
ATOM     19  C   UNL     1       1.681   7.822  20.607  0.00  0.00    +0.000 C 
ATOM     20  C   UNL     1       1.042   8.779  21.601  0.00  0.00    +0.000 C 
ATOM     21  N   UNL     1       1.087  10.104  20.970  0.00  0.00    +0.000 NA
ATOM     22  C   UNL     1       0.958   9.885  19.513  0.00  0.00    +0.000 C 
ATOM     23  C   UNL     1       1.337   8.412  19.243  0.00  0.00    +0.000 C 
ATOM     24  H   UNL     1       1.994  10.536  21.147  0.00  0.00    +0.000 HD
BRANCH  22  25
ATOM     25  C   UNL     1      -0.393  10.290  18.940  0.00  0.00    +0.000 A 
ATOM     26  C   UNL     1      -1.182  11.309  19.493  0.00  0.00    +0.000 A 
ATOM     27  C   UNL     1      -2.375  11.714  18.880  0.00  0.00    +0.000 A 
ATOM     28  C   UNL     1      -2.809  11.127  17.684  0.00  0.00    +0.000 A 
ATOM     29  C   UNL     1      -2.045  10.083  17.150  0.00  0.00    +0.000 A 
ATOM     30  C   UNL     1      -0.854   9.676  17.763  0.00  0.00    +0.000 A 
BRANCH  28  31
ATOM     31  C   UNL     1      -4.101  11.582  17.046  0.00  0.00    +0.000 C 
BRANCH  31  32
ATOM     32  N   UNL     1      -4.954  12.349  17.952  0.00  0.00    +0.000 NA
ATOM     33  H   UNL     1      -5.767  11.782  18.189  0.00  0.00    +0.000 HD
ATOM     34  H   UNL     1      -5.307  13.168  17.463  0.00  0.00    +0.000 HD
ENDBRANCH  31  32
ENDBRANCH  28  31
ENDBRANCH  22  25
ENDBRANCH  18  19
ENDBRANCH   6  18
TORSDOF 9
ENDMDL
MODEL 7
REMARK VINA RESULT:      -7.1      2.071      2.530
REMARK  Name = 
REMARK  11 active torsions:
REMARK  status: ('A' for Active; 'I' for Inactive)
REMARK    1  A    between atoms: C_1  and  C_2
REMARK    2  A    between atoms: C_2  and  O_3
REMARK    3  A    between atoms: C_2  and  C_4
REMARK    4  A    between atoms: C_8  and  C_9
REMARK    5  A    between atoms: C_9  and  O_11
REMARK    6  A    between atoms: C_12  and  S_13
REMARK    7  A    between atoms: S_13  and  C_14
REMARK    8  A    between atoms: C_17  and  C_18
REMARK    9  A    between atoms: C_21  and  C_22
REMARK   10  A    between atoms: C_22  and  N_23
REMARK   11  A    between atoms: C_27  and  C_28
REMARK                            x       y       z     vdW  Elec       q    Type
REMARK                         _______ _______ _______ _____ _____    ______ ____
ROOT
ATOM      1  C   UNL     1       4.169   5.576  17.180  0.00  0.00    +0.000 C 
ATOM      2  C   UNL     1       3.374   4.385  17.776  0.00  0.00    +0.000 C 
ATOM      3  O   UNL     1       2.753   3.424  17.372  0.00  0.00    +0.000 OA
ATOM      4  N   UNL     1       3.454   4.895  19.029  0.00  0.00    +0.000 N 
ATOM      5  C   UNL     1       2.379   5.094  19.880  0.00  0.00    +0.000 C 
ATOM      6  C   UNL     1       2.123   6.408  20.052  0.00  0.00    +0.000 C 
ATOM      7  C   UNL     1       2.885   7.219  19.012  0.00  0.00    +0.000 C 
ATOM      8  C   UNL     1       2.042   7.623  17.798  0.00  0.00    +0.000 C 
ATOM      9  C   UNL     1       3.975   6.218  18.597  0.00  0.00    +0.000 C 
ENDROOT
BRANCH   1  11
ATOM     10  C   UNL     1       6.557   6.221  17.661  0.00  0.00    +0.000 C 
ATOM     11  C   UNL     1       5.628   5.360  16.826  0.00  0.00    +0.000 C 
BRANCH  11  12
ATOM     12  O   UNL     1       5.927   3.981  17.053  0.00  0.00    +0.000 OA
ATOM     13  H   UNL     1       6.894   3.880  17.127  0.00  0.00    +0.000 HD
ENDBRANCH  11  12
ENDBRANCH   1  11
BRANCH   5  14
ATOM     14  C   UNL     1       1.669   3.944  20.519  0.00  0.00    +0.000 C 
ATOM     15  O   UNL     1       0.736   3.340  20.014  0.00  0.00    +0.000 OA
BRANCH  14  16
ATOM     16  O   UNL     1       2.146   3.614  21.741  0.00  0.00    +0.000 OA
ATOM     17  H   UNL     1       2.404   2.673  21.855  0.00  0.00    +0.000 HD
ENDBRANCH  14  16
ENDBRANCH   5  14
BRANCH   6  18
ATOM     18  S   UNL     1       0.989   7.155  21.116  0.00  0.00    +0.000 S 
BRANCH  18  19
ATOM     19  C   UNL     1       1.100   8.964  20.790  0.00  0.00    +0.000 C 
ATOM     20  C   UNL     1       1.553   9.830  21.955  0.00  0.00    +0.000 C 
ATOM     21  N   UNL     1       1.190  11.207  21.597  0.00  0.00    +0.000 NA
ATOM     22  C   UNL     1      -0.045  11.123  20.788  0.00  0.00    +0.000 C 
ATOM     23  C   UNL     1      -0.133   9.680  20.248  0.00  0.00    +0.000 C 
ATOM     24  H   UNL     1       1.923  11.615  21.018  0.00  0.00    +0.000 HD
BRANCH  22  25
ATOM     25  C   UNL     1      -1.299  11.589  21.515  0.00  0.00    +0.000 A 
ATOM     26  C   UNL     1      -1.540  11.319  22.869  0.00  0.00    +0.000 A 
ATOM     27  C   UNL     1      -2.662  11.845  23.524  0.00  0.00    +0.000 A 
ATOM     28  C   UNL     1      -3.569  12.675  22.851  0.00  0.00    +0.000 A 
ATOM     29  C   UNL     1      -3.352  12.915  21.489  0.00  0.00    +0.000 A 
ATOM     30  C   UNL     1      -2.233  12.388  20.834  0.00  0.00    +0.000 A 
BRANCH  28  31
ATOM     31  C   UNL     1      -4.770  13.226  23.581  0.00  0.00    +0.000 C 
BRANCH  31  32
ATOM     32  N   UNL     1      -5.265  12.340  24.633  0.00  0.00    +0.000 NA
ATOM     33  H   UNL     1      -6.060  12.787  25.086  0.00  0.00    +0.000 HD
ATOM     34  H   UNL     1      -4.547  12.239  25.347  0.00  0.00    +0.000 HD
ENDBRANCH  31  32
ENDBRANCH  28  31
ENDBRANCH  22  25
ENDBRANCH  18  19
ENDBRANCH   6  18
TORSDOF 9
ENDMDL
MODEL 8
REMARK VINA RESULT:      -7.0      3.944      8.810
REMARK  Name = 
REMARK  11 active torsions:
REMARK  status: ('A' for Active; 'I' for Inactive)
REMARK    1  A    between atoms: C_1  and  C_2
REMARK    2  A    between atoms: C_2  and  O_3
REMARK    3  A    between atoms: C_2  and  C_4
REMARK    4  A    between atoms: C_8  and  C_9
REMARK    5  A    between atoms: C_9  and  O_11
REMARK    6  A    between atoms: C_12  and  S_13
REMARK    7  A    between atoms: S_13  and  C_14
REMARK    8  A    between atoms: C_17  and  C_18
REMARK    9  A    between atoms: C_21  and  C_22
REMARK   10  A    between atoms: C_22  and  N_23
REMARK   11  A    between atoms: C_27  and  C_28
REMARK                            x       y       z     vdW  Elec       q    Type
REMARK                         _______ _______ _______ _____ _____    ______ ____
ROOT
ATOM      1  C   UNL     1      -1.182  11.549  18.231  0.00  0.00    +0.000 C 
ATOM      2  C   UNL     1      -1.285  11.772  19.762  0.00  0.00    +0.000 C 
ATOM      3  O   UNL     1      -1.298  12.706  20.537  0.00  0.00    +0.000 OA
ATOM      4  N   UNL     1      -1.180  10.445  20.013  0.00  0.00    +0.000 N 
ATOM      5  C   UNL     1      -0.279   9.868  20.892  0.00  0.00    +0.000 C 
ATOM      6  C   UNL     1       0.672   9.167  20.237  0.00  0.00    +0.000 C 
ATOM      7  C   UNL     1       0.626   9.508  18.753  0.00  0.00    +0.000 C 
ATOM      8  C   UNL     1       1.663  10.550  18.322  0.00  0.00    +0.000 C 
ATOM      9  C   UNL     1      -0.794  10.081  18.625  0.00  0.00    +0.000 C 
ENDROOT
BRANCH   1  11
ATOM     10  C   UNL     1      -2.917  10.253  16.941  0.00  0.00    +0.000 C 
ATOM     11  C   UNL     1      -2.453  11.621  17.407  0.00  0.00    +0.000 C 
BRANCH  11  12
ATOM     12  O   UNL     1      -3.464  12.211  18.227  0.00  0.00    +0.000 OA
ATOM     13  H   UNL     1      -4.240  12.408  17.670  0.00  0.00    +0.000 HD
ENDBRANCH  11  12
ENDBRANCH   1  11
BRANCH   5  14
ATOM     14  C   UNL     1      -0.431  10.017  22.373  0.00  0.00    +0.000 C 
ATOM     15  O   UNL     1      -0.161  11.029  22.997  0.00  0.00    +0.000 OA
BRANCH  14  16
ATOM     16  O   UNL     1      -0.900   8.909  22.991  0.00  0.00    +0.000 OA
ATOM     17  H   UNL     1      -0.383   8.087  22.839  0.00  0.00    +0.000 HD
ENDBRANCH  14  16
ENDBRANCH   5  14
BRANCH   6  18
ATOM     18  S   UNL     1       1.916   8.167  20.890  0.00  0.00    +0.000 S 
BRANCH  18  19
ATOM     19  C   UNL     1       1.737   6.530  20.065  0.00  0.00    +0.000 C 
ATOM     20  C   UNL     1       2.641   5.419  20.575  0.00  0.00    +0.000 C 
ATOM     21  N   UNL     1       2.612   4.372  19.546  0.00  0.00    +0.000 NA
ATOM     22  C   UNL     1       2.448   5.060  18.246  0.00  0.00    +0.000 C 
ATOM     23  C   UNL     1       1.880   6.464  18.548  0.00  0.00    +0.000 C 
ATOM     24  H   UNL     1       1.801   3.771  19.691  0.00  0.00    +0.000 HD
BRANCH  22  25
ATOM     25  C   UNL     1       3.703   5.072  17.385  0.00  0.00    +0.000 A 
ATOM     26  C   UNL     1       4.460   6.230  17.156  0.00  0.00    +0.000 A 
ATOM     27  C   UNL     1       5.660   6.179  16.434  0.00  0.00    +0.000 A 
ATOM     28  C   UNL     1       6.152   4.966  15.934  0.00  0.00    +0.000 A 
ATOM     29  C   UNL     1       5.380   3.815  16.128  0.00  0.00    +0.000 A 
ATOM     30  C   UNL     1       4.180   3.865  16.846  0.00  0.00    +0.000 A 
BRANCH  28  31
ATOM     31  C   UNL     1       7.448   4.942  15.158  0.00  0.00    +0.000 C 
BRANCH  31  32
ATOM     32  N   UNL     1       7.274   5.228  13.735  0.00  0.00    +0.000 NA
ATOM     33  H   UNL     1       6.353   5.639  13.598  0.00  0.00    +0.000 HD
ATOM     34  H   UNL     1       7.278   4.353  13.217  0.00  0.00    +0.000 HD
ENDBRANCH  31  32
ENDBRANCH  28  31
ENDBRANCH  22  25
ENDBRANCH  18  19
ENDBRANCH   6  18
TORSDOF 9
ENDMDL
MODEL 9
REMARK VINA RESULT:      -6.9      3.999      8.828
REMARK  Name = 
REMARK  11 active torsions:
REMARK  status: ('A' for Active; 'I' for Inactive)
REMARK    1  A    between atoms: C_1  and  C_2
REMARK    2  A    between atoms: C_2  and  O_3
REMARK    3  A    between atoms: C_2  and  C_4
REMARK    4  A    between atoms: C_8  and  C_9
REMARK    5  A    between atoms: C_9  and  O_11
REMARK    6  A    between atoms: C_12  and  S_13
REMARK    7  A    between atoms: S_13  and  C_14
REMARK    8  A    between atoms: C_17  and  C_18
REMARK    9  A    between atoms: C_21  and  C_22
REMARK   10  A    between atoms: C_22  and  N_23
REMARK   11  A    between atoms: C_27  and  C_28
REMARK                            x       y       z     vdW  Elec       q    Type
REMARK                         _______ _______ _______ _____ _____    ______ ____
ROOT
ATOM      1  C   UNL     1      -1.033  11.496  18.010  0.00  0.00    +0.000 C 
ATOM      2  C   UNL     1      -1.149  11.770  19.532  0.00  0.00    +0.000 C 
ATOM      3  O   UNL     1      -1.151  12.728  20.277  0.00  0.00    +0.000 OA
ATOM      4  N   UNL     1      -1.077  10.450  19.826  0.00  0.00    +0.000 N 
ATOM      5  C   UNL     1      -0.200   9.881  20.734  0.00  0.00    +0.000 C 
ATOM      6  C   UNL     1       0.743   9.139  20.114  0.00  0.00    +0.000 C 
ATOM      7  C   UNL     1       0.723   9.433  18.620  0.00  0.00    +0.000 C 
ATOM      8  C   UNL     1       1.788  10.438  18.169  0.00  0.00    +0.000 C 
ATOM      9  C   UNL     1      -0.683  10.033  18.455  0.00  0.00    +0.000 C 
ENDROOT
BRANCH   1  11
ATOM     10  C   UNL     1      -2.792  10.197  16.757  0.00  0.00    +0.000 C 
ATOM     11  C   UNL     1      -2.292  11.569  17.168  0.00  0.00    +0.000 C 
BRANCH  11  12
ATOM     12  O   UNL     1      -3.294  12.226  17.948  0.00  0.00    +0.000 OA
ATOM     13  H   UNL     1      -4.159  11.827  17.743  0.00  0.00    +0.000 HD
ENDBRANCH  11  12
ENDBRANCH   1  11
BRANCH   5  14
ATOM     14  C   UNL     1      -0.367  10.080  22.207  0.00  0.00    +0.000 C 
ATOM     15  O   UNL     1      -0.765   9.224  22.980  0.00  0.00    +0.000 OA
BRANCH  14  16
ATOM     16  O   UNL     1      -0.041  11.322  22.634  0.00  0.00    +0.000 OA
ATOM     17  H   UNL     1       0.543  11.359  23.423  0.00  0.00    +0.000 HD
ENDBRANCH  14  16
ENDBRANCH   5  14
BRANCH   6  18
ATOM     18  S   UNL     1       1.956   8.133  20.814  0.00  0.00    +0.000 S 
BRANCH  18  19
ATOM     19  C   UNL     1       1.755   6.477  20.034  0.00  0.00    +0.000 C 
ATOM     20  C   UNL     1       2.640   5.366  20.578  0.00  0.00    +0.000 C 
ATOM     21  N   UNL     1       2.598   4.292  19.579  0.00  0.00    +0.000 NA
ATOM     22  C   UNL     1       2.449   4.946  18.260  0.00  0.00    +0.000 C 
ATOM     23  C   UNL     1       1.902   6.366  18.520  0.00  0.00    +0.000 C 
ATOM     24  H   UNL     1       1.777   3.707  19.738  0.00  0.00    +0.000 HD
BRANCH  22  25
ATOM     25  C   UNL     1       3.708   4.915  17.404  0.00  0.00    +0.000 A 
ATOM     26  C   UNL     1       4.260   3.728  16.902  0.00  0.00    +0.000 A 
ATOM     27  C   UNL     1       5.365   3.751  16.041  0.00  0.00    +0.000 A 
ATOM     28  C   UNL     1       5.942   4.963  15.638  0.00  0.00    +0.000 A 
ATOM     29  C   UNL     1       5.418   6.148  16.168  0.00  0.00    +0.000 A 
ATOM     30  C   UNL     1       4.316   6.125  17.030  0.00  0.00    +0.000 A 
BRANCH  28  31
ATOM     31  C   UNL     1       7.134   4.958  14.710  0.00  0.00    +0.000 C 
BRANCH  31  32
ATOM     32  N   UNL     1       6.864   4.316  13.425  0.00  0.00    +0.000 NA
ATOM     33  H   UNL     1       6.269   4.932  12.874  0.00  0.00    +0.000 HD
ATOM     34  H   UNL     1       6.328   3.466  13.585  0.00  0.00    +0.000 HD
ENDBRANCH  31  32
ENDBRANCH  28  31
ENDBRANCH  22  25
ENDBRANCH  18  19
ENDBRANCH   6  18
TORSDOF 9
ENDMDL
