MODEL 1
REMARK VINA RESULT:      -7.2      0.000      0.000
REMARK  Name = 
REMARK  4 active torsions:
REMARK  status: ('A' for Active; 'I' for Inactive)
REMARK    1  A    between atoms: C_2  and  C_3
REMARK    2  A    between atoms: C_9  and  N_10
REMARK    3  A    between atoms: C_13  and  C_14
REMARK    4  A    between atoms: N_24  and  C_25
REMARK                            x       y       z     vdW  Elec       q    Type
REMARK                         _______ _______ _______ _____ _____    ______ ____
ROOT
ATOM      1  C   UNL     1      -2.114  12.235  20.126  0.00  0.00    +0.000 A 
ATOM      2  N   UNL     1      -1.974  11.827  18.896  0.00  0.00    +0.000 NA
ATOM      3  N   UNL     1      -3.100  11.735  18.182  0.00  0.00    +0.000 N 
ATOM      4  C   UNL     1      -3.169  11.237  16.909  0.00  0.00    +0.000 A 
ATOM      5  C   UNL     1      -4.496  11.181  16.544  0.00  0.00    +0.000 A 
ATOM      6  C   UNL     1      -5.243  11.692  17.632  0.00  0.00    +0.000 A 
ATOM      7 CL   UNL     1      -6.938  11.802  17.641  0.00  0.00    +0.000 Cl
ATOM      8  C   UNL     1      -4.353  12.023  18.632  0.00  0.00    +0.000 A 
ATOM      9  C   UNL     1      -4.528  12.545  19.953  0.00  0.00    +0.000 A 
ATOM     10  O   UNL     1      -5.629  12.871  20.394  0.00  0.00    +0.000 OA
ATOM     11  N   UNL     1      -3.329  12.663  20.673  0.00  0.00    +0.000 N 
ENDROOT
BRANCH  11  12
ATOM     12  C   UNL     1      -3.384  13.224  21.979  0.00  0.00    +0.000 A 
ATOM     13  C   UNL     1      -3.537  12.389  23.091  0.00  0.00    +0.000 A 
ATOM     14  C   UNL     1      -3.553  12.929  24.377  0.00  0.00    +0.000 A 
ATOM     15  C   UNL     1      -3.447  14.308  24.556  0.00  0.00    +0.000 A 
ATOM     16  C   UNL     1      -3.325  15.150  23.450  0.00  0.00    +0.000 A 
ATOM     17  C   UNL     1      -3.286  14.611  22.163  0.00  0.00    +0.000 A 
ENDBRANCH  11  12
BRANCH   1  21
ATOM     18  N   UNL     1       0.375  11.669  20.364  0.00  0.00    +0.000 N 
ATOM     19  C   UNL     1       0.943  12.958  20.161  0.00  0.00    +0.000 C 
ATOM     20  C   UNL     1      -0.031  13.489  21.214  0.00  0.00    +0.000 C 
ATOM     21  C   UNL     1      -0.793  12.155  21.057  0.00  0.00    +0.000 C 
BRANCH  18  28
ATOM     22  C   UNL     1       0.785   9.399  21.174  0.00  0.00    +0.000 A 
ATOM     23  C   UNL     1       1.311   8.161  20.879  0.00  0.00    +0.000 A 
ATOM     24  N   UNL     1       1.848   7.837  19.694  0.00  0.00    +0.000 NA
ATOM     25  C   UNL     1       1.855   8.802  18.779  0.00  0.00    +0.000 A 
ATOM     26  N   UNL     1       2.308   8.425  17.533  0.00  0.00    +0.000 N 
ATOM     27  N   UNL     1       1.448  10.067  18.980  0.00  0.00    +0.000 NA
ATOM     28  C   UNL     1       0.879  10.369  20.178  0.00  0.00    +0.000 A 
ATOM     29  H   UNL     1       2.870   7.588  17.605  0.00  0.00    +0.000 HD
ATOM     30  H   UNL     1       2.654   9.196  16.988  0.00  0.00    +0.000 HD
BRANCH  22  32
ATOM     31  C   UNL     1      -0.308   9.800  23.528  0.00  0.00    +0.000 C 
ATOM     32  C   UNL     1       0.200   9.577  22.458  0.00  0.00    +0.000 C 
ENDBRANCH  22  32
ENDBRANCH  18  28
ENDBRANCH   1  21
TORSDOF 4
ENDMDL
MODEL 2
REMARK VINA RESULT:      -7.0      2.538      4.788
REMARK  Name = 
REMARK  4 active torsions:
REMARK  status: ('A' for Active; 'I' for Inactive)
REMARK    1  A    between atoms: C_2  and  C_3
REMARK    2  A    between atoms: C_9  and  N_10
REMARK    3  A    between atoms: C_13  and  C_14
REMARK    4  A    between atoms: N_24  and  C_25
REMARK                            x       y       z     vdW  Elec       q    Type
REMARK                         _______ _______ _______ _____ _____    ______ ____
ROOT
ATOM      1  C   UNL     1      -4.465  13.943  21.584  0.00  0.00    +0.000 A 
ATOM      2  N   UNL     1      -4.100  15.064  22.140  0.00  0.00    +0.000 NA
ATOM      3  N   UNL     1      -4.553  16.178  21.556  0.00  0.00    +0.000 N 
ATOM      4  C   UNL     1      -4.202  17.445  21.934  0.00  0.00    +0.000 A 
ATOM      5  C   UNL     1      -4.759  18.328  21.036  0.00  0.00    +0.000 A 
ATOM      6  C   UNL     1      -5.493  17.556  20.103  0.00  0.00    +0.000 A 
ATOM      7 CL   UNL     1      -6.344  18.222  18.792  0.00  0.00    +0.000 Cl
ATOM      8  C   UNL     1      -5.344  16.229  20.448  0.00  0.00    +0.000 A 
ATOM      9  C   UNL     1      -5.823  15.014  19.862  0.00  0.00    +0.000 A 
ATOM     10  O   UNL     1      -6.580  15.002  18.894  0.00  0.00    +0.000 OA
ATOM     11  N   UNL     1      -5.360  13.859  20.510  0.00  0.00    +0.000 N 
ENDROOT
BRANCH  11  12
ATOM     12  C   UNL     1      -5.820  12.598  20.042  0.00  0.00    +0.000 A 
ATOM     13  C   UNL     1      -6.879  11.956  20.694  0.00  0.00    +0.000 A 
ATOM     14  C   UNL     1      -7.360  10.737  20.217  0.00  0.00    +0.000 A 
ATOM     15  C   UNL     1      -6.767  10.138  19.106  0.00  0.00    +0.000 A 
ATOM     16  C   UNL     1      -5.691  10.757  18.469  0.00  0.00    +0.000 A 
ATOM     17  C   UNL     1      -5.221  11.988  18.931  0.00  0.00    +0.000 A 
ENDBRANCH  11  12
BRANCH   1  21
ATOM     18  N   UNL     1      -2.340  12.548  21.913  0.00  0.00    +0.000 N 
ATOM     19  C   UNL     1      -1.976  12.955  23.226  0.00  0.00    +0.000 C 
ATOM     20  C   UNL     1      -3.410  12.647  23.658  0.00  0.00    +0.000 C 
ATOM     21  C   UNL     1      -3.761  12.603  22.154  0.00  0.00    +0.000 C 
BRANCH  18  28
ATOM     22  C   UNL     1      -0.723  10.959  20.997  0.00  0.00    +0.000 A 
ATOM     23  C   UNL     1      -0.046  10.541  19.872  0.00  0.00    +0.000 A 
ATOM     24  N   UNL     1      -0.219  11.072  18.653  0.00  0.00    +0.000 NA
ATOM     25  C   UNL     1      -1.104  12.062  18.572  0.00  0.00    +0.000 A 
ATOM     26  N   UNL     1      -1.352  12.524  17.298  0.00  0.00    +0.000 N 
ATOM     27  N   UNL     1      -1.758  12.606  19.613  0.00  0.00    +0.000 NA
ATOM     28  C   UNL     1      -1.593  12.036  20.836  0.00  0.00    +0.000 A 
ATOM     29  H   UNL     1      -0.589  12.278  16.683  0.00  0.00    +0.000 HD
ATOM     30  H   UNL     1      -1.706  13.465  17.280  0.00  0.00    +0.000 HD
BRANCH  22  32
ATOM     31  C   UNL     1      -0.249   9.609  23.199  0.00  0.00    +0.000 C 
ATOM     32  C   UNL     1      -0.473  10.262  22.211  0.00  0.00    +0.000 C 
ENDBRANCH  22  32
ENDBRANCH  18  28
ENDBRANCH   1  21
TORSDOF 4
ENDMDL
MODEL 3
REMARK VINA RESULT:      -6.8      2.928      6.392
REMARK  Name = 
REMARK  4 active torsions:
REMARK  status: ('A' for Active; 'I' for Inactive)
REMARK    1  A    between atoms: C_2  and  C_3
REMARK    2  A    between atoms: C_9  and  N_10
REMARK    3  A    between atoms: C_13  and  C_14
REMARK    4  A    between atoms: N_24  and  C_25
REMARK                            x       y       z     vdW  Elec       q    Type
REMARK                         _______ _______ _______ _____ _____    ______ ____
ROOT
ATOM      1  C   UNL     1      -3.042  13.604  20.887  0.00  0.00    +0.000 A 
ATOM      2  N   UNL     1      -1.825  13.157  20.756  0.00  0.00    +0.000 NA
ATOM      3  N   UNL     1      -1.646  12.221  19.819  0.00  0.00    +0.000 N 
ATOM      4  C   UNL     1      -0.466  11.564  19.598  0.00  0.00    +0.000 A 
ATOM      5  C   UNL     1      -0.689  10.592  18.649  0.00  0.00    +0.000 A 
ATOM      6  C   UNL     1      -2.050  10.694  18.269  0.00  0.00    +0.000 A 
ATOM      7 CL   UNL     1      -2.787   9.678  17.125  0.00  0.00    +0.000 Cl
ATOM      8  C   UNL     1      -2.617  11.707  19.013  0.00  0.00    +0.000 A 
ATOM      9  C   UNL     1      -3.946  12.233  19.082  0.00  0.00    +0.000 A 
ATOM     10  O   UNL     1      -4.849  11.845  18.344  0.00  0.00    +0.000 OA
ATOM     11  N   UNL     1      -4.103  13.237  20.051  0.00  0.00    +0.000 N 
ENDROOT
BRANCH  11  12
ATOM     12  C   UNL     1      -5.373  13.866  20.164  0.00  0.00    +0.000 A 
ATOM     13  C   UNL     1      -6.516  13.094  20.399  0.00  0.00    +0.000 A 
ATOM     14  C   UNL     1      -7.758  13.709  20.548  0.00  0.00    +0.000 A 
ATOM     15  C   UNL     1      -7.871  15.094  20.435  0.00  0.00    +0.000 A 
ATOM     16  C   UNL     1      -6.740  15.868  20.171  0.00  0.00    +0.000 A 
ATOM     17  C   UNL     1      -5.491  15.258  20.042  0.00  0.00    +0.000 A 
ENDBRANCH  11  12
BRANCH   1  21
ATOM     18  N   UNL     1      -3.927  13.921  23.272  0.00  0.00    +0.000 N 
ATOM     19  C   UNL     1      -2.718  13.773  24.007  0.00  0.00    +0.000 C 
ATOM     20  C   UNL     1      -2.088  14.801  23.066  0.00  0.00    +0.000 C 
ATOM     21  C   UNL     1      -3.309  14.581  22.148  0.00  0.00    +0.000 C 
BRANCH  18  28
ATOM     22  C   UNL     1      -6.131  14.791  23.872  0.00  0.00    +0.000 A 
ATOM     23  C   UNL     1      -7.433  14.476  24.195  0.00  0.00    +0.000 A 
ATOM     24  N   UNL     1      -7.917  13.226  24.221  0.00  0.00    +0.000 NA
ATOM     25  C   UNL     1      -7.052  12.264  23.913  0.00  0.00    +0.000 A 
ATOM     26  N   UNL     1      -7.588  10.997  23.836  0.00  0.00    +0.000 N 
ATOM     27  N   UNL     1      -5.743  12.445  23.665  0.00  0.00    +0.000 NA
ATOM     28  C   UNL     1      -5.276  13.721  23.614  0.00  0.00    +0.000 A 
ATOM     29  H   UNL     1      -8.457  10.954  24.349  0.00  0.00    +0.000 HD
ATOM     30  H   UNL     1      -6.906  10.270  23.975  0.00  0.00    +0.000 HD
BRANCH  22  32
ATOM     31  C   UNL     1      -5.410  17.315  23.778  0.00  0.00    +0.000 C 
ATOM     32  C   UNL     1      -5.778  16.168  23.834  0.00  0.00    +0.000 C 
ENDBRANCH  22  32
ENDBRANCH  18  28
ENDBRANCH   1  21
TORSDOF 4
ENDMDL
MODEL 4
REMARK VINA RESULT:      -6.8      2.330      3.589
REMARK  Name = 
REMARK  4 active torsions:
REMARK  status: ('A' for Active; 'I' for Inactive)
REMARK    1  A    between atoms: C_2  and  C_3
REMARK    2  A    between atoms: C_9  and  N_10
REMARK    3  A    between atoms: C_13  and  C_14
REMARK    4  A    between atoms: N_24  and  C_25
REMARK                            x       y       z     vdW  Elec       q    Type
REMARK                         _______ _______ _______ _____ _____    ______ ____
ROOT
ATOM      1  C   UNL     1      -3.628  12.234  19.335  0.00  0.00    +0.000 A 
ATOM      2  N   UNL     1      -4.682  11.726  18.760  0.00  0.00    +0.000 NA
ATOM      3  N   UNL     1      -5.805  11.740  19.487  0.00  0.00    +0.000 N 
ATOM      4  C   UNL     1      -6.986  11.170  19.095  0.00  0.00    +0.000 A 
ATOM      5  C   UNL     1      -7.876  11.272  20.141  0.00  0.00    +0.000 A 
ATOM      6  C   UNL     1      -7.207  11.955  21.185  0.00  0.00    +0.000 A 
ATOM      7 CL   UNL     1      -7.914  12.299  22.691  0.00  0.00    +0.000 Cl
ATOM      8  C   UNL     1      -5.926  12.229  20.752  0.00  0.00    +0.000 A 
ATOM      9  C   UNL     1      -4.805  12.861  21.379  0.00  0.00    +0.000 A 
ATOM     10  O   UNL     1      -4.870  13.364  22.498  0.00  0.00    +0.000 OA
ATOM     11  N   UNL     1      -3.647  12.862  20.586  0.00  0.00    +0.000 N 
ENDROOT
BRANCH  11  12
ATOM     12  C   UNL     1      -2.488  13.514  21.091  0.00  0.00    +0.000 A 
ATOM     13  C   UNL     1      -1.821  12.987  22.202  0.00  0.00    +0.000 A 
ATOM     14  C   UNL     1      -0.663  13.601  22.680  0.00  0.00    +0.000 A 
ATOM     15  C   UNL     1      -0.183  14.759  22.070  0.00  0.00    +0.000 A 
ATOM     16  C   UNL     1      -0.861  15.307  20.980  0.00  0.00    +0.000 A 
ATOM     17  C   UNL     1      -2.009  14.684  20.485  0.00  0.00    +0.000 A 
ENDBRANCH  11  12
BRANCH   1  21
ATOM     18  N   UNL     1      -1.484  10.875  18.974  0.00  0.00    +0.000 N 
ATOM     19  C   UNL     1      -1.885  10.066  17.875  0.00  0.00    +0.000 C 
ATOM     20  C   UNL     1      -2.347  11.345  17.175  0.00  0.00    +0.000 C 
ATOM     21  C   UNL     1      -2.227  12.037  18.550  0.00  0.00    +0.000 C 
BRANCH  18  28
ATOM     22  C   UNL     1       0.674  11.418  19.985  0.00  0.00    +0.000 A 
ATOM     23  C   UNL     1       1.544  11.164  21.024  0.00  0.00    +0.000 A 
ATOM     24  N   UNL     1       1.281  10.319  22.030  0.00  0.00    +0.000 NA
ATOM     25  C   UNL     1       0.101   9.708  21.982  0.00  0.00    +0.000 A 
ATOM     26  N   UNL     1      -0.202   8.928  23.077  0.00  0.00    +0.000 N 
ATOM     27  N   UNL     1      -0.788   9.815  20.979  0.00  0.00    +0.000 NA
ATOM     28  C   UNL     1      -0.519  10.698  19.981  0.00  0.00    +0.000 A 
ATOM     29  H   UNL     1       0.644   8.678  23.570  0.00  0.00    +0.000 HD
ATOM     30  H   UNL     1      -0.878   8.211  22.877  0.00  0.00    +0.000 HD
BRANCH  22  32
ATOM     31  C   UNL     1       1.404  13.251  18.252  0.00  0.00    +0.000 C 
ATOM     32  C   UNL     1       1.070  12.382  19.018  0.00  0.00    +0.000 C 
ENDBRANCH  22  32
ENDBRANCH  18  28
ENDBRANCH   1  21
TORSDOF 4
ENDMDL
MODEL 5
REMARK VINA RESULT:      -6.7      2.735      5.019
REMARK  Name = 
REMARK  4 active torsions:
REMARK  status: ('A' for Active; 'I' for Inactive)
REMARK    1  A    between atoms: C_2  and  C_3
REMARK    2  A    between atoms: C_9  and  N_10
REMARK    3  A    between atoms: C_13  and  C_14
REMARK    4  A    between atoms: N_24  and  C_25
REMARK                            x       y       z     vdW  Elec       q    Type
REMARK                         _______ _______ _______ _____ _____    ______ ____
ROOT
ATOM      1  C   UNL     1      -1.176  13.024  20.428  0.00  0.00    +0.000 A 
ATOM      2  N   UNL     1      -2.332  12.759  20.968  0.00  0.00    +0.000 NA
ATOM      3  N   UNL     1      -2.544  13.287  22.178  0.00  0.00    +0.000 N 
ATOM      4  C   UNL     1      -3.653  13.044  22.943  0.00  0.00    +0.000 A 
ATOM      5  C   UNL     1      -3.469  13.651  24.165  0.00  0.00    +0.000 A 
ATOM      6  C   UNL     1      -2.214  14.304  24.115  0.00  0.00    +0.000 A 
ATOM      7 CL   UNL     1      -1.554  15.179  25.413  0.00  0.00    +0.000 Cl
ATOM      8  C   UNL     1      -1.664  14.058  22.874  0.00  0.00    +0.000 A 
ATOM      9  C   UNL     1      -0.418  14.428  22.274  0.00  0.00    +0.000 A 
ATOM     10  O   UNL     1       0.393  15.163  22.835  0.00  0.00    +0.000 OA
ATOM     11  N   UNL     1      -0.230  13.888  20.992  0.00  0.00    +0.000 N 
ENDROOT
BRANCH  11  12
ATOM     12  C   UNL     1       0.951  14.239  20.283  0.00  0.00    +0.000 A 
ATOM     13  C   UNL     1       0.930  15.303  19.375  0.00  0.00    +0.000 A 
ATOM     14  C   UNL     1       2.095  15.676  18.705  0.00  0.00    +0.000 A 
ATOM     15  C   UNL     1       3.278  14.970  18.915  0.00  0.00    +0.000 A 
ATOM     16  C   UNL     1       3.300  13.888  19.796  0.00  0.00    +0.000 A 
ATOM     17  C   UNL     1       2.141  13.525  20.485  0.00  0.00    +0.000 A 
ENDBRANCH  11  12
BRANCH   1  21
ATOM     18  N   UNL     1      -0.846  10.792  19.210  0.00  0.00    +0.000 N 
ATOM     19  C   UNL     1      -2.139  10.627  18.641  0.00  0.00    +0.000 C 
ATOM     20  C   UNL     1      -2.020  12.050  18.097  0.00  0.00    +0.000 C 
ATOM     21  C   UNL     1      -0.829  12.227  19.063  0.00  0.00    +0.000 C 
BRANCH  18  28
ATOM     22  C   UNL     1       0.355   9.478  20.885  0.00  0.00    +0.000 A 
ATOM     23  C   UNL     1       1.369   8.573  21.112  0.00  0.00    +0.000 A 
ATOM     24  N   UNL     1       2.123   8.033  20.144  0.00  0.00    +0.000 NA
ATOM     25  C   UNL     1       1.842   8.425  18.905  0.00  0.00    +0.000 A 
ATOM     26  N   UNL     1       2.548   7.781  17.912  0.00  0.00    +0.000 N 
ATOM     27  N   UNL     1       0.935   9.361  18.572  0.00  0.00    +0.000 NA
ATOM     28  C   UNL     1       0.161   9.876  19.563  0.00  0.00    +0.000 A 
ATOM     29  H   UNL     1       3.389   7.371  18.293  0.00  0.00    +0.000 HD
ATOM     30  H   UNL     1       2.610   8.314  17.061  0.00  0.00    +0.000 HD
BRANCH  22  32
ATOM     31  C   UNL     1      -0.965  10.298  23.001  0.00  0.00    +0.000 C 
ATOM     32  C   UNL     1      -0.394   9.922  22.009  0.00  0.00    +0.000 C 
ENDBRANCH  22  32
ENDBRANCH  18  28
ENDBRANCH   1  21
TORSDOF 4
ENDMDL
MODEL 6
REMARK VINA RESULT:      -6.6      2.229      3.422
REMARK  Name = 
REMARK  4 active torsions:
REMARK  status: ('A' for Active; 'I' for Inactive)
REMARK    1  A    between atoms: C_2  and  C_3
REMARK    2  A    between atoms: C_9  and  N_10
REMARK    3  A    between atoms: C_13  and  C_14
REMARK    4  A    between atoms: N_24  and  C_25
REMARK                            x       y       z     vdW  Elec       q    Type
REMARK                         _______ _______ _______ _____ _____    ______ ____
ROOT
ATOM      1  C   UNL     1      -3.145  12.198  19.411  0.00  0.00    +0.000 A 
ATOM      2  N   UNL     1      -4.120  11.591  18.795  0.00  0.00    +0.000 NA
ATOM      3  N   UNL     1      -5.316  11.662  19.386  0.00  0.00    +0.000 N 
ATOM      4  C   UNL     1      -6.437  11.012  18.945  0.00  0.00    +0.000 A 
ATOM      5  C   UNL     1      -7.440  11.218  19.864  0.00  0.00    +0.000 A 
ATOM      6  C   UNL     1      -6.904  12.048  20.878  0.00  0.00    +0.000 A 
ATOM      7 CL   UNL     1      -7.782  12.557  22.240  0.00  0.00    +0.000 Cl
ATOM      8  C   UNL     1      -5.588  12.303  20.557  0.00  0.00    +0.000 A 
ATOM      9  C   UNL     1      -4.554  13.043  21.216  0.00  0.00    +0.000 A 
ATOM     10  O   UNL     1      -4.753  13.682  22.247  0.00  0.00    +0.000 OA
ATOM     11  N   UNL     1      -3.314  12.979  20.561  0.00  0.00    +0.000 N 
ENDROOT
BRANCH  11  12
ATOM     12  C   UNL     1      -2.231  13.725  21.102  0.00  0.00    +0.000 A 
ATOM     13  C   UNL     1      -1.486  13.201  22.165  0.00  0.00    +0.000 A 
ATOM     14  C   UNL     1      -0.399  13.911  22.675  0.00  0.00    +0.000 A 
ATOM     15  C   UNL     1      -0.069  15.158  22.148  0.00  0.00    +0.000 A 
ATOM     16  C   UNL     1      -0.826  15.700  21.108  0.00  0.00    +0.000 A 
ATOM     17  C   UNL     1      -1.902  14.984  20.580  0.00  0.00    +0.000 A 
ENDBRANCH  11  12
BRANCH   1  21
ATOM     18  N   UNL     1      -1.176  10.604  19.020  0.00  0.00    +0.000 N 
ATOM     19  C   UNL     1      -1.470  10.166  17.699  0.00  0.00    +0.000 C 
ATOM     20  C   UNL     1      -1.614  11.637  17.305  0.00  0.00    +0.000 C 
ATOM     21  C   UNL     1      -1.661  11.947  18.817  0.00  0.00    +0.000 C 
BRANCH  18  28
ATOM     22  C   UNL     1       0.788   9.416  19.863  0.00  0.00    +0.000 A 
ATOM     23  C   UNL     1       1.408   8.881  20.971  0.00  0.00    +0.000 A 
ATOM     24  N   UNL     1       0.917   8.957  22.215  0.00  0.00    +0.000 NA
ATOM     25  C   UNL     1      -0.243   9.595  22.342  0.00  0.00    +0.000 A 
ATOM     26  N   UNL     1      -0.682   9.762  23.638  0.00  0.00    +0.000 N 
ATOM     27  N   UNL     1      -0.978  10.081  21.326  0.00  0.00    +0.000 NA
ATOM     28  C   UNL     1      -0.450  10.021  20.075  0.00  0.00    +0.000 A 
ATOM     29  H   UNL     1      -0.235   9.090  24.246  0.00  0.00    +0.000 HD
ATOM     30  H   UNL     1      -1.677   9.891  23.705  0.00  0.00    +0.000 HD
BRANCH  22  32
ATOM     31  C   UNL     1       1.964   9.175  17.528  0.00  0.00    +0.000 C 
ATOM     32  C   UNL     1       1.458   9.303  18.614  0.00  0.00    +0.000 C 
ENDBRANCH  22  32
ENDBRANCH  18  28
ENDBRANCH   1  21
TORSDOF 4
ENDMDL
MODEL 7
REMARK VINA RESULT:      -6.5      7.531      9.576
REMARK  Name = 
REMARK  4 active torsions:
REMARK  status: ('A' for Active; 'I' for Inactive)
REMARK    1  A    between atoms: C_2  and  C_3
REMARK    2  A    between atoms: C_9  and  N_10
REMARK    3  A    between atoms: C_13  and  C_14
REMARK    4  A    between atoms: N_24  and  C_25
REMARK                            x       y       z     vdW  Elec       q    Type
REMARK                         _______ _______ _______ _____ _____    ______ ____
ROOT
ATOM      1  C   UNL     1       6.216  15.573  19.987  0.00  0.00    +0.000 A 
ATOM      2  N   UNL     1       5.413  15.932  19.025  0.00  0.00    +0.000 NA
ATOM      3  N   UNL     1       4.150  15.508  19.132  0.00  0.00    +0.000 N 
ATOM      4  C   UNL     1       3.187  15.700  18.179  0.00  0.00    +0.000 A 
ATOM      5  C   UNL     1       2.054  15.024  18.575  0.00  0.00    +0.000 A 
ATOM      6  C   UNL     1       2.347  14.430  19.827  0.00  0.00    +0.000 A 
ATOM      7 CL   UNL     1       1.243  13.477  20.698  0.00  0.00    +0.000 Cl
ATOM      8  C   UNL     1       3.652  14.744  20.144  0.00  0.00    +0.000 A 
ATOM      9  C   UNL     1       4.491  14.399  21.251  0.00  0.00    +0.000 A 
ATOM     10  O   UNL     1       4.081  13.756  22.215  0.00  0.00    +0.000 OA
ATOM     11  N   UNL     1       5.803  14.882  21.132  0.00  0.00    +0.000 N 
ENDROOT
BRANCH  11  12
ATOM     12  C   UNL     1       6.706  14.643  22.204  0.00  0.00    +0.000 A 
ATOM     13  C   UNL     1       7.287  13.379  22.358  0.00  0.00    +0.000 A 
ATOM     14  C   UNL     1       8.201  13.149  23.386  0.00  0.00    +0.000 A 
ATOM     15  C   UNL     1       8.517  14.169  24.282  0.00  0.00    +0.000 A 
ATOM     16  C   UNL     1       7.919  15.423  24.153  0.00  0.00    +0.000 A 
ATOM     17  C   UNL     1       7.019  15.664  23.112  0.00  0.00    +0.000 A 
ENDBRANCH  11  12
BRANCH   1  21
ATOM     18  N   UNL     1       8.461  14.961  18.909  0.00  0.00    +0.000 N 
ATOM     19  C   UNL     1       8.415  15.789  17.754  0.00  0.00    +0.000 C 
ATOM     20  C   UNL     1       8.075  16.960  18.676  0.00  0.00    +0.000 C 
ATOM     21  C   UNL     1       7.784  15.905  19.765  0.00  0.00    +0.000 C 
BRANCH  18  28
ATOM     22  C   UNL     1      10.108  13.683  20.186  0.00  0.00    +0.000 A 
ATOM     23  C   UNL     1      10.700  12.454  20.375  0.00  0.00    +0.000 A 
ATOM     24  N   UNL     1      10.358  11.346  19.702  0.00  0.00    +0.000 NA
ATOM     25  C   UNL     1       9.387  11.489  18.806  0.00  0.00    +0.000 A 
ATOM     26  N   UNL     1       8.970  10.323  18.201  0.00  0.00    +0.000 N 
ATOM     27  N   UNL     1       8.797  12.652  18.478  0.00  0.00    +0.000 NA
ATOM     28  C   UNL     1       9.135  13.759  19.191  0.00  0.00    +0.000 A 
ATOM     29  H   UNL     1       9.685   9.614  18.282  0.00  0.00    +0.000 HD
ATOM     30  H   UNL     1       8.536  10.474  17.306  0.00  0.00    +0.000 HD
BRANCH  22  32
ATOM     31  C   UNL     1      10.834  15.681  21.728  0.00  0.00    +0.000 C 
ATOM     32  C   UNL     1      10.540  14.756  21.014  0.00  0.00    +0.000 C 
ENDBRANCH  22  32
ENDBRANCH  18  28
ENDBRANCH   1  21
TORSDOF 4
ENDMDL
MODEL 8
REMARK VINA RESULT:      -6.5      8.072     10.067
REMARK  Name = 
REMARK  4 active torsions:
REMARK  status: ('A' for Active; 'I' for Inactive)
REMARK    1  A    between atoms: C_2  and  C_3
REMARK    2  A    between atoms: C_9  and  N_10
REMARK    3  A    between atoms: C_13  and  C_14
REMARK    4  A    between atoms: N_24  and  C_25
REMARK                            x       y       z     vdW  Elec       q    Type
REMARK                         _______ _______ _______ _____ _____    ______ ____
ROOT
ATOM      1  C   UNL     1       7.118  14.522  21.192  0.00  0.00    +0.000 A 
ATOM      2  N   UNL     1       6.948  15.222  20.105  0.00  0.00    +0.000 NA
ATOM      3  N   UNL     1       5.680  15.498  19.784  0.00  0.00    +0.000 N 
ATOM      4  C   UNL     1       5.296  16.135  18.635  0.00  0.00    +0.000 A 
ATOM      5  C   UNL     1       3.920  16.134  18.587  0.00  0.00    +0.000 A 
ATOM      6  C   UNL     1       3.468  15.496  19.767  0.00  0.00    +0.000 A 
ATOM      7 CL   UNL     1       1.828  15.249  20.135  0.00  0.00    +0.000 Cl
ATOM      8  C   UNL     1       4.580  15.110  20.486  0.00  0.00    +0.000 A 
ATOM      9  C   UNL     1       4.740  14.407  21.723  0.00  0.00    +0.000 A 
ATOM     10  O   UNL     1       3.785  14.077  22.423  0.00  0.00    +0.000 OA
ATOM     11  N   UNL     1       6.080  14.156  22.055  0.00  0.00    +0.000 N 
ENDROOT
BRANCH  11  12
ATOM     12  C   UNL     1       6.354  13.511  23.293  0.00  0.00    +0.000 A 
ATOM     13  C   UNL     1       6.555  12.127  23.329  0.00  0.00    +0.000 A 
ATOM     14  C   UNL     1       6.860  11.494  24.533  0.00  0.00    +0.000 A 
ATOM     15  C   UNL     1       6.938  12.234  25.712  0.00  0.00    +0.000 A 
ATOM     16  C   UNL     1       6.709  13.611  25.689  0.00  0.00    +0.000 A 
ATOM     17  C   UNL     1       6.423  14.252  24.481  0.00  0.00    +0.000 A 
ENDBRANCH  11  12
BRANCH   1  21
ATOM     18  N   UNL     1       9.607  14.562  20.577  0.00  0.00    +0.000 N 
ATOM     19  C   UNL     1      10.073  15.547  21.491  0.00  0.00    +0.000 C 
ATOM     20  C   UNL     1       9.365  14.770  22.601  0.00  0.00    +0.000 C 
ATOM     21  C   UNL     1       8.626  14.010  21.479  0.00  0.00    +0.000 C 
BRANCH  18  28
ATOM     22  C   UNL     1      10.181  12.762  19.026  0.00  0.00    +0.000 A 
ATOM     23  C   UNL     1      10.665  12.445  17.775  0.00  0.00    +0.000 A 
ATOM     24  N   UNL     1      10.993  13.353  16.846  0.00  0.00    +0.000 NA
ATOM     25  C   UNL     1      10.829  14.626  17.196  0.00  0.00    +0.000 A 
ATOM     26  N   UNL     1      11.064  15.544  16.197  0.00  0.00    +0.000 N 
ATOM     27  N   UNL     1      10.446  15.054  18.412  0.00  0.00    +0.000 NA
ATOM     28  C   UNL     1      10.089  14.119  19.332  0.00  0.00    +0.000 A 
ATOM     29  H   UNL     1      11.641  15.134  15.476  0.00  0.00    +0.000 HD
ATOM     30  H   UNL     1      11.300  16.458  16.546  0.00  0.00    +0.000 HD
BRANCH  22  32
ATOM     31  C   UNL     1       9.451  10.798  20.609  0.00  0.00    +0.000 C 
ATOM     32  C   UNL     1       9.825  11.687  19.886  0.00  0.00    +0.000 C 
ENDBRANCH  22  32
ENDBRANCH  18  28
ENDBRANCH   1  21
TORSDOF 4
ENDMDL
MODEL 9
REMARK VINA RESULT:      -6.5      3.708      6.973
REMARK  Name = 
REMARK  4 active torsions:
REMARK  status: ('A' for Active; 'I' for Inactive)
REMARK    1  A    between atoms: C_2  and  C_3
REMARK    2  A    between atoms: C_9  and  N_10
REMARK    3  A    between atoms: C_13  and  C_14
REMARK    4  A    between atoms: N_24  and  C_25
REMARK                            x       y       z     vdW  Elec       q    Type
REMARK                         _______ _______ _______ _____ _____    ______ ____
ROOT
ATOM      1  C   UNL     1      -0.761  13.435  22.285  0.00  0.00    +0.000 A 
ATOM      2  N   UNL     1      -0.987  12.396  23.038  0.00  0.00    +0.000 NA
ATOM      3  N   UNL     1      -0.505  11.234  22.587  0.00  0.00    +0.000 N 
ATOM      4  C   UNL     1      -0.722  10.023  23.186  0.00  0.00    +0.000 A 
ATOM      5  C   UNL     1      -0.183   9.045  22.380  0.00  0.00    +0.000 A 
ATOM      6  C   UNL     1       0.402   9.704  21.271  0.00  0.00    +0.000 A 
ATOM      7 CL   UNL     1       1.178   8.893  19.997  0.00  0.00    +0.000 Cl
ATOM      8  C   UNL     1       0.183  11.057  21.425  0.00  0.00    +0.000 A 
ATOM      9  C   UNL     1       0.512  12.191  20.616  0.00  0.00    +0.000 A 
ATOM     10  O   UNL     1       1.175  12.097  19.585  0.00  0.00    +0.000 OA
ATOM     11  N   UNL     1       0.023  13.404  21.126  0.00  0.00    +0.000 N 
ENDROOT
BRANCH  11  12
ATOM     12  C   UNL     1       0.341  14.601  20.427  0.00  0.00    +0.000 A 
ATOM     13  C   UNL     1      -0.461  15.019  19.359  0.00  0.00    +0.000 A 
ATOM     14  C   UNL     1      -0.177  16.211  18.694  0.00  0.00    +0.000 A 
ATOM     15  C   UNL     1       0.926  16.976  19.072  0.00  0.00    +0.000 A 
ATOM     16  C   UNL     1       1.747  16.551  20.117  0.00  0.00    +0.000 A 
ATOM     17  C   UNL     1       1.454  15.368  20.799  0.00  0.00    +0.000 A 
ENDBRANCH  11  12
BRANCH   1  21
ATOM     18  N   UNL     1      -2.607  14.599  23.631  0.00  0.00    +0.000 N 
ATOM     19  C   UNL     1      -1.870  14.975  24.788  0.00  0.00    +0.000 C 
ATOM     20  C   UNL     1      -0.825  15.586  23.855  0.00  0.00    +0.000 C 
ATOM     21  C   UNL     1      -1.511  14.803  22.715  0.00  0.00    +0.000 C 
BRANCH  18  28
ATOM     22  C   UNL     1      -4.956  15.232  23.868  0.00  0.00    +0.000 A 
ATOM     23  C   UNL     1      -6.263  14.891  23.596  0.00  0.00    +0.000 A 
ATOM     24  N   UNL     1      -6.623  13.810  22.889  0.00  0.00    +0.000 NA
ATOM     25  C   UNL     1      -5.626  13.048  22.447  0.00  0.00    +0.000 A 
ATOM     26  N   UNL     1      -6.004  12.005  21.631  0.00  0.00    +0.000 N 
ATOM     27  N   UNL     1      -4.324  13.237  22.721  0.00  0.00    +0.000 NA
ATOM     28  C   UNL     1      -3.975  14.353  23.414  0.00  0.00    +0.000 A 
ATOM     29  H   UNL     1      -6.980  11.785  21.774  0.00  0.00    +0.000 HD
ATOM     30  H   UNL     1      -5.335  11.253  21.614  0.00  0.00    +0.000 HD
BRANCH  22  32
ATOM     31  C   UNL     1      -4.598  17.490  25.161  0.00  0.00    +0.000 C 
ATOM     32  C   UNL     1      -4.728  16.439  24.585  0.00  0.00    +0.000 C 
ENDBRANCH  22  32
ENDBRANCH  18  28
ENDBRANCH   1  21
TORSDOF 4
ENDMDL
