MODEL 1
REMARK VINA RESULT:      -7.4      0.000      0.000
REMARK  Name = 
REMARK  13 active torsions:
REMARK  status: ('A' for Active; 'I' for Inactive)
REMARK    1  A    between atoms: C_1  and  C_2
REMARK    2  A    between atoms: C_2  and  O_3
REMARK    3  A    between atoms: O_3  and  C_4
REMARK    4  A    between atoms: C_4  and  C_6
REMARK    5  A    between atoms: C_6  and  C_7
REMARK    6  A    between atoms: C_8  and  C_9
REMARK    7  A    between atoms: C_9  and  C_10
REMARK    8  A    between atoms: C_11  and  C_12
REMARK    9  A    between atoms: C_12  and  O_14
REMARK   10  A    between atoms: O_14  and  C_15
REMARK   11  A    between atoms: C_15  and  C_16
REMARK   12  A    between atoms: N_18  and  C_19
REMARK   13  A    between atoms: C_19  and  C_20
REMARK                            x       y       z     vdW  Elec       q    Type
REMARK                         _______ _______ _______ _____ _____    ______ ____
ROOT
ATOM      1  C   UNL     1       3.879   4.525  17.754  0.00  0.00    +0.000 A 
ATOM      2  C   UNL     1       5.149   4.475  17.185  0.00  0.00    +0.000 A 
ATOM      3  C   UNL     1       6.057   5.107  18.102  0.00  0.00    +0.000 A 
ATOM      4  C   UNL     1       5.283   5.576  19.149  0.00  0.00    +0.000 A 
ATOM      5  N   UNL     1       3.973   5.229  18.938  0.00  0.00    +0.000 N 
ENDROOT
BRANCH   2   6
ATOM      6  C   UNL     1       5.490   3.888  15.845  0.00  0.00    +0.000 C 
ATOM      7  C   UNL     1       5.636   4.931  14.749  0.00  0.00    +0.000 C 
ENDBRANCH   2   6
BRANCH   3   8
ATOM      8  C   UNL     1       7.510   5.233  18.002  0.00  0.00    +0.000 C 
ATOM      9  O   UNL     1       8.296   4.395  18.428  0.00  0.00    +0.000 OA
BRANCH   8  10
ATOM     10  O   UNL     1       7.887   6.433  17.463  0.00  0.00    +0.000 OA
BRANCH  10  11
ATOM     11  C   UNL     1       8.195   7.462  18.412  0.00  0.00    +0.000 C 
ATOM     12  C   UNL     1       7.928   8.804  17.754  0.00  0.00    +0.000 C 
ENDBRANCH  10  11
ENDBRANCH   8  10
ENDBRANCH   3   8
BRANCH   1  13
ATOM     13  C   UNL     1       2.590   3.964  17.223  0.00  0.00    +0.000 C 
BRANCH  13  14
ATOM     14  C   UNL     1       2.252   2.627  17.856  0.00  0.00    +0.000 C 
ATOM     15  O   UNL     1       2.988   1.653  17.934  0.00  0.00    +0.000 OA
BRANCH  14  16
ATOM     16  O   UNL     1       0.942   2.644  18.248  0.00  0.00    +0.000 OA
BRANCH  16  18
ATOM     17  C   UNL     1       1.119   2.993  20.650  0.00  0.00    +0.000 C 
ATOM     18  C   UNL     1       0.666   2.074  19.534  0.00  0.00    +0.000 C 
ENDBRANCH  16  18
ENDBRANCH  14  16
ENDBRANCH  13  14
ENDBRANCH   1  13
BRANCH   5  19
ATOM     19  C   UNL     1       2.875   5.692  19.789  0.00  0.00    +0.000 C 
BRANCH  19  20
ATOM     20  C   UNL     1       2.367   7.066  19.421  0.00  0.00    +0.000 A 
ATOM     21  C   UNL     1       2.486   7.559  18.112  0.00  0.00    +0.000 A 
ATOM     22  C   UNL     1       1.955   8.804  17.769  0.00  0.00    +0.000 A 
ATOM     23  C   UNL     1       1.296   9.571  18.726  0.00  0.00    +0.000 A 
ATOM     24  C   UNL     1       1.169   9.095  20.028  0.00  0.00    +0.000 A 
ATOM     25  C   UNL     1       1.697   7.850  20.374  0.00  0.00    +0.000 A 
ENDBRANCH  19  20
ENDBRANCH   5  19
TORSDOF 10
ENDMDL
MODEL 2
REMARK VINA RESULT:      -7.3      0.544      1.104
REMARK  Name = 
REMARK  13 active torsions:
REMARK  status: ('A' for Active; 'I' for Inactive)
REMARK    1  A    between atoms: C_1  and  C_2
REMARK    2  A    between atoms: C_2  and  O_3
REMARK    3  A    between atoms: O_3  and  C_4
REMARK    4  A    between atoms: C_4  and  C_6
REMARK    5  A    between atoms: C_6  and  C_7
REMARK    6  A    between atoms: C_8  and  C_9
REMARK    7  A    between atoms: C_9  and  C_10
REMARK    8  A    between atoms: C_11  and  C_12
REMARK    9  A    between atoms: C_12  and  O_14
REMARK   10  A    between atoms: O_14  and  C_15
REMARK   11  A    between atoms: C_15  and  C_16
REMARK   12  A    between atoms: N_18  and  C_19
REMARK   13  A    between atoms: C_19  and  C_20
REMARK                            x       y       z     vdW  Elec       q    Type
REMARK                         _______ _______ _______ _____ _____    ______ ____
ROOT
ATOM      1  C   UNL     1       3.516   4.849  17.945  0.00  0.00    +0.000 A 
ATOM      2  C   UNL     1       4.749   4.719  17.311  0.00  0.00    +0.000 A 
ATOM      3  C   UNL     1       5.732   5.349  18.148  0.00  0.00    +0.000 A 
ATOM      4  C   UNL     1       5.039   5.896  19.212  0.00  0.00    +0.000 A 
ATOM      5  N   UNL     1       3.705   5.598  19.088  0.00  0.00    +0.000 N 
ENDROOT
BRANCH   2   6
ATOM      6  C   UNL     1       4.990   4.060  15.982  0.00  0.00    +0.000 C 
ATOM      7  C   UNL     1       5.519   5.013  14.923  0.00  0.00    +0.000 C 
ENDBRANCH   2   6
BRANCH   3   8
ATOM      8  C   UNL     1       7.182   5.406  17.964  0.00  0.00    +0.000 C 
ATOM      9  O   UNL     1       7.946   4.509  18.298  0.00  0.00    +0.000 OA
BRANCH   8  10
ATOM     10  O   UNL     1       7.590   6.613  17.463  0.00  0.00    +0.000 OA
BRANCH  10  11
ATOM     11  C   UNL     1       8.203   7.495  18.411  0.00  0.00    +0.000 C 
ATOM     12  C   UNL     1       8.118   8.908  17.863  0.00  0.00    +0.000 C 
ENDBRANCH  10  11
ENDBRANCH   8  10
ENDBRANCH   3   8
BRANCH   1  13
ATOM     13  C   UNL     1       2.177   4.322  17.510  0.00  0.00    +0.000 C 
BRANCH  13  14
ATOM     14  C   UNL     1       1.933   2.913  18.015  0.00  0.00    +0.000 C 
ATOM     15  O   UNL     1       2.373   1.880  17.530  0.00  0.00    +0.000 OA
BRANCH  14  16
ATOM     16  O   UNL     1       1.050   2.966  19.058  0.00  0.00    +0.000 OA
BRANCH  16  18
ATOM     17  C   UNL     1       1.486   3.199  21.441  0.00  0.00    +0.000 C 
ATOM     18  C   UNL     1       1.442   2.267  20.247  0.00  0.00    +0.000 C 
ENDBRANCH  16  18
ENDBRANCH  14  16
ENDBRANCH  13  14
ENDBRANCH   1  13
BRANCH   5  19
ATOM     19  C   UNL     1       2.677   6.146  19.976  0.00  0.00    +0.000 C 
BRANCH  19  20
ATOM     20  C   UNL     1       2.128   7.474  19.512  0.00  0.00    +0.000 A 
ATOM     21  C   UNL     1       1.374   8.289  20.371  0.00  0.00    +0.000 A 
ATOM     22  C   UNL     1       0.925   9.543  19.950  0.00  0.00    +0.000 A 
ATOM     23  C   UNL     1       1.226  10.001  18.670  0.00  0.00    +0.000 A 
ATOM     24  C   UNL     1       1.974   9.204  17.807  0.00  0.00    +0.000 A 
ATOM     25  C   UNL     1       2.426   7.951  18.226  0.00  0.00    +0.000 A 
ENDBRANCH  19  20
ENDBRANCH   5  19
TORSDOF 10
ENDMDL
MODEL 3
REMARK VINA RESULT:      -7.3      0.792      1.508
REMARK  Name = 
REMARK  13 active torsions:
REMARK  status: ('A' for Active; 'I' for Inactive)
REMARK    1  A    between atoms: C_1  and  C_2
REMARK    2  A    between atoms: C_2  and  O_3
REMARK    3  A    between atoms: O_3  and  C_4
REMARK    4  A    between atoms: C_4  and  C_6
REMARK    5  A    between atoms: C_6  and  C_7
REMARK    6  A    between atoms: C_8  and  C_9
REMARK    7  A    between atoms: C_9  and  C_10
REMARK    8  A    between atoms: C_11  and  C_12
REMARK    9  A    between atoms: C_12  and  O_14
REMARK   10  A    between atoms: O_14  and  C_15
REMARK   11  A    between atoms: C_15  and  C_16
REMARK   12  A    between atoms: N_18  and  C_19
REMARK   13  A    between atoms: C_19  and  C_20
REMARK                            x       y       z     vdW  Elec       q    Type
REMARK                         _______ _______ _______ _____ _____    ______ ____
ROOT
ATOM      1  C   UNL     1       3.740   4.601  17.768  0.00  0.00    +0.000 A 
ATOM      2  C   UNL     1       4.966   4.551  17.111  0.00  0.00    +0.000 A 
ATOM      3  C   UNL     1       5.936   5.182  17.961  0.00  0.00    +0.000 A 
ATOM      4  C   UNL     1       5.240   5.650  19.061  0.00  0.00    +0.000 A 
ATOM      5  N   UNL     1       3.917   5.303  18.943  0.00  0.00    +0.000 N 
ENDROOT
BRANCH   2   6
ATOM      6  C   UNL     1       5.211   3.965  15.749  0.00  0.00    +0.000 C 
ATOM      7  C   UNL     1       5.615   4.999  14.710  0.00  0.00    +0.000 C 
ENDBRANCH   2   6
BRANCH   3   8
ATOM      8  C   UNL     1       7.379   5.308  17.758  0.00  0.00    +0.000 C 
ATOM      9  O   UNL     1       8.181   4.415  18.004  0.00  0.00    +0.000 OA
BRANCH   8  10
ATOM     10  O   UNL     1       7.734   6.566  17.352  0.00  0.00    +0.000 OA
BRANCH  10  11
ATOM     11  C   UNL     1       8.173   7.446  18.395  0.00  0.00    +0.000 C 
ATOM     12  C   UNL     1       8.154   8.864  17.854  0.00  0.00    +0.000 C 
ENDBRANCH  10  11
ENDBRANCH   8  10
ENDBRANCH   3   8
BRANCH   1  13
ATOM     13  C   UNL     1       2.416   4.039  17.329  0.00  0.00    +0.000 C 
BRANCH  13  14
ATOM     14  C   UNL     1       2.139   2.687  17.958  0.00  0.00    +0.000 C 
ATOM     15  O   UNL     1       1.147   2.373  18.601  0.00  0.00    +0.000 OA
BRANCH  14  16
ATOM     16  O   UNL     1       3.232   1.886  17.777  0.00  0.00    +0.000 OA
BRANCH  16  18
ATOM     17  C   UNL     1       4.391   2.005  19.914  0.00  0.00    +0.000 C 
ATOM     18  C   UNL     1       3.651   1.131  18.922  0.00  0.00    +0.000 C 
ENDBRANCH  16  18
ENDBRANCH  14  16
ENDBRANCH  13  14
ENDBRANCH   1  13
BRANCH   5  19
ATOM     19  C   UNL     1       2.883   5.766  19.871  0.00  0.00    +0.000 C 
BRANCH  19  20
ATOM     20  C   UNL     1       2.284   7.098  19.487  0.00  0.00    +0.000 A 
ATOM     21  C   UNL     1       1.608   7.890  20.429  0.00  0.00    +0.000 A 
ATOM     22  C   UNL     1       1.113   9.148  20.077  0.00  0.00    +0.000 A 
ATOM     23  C   UNL     1       1.290   9.633  18.784  0.00  0.00    +0.000 A 
ATOM     24  C   UNL     1       1.959   8.859  17.838  0.00  0.00    +0.000 A 
ATOM     25  C   UNL     1       2.456   7.602  18.188  0.00  0.00    +0.000 A 
ENDBRANCH  19  20
ENDBRANCH   5  19
TORSDOF 10
ENDMDL
MODEL 4
REMARK VINA RESULT:      -7.1      2.353      4.855
REMARK  Name = 
REMARK  13 active torsions:
REMARK  status: ('A' for Active; 'I' for Inactive)
REMARK    1  A    between atoms: C_1  and  C_2
REMARK    2  A    between atoms: C_2  and  O_3
REMARK    3  A    between atoms: O_3  and  C_4
REMARK    4  A    between atoms: C_4  and  C_6
REMARK    5  A    between atoms: C_6  and  C_7
REMARK    6  A    between atoms: C_8  and  C_9
REMARK    7  A    between atoms: C_9  and  C_10
REMARK    8  A    between atoms: C_11  and  C_12
REMARK    9  A    between atoms: C_12  and  O_14
REMARK   10  A    between atoms: O_14  and  C_15
REMARK   11  A    between atoms: C_15  and  C_16
REMARK   12  A    between atoms: N_18  and  C_19
REMARK   13  A    between atoms: C_19  and  C_20
REMARK                            x       y       z     vdW  Elec       q    Type
REMARK                         _______ _______ _______ _____ _____    ______ ____
ROOT
ATOM      1  C   UNL     1       4.090   5.800  17.731  0.00  0.00    +0.000 A 
ATOM      2  C   UNL     1       5.355   5.976  17.178  0.00  0.00    +0.000 A 
ATOM      3  C   UNL     1       5.534   4.957  16.181  0.00  0.00    +0.000 A 
ATOM      4  C   UNL     1       4.399   4.167  16.228  0.00  0.00    +0.000 A 
ATOM      5  N   UNL     1       3.532   4.672  17.164  0.00  0.00    +0.000 N 
ENDROOT
BRANCH   2   6
ATOM      6  C   UNL     1       6.352   7.026  17.577  0.00  0.00    +0.000 C 
ATOM      7  C   UNL     1       7.507   6.481  18.400  0.00  0.00    +0.000 C 
ENDBRANCH   2   6
BRANCH   3   8
ATOM      8  C   UNL     1       6.658   4.768  15.265  0.00  0.00    +0.000 C 
ATOM      9  O   UNL     1       7.816   4.614  15.632  0.00  0.00    +0.000 OA
BRANCH   8  10
ATOM     10  O   UNL     1       6.278   4.877  13.954  0.00  0.00    +0.000 OA
BRANCH  10  11
ATOM     11  C   UNL     1       6.467   3.699  13.161  0.00  0.00    +0.000 C 
ATOM     12  C   UNL     1       5.230   3.505  12.302  0.00  0.00    +0.000 C 
ENDBRANCH  10  11
ENDBRANCH   8  10
ENDBRANCH   3   8
BRANCH   1  13
ATOM     13  C   UNL     1       3.400   6.629  18.779  0.00  0.00    +0.000 C 
BRANCH  13  14
ATOM     14  C   UNL     1       2.664   7.809  18.172  0.00  0.00    +0.000 C 
ATOM     15  O   UNL     1       2.791   8.237  17.033  0.00  0.00    +0.000 OA
BRANCH  14  16
ATOM     16  O   UNL     1       1.895   8.392  19.140  0.00  0.00    +0.000 OA
BRANCH  16  18
ATOM     17  C   UNL     1       0.996   8.454  21.401  0.00  0.00    +0.000 C 
ATOM     18  C   UNL     1       1.777   7.664  20.369  0.00  0.00    +0.000 C 
ENDBRANCH  16  18
ENDBRANCH  14  16
ENDBRANCH  13  14
ENDBRANCH   1  13
BRANCH   5  19
ATOM     19  C   UNL     1       2.297   3.992  17.559  0.00  0.00    +0.000 C 
BRANCH  19  20
ATOM     20  C   UNL     1       2.325   3.473  18.977  0.00  0.00    +0.000 A 
ATOM     21  C   UNL     1       3.447   2.799  19.484  0.00  0.00    +0.000 A 
ATOM     22  C   UNL     1       3.485   2.379  20.816  0.00  0.00    +0.000 A 
ATOM     23  C   UNL     1       2.406   2.630  21.659  0.00  0.00    +0.000 A 
ATOM     24  C   UNL     1       1.285   3.299  21.171  0.00  0.00    +0.000 A 
ATOM     25  C   UNL     1       1.246   3.721  19.841  0.00  0.00    +0.000 A 
ENDBRANCH  19  20
ENDBRANCH   5  19
TORSDOF 10
ENDMDL
MODEL 5
REMARK VINA RESULT:      -7.0      2.197      4.830
REMARK  Name = 
REMARK  13 active torsions:
REMARK  status: ('A' for Active; 'I' for Inactive)
REMARK    1  A    between atoms: C_1  and  C_2
REMARK    2  A    between atoms: C_2  and  O_3
REMARK    3  A    between atoms: O_3  and  C_4
REMARK    4  A    between atoms: C_4  and  C_6
REMARK    5  A    between atoms: C_6  and  C_7
REMARK    6  A    between atoms: C_8  and  C_9
REMARK    7  A    between atoms: C_9  and  C_10
REMARK    8  A    between atoms: C_11  and  C_12
REMARK    9  A    between atoms: C_12  and  O_14
REMARK   10  A    between atoms: O_14  and  C_15
REMARK   11  A    between atoms: C_15  and  C_16
REMARK   12  A    between atoms: N_18  and  C_19
REMARK   13  A    between atoms: C_19  and  C_20
REMARK                            x       y       z     vdW  Elec       q    Type
REMARK                         _______ _______ _______ _____ _____    ______ ____
ROOT
ATOM      1  C   UNL     1       4.890   5.116  18.222  0.00  0.00    +0.000 A 
ATOM      2  C   UNL     1       5.519   5.692  17.123  0.00  0.00    +0.000 A 
ATOM      3  C   UNL     1       5.899   4.626  16.237  0.00  0.00    +0.000 A 
ATOM      4  C   UNL     1       5.548   3.451  16.875  0.00  0.00    +0.000 A 
ATOM      5  N   UNL     1       4.944   3.745  18.071  0.00  0.00    +0.000 N 
ENDROOT
BRANCH   2   6
ATOM      6  C   UNL     1       5.773   7.159  16.923  0.00  0.00    +0.000 C 
ATOM      7  C   UNL     1       7.153   7.602  17.381  0.00  0.00    +0.000 C 
ENDBRANCH   2   6
BRANCH   3   8
ATOM      8  C   UNL     1       6.513   4.719  14.913  0.00  0.00    +0.000 C 
ATOM      9  O   UNL     1       7.582   5.277  14.696  0.00  0.00    +0.000 OA
BRANCH   8  10
ATOM     10  O   UNL     1       5.712   4.192  13.936  0.00  0.00    +0.000 OA
BRANCH  10  11
ATOM     11  C   UNL     1       6.397   3.719  12.770  0.00  0.00    +0.000 C 
ATOM     12  C   UNL     1       5.401   2.958  11.914  0.00  0.00    +0.000 C 
ENDBRANCH  10  11
ENDBRANCH   8  10
ENDBRANCH   3   8
BRANCH   1  13
ATOM     13  C   UNL     1       4.265   5.796  19.409  0.00  0.00    +0.000 C 
BRANCH  13  14
ATOM     14  C   UNL     1       2.825   6.191  19.141  0.00  0.00    +0.000 C 
ATOM     15  O   UNL     1       2.243   6.133  18.066  0.00  0.00    +0.000 OA
BRANCH  14  16
ATOM     16  O   UNL     1       2.295   6.723  20.283  0.00  0.00    +0.000 OA
BRANCH  16  18
ATOM     17  C   UNL     1       0.987   8.442  21.403  0.00  0.00    +0.000 C 
ATOM     18  C   UNL     1       1.781   8.057  20.172  0.00  0.00    +0.000 C 
ENDBRANCH  16  18
ENDBRANCH  14  16
ENDBRANCH  13  14
ENDBRANCH   1  13
BRANCH   5  19
ATOM     19  C   UNL     1       4.577   2.724  19.055  0.00  0.00    +0.000 C 
BRANCH  19  20
ATOM     20  C   UNL     1       3.111   2.740  19.419  0.00  0.00    +0.000 A 
ATOM     21  C   UNL     1       2.693   2.913  20.747  0.00  0.00    +0.000 A 
ATOM     22  C   UNL     1       1.334   2.989  21.063  0.00  0.00    +0.000 A 
ATOM     23  C   UNL     1       0.376   2.898  20.056  0.00  0.00    +0.000 A 
ATOM     24  C   UNL     1       0.776   2.726  18.733  0.00  0.00    +0.000 A 
ATOM     25  C   UNL     1       2.133   2.652  18.415  0.00  0.00    +0.000 A 
ENDBRANCH  19  20
ENDBRANCH   5  19
TORSDOF 10
ENDMDL
MODEL 6
REMARK VINA RESULT:      -6.9      2.204      4.867
REMARK  Name = 
REMARK  13 active torsions:
REMARK  status: ('A' for Active; 'I' for Inactive)
REMARK    1  A    between atoms: C_1  and  C_2
REMARK    2  A    between atoms: C_2  and  O_3
REMARK    3  A    between atoms: O_3  and  C_4
REMARK    4  A    between atoms: C_4  and  C_6
REMARK    5  A    between atoms: C_6  and  C_7
REMARK    6  A    between atoms: C_8  and  C_9
REMARK    7  A    between atoms: C_9  and  C_10
REMARK    8  A    between atoms: C_11  and  C_12
REMARK    9  A    between atoms: C_12  and  O_14
REMARK   10  A    between atoms: O_14  and  C_15
REMARK   11  A    between atoms: C_15  and  C_16
REMARK   12  A    between atoms: N_18  and  C_19
REMARK   13  A    between atoms: C_19  and  C_20
REMARK                            x       y       z     vdW  Elec       q    Type
REMARK                         _______ _______ _______ _____ _____    ______ ____
ROOT
ATOM      1  C   UNL     1       5.091   5.123  18.187  0.00  0.00    +0.000 A 
ATOM      2  C   UNL     1       5.730   5.679  17.083  0.00  0.00    +0.000 A 
ATOM      3  C   UNL     1       5.938   4.626  16.129  0.00  0.00    +0.000 A 
ATOM      4  C   UNL     1       5.482   3.466  16.730  0.00  0.00    +0.000 A 
ATOM      5  N   UNL     1       4.975   3.765  17.969  0.00  0.00    +0.000 N 
ENDROOT
BRANCH   2   6
ATOM      6  C   UNL     1       6.146   7.116  16.939  0.00  0.00    +0.000 C 
ATOM      7  C   UNL     1       7.525   7.406  17.508  0.00  0.00    +0.000 C 
ENDBRANCH   2   6
BRANCH   3   8
ATOM      8  C   UNL     1       6.494   4.717  14.780  0.00  0.00    +0.000 C 
ATOM      9  O   UNL     1       7.560   5.261  14.518  0.00  0.00    +0.000 OA
BRANCH   8  10
ATOM     10  O   UNL     1       5.643   4.205  13.837  0.00  0.00    +0.000 OA
BRANCH  10  11
ATOM     11  C   UNL     1       6.276   3.628  12.688  0.00  0.00    +0.000 C 
ATOM     12  C   UNL     1       5.195   3.040  11.800  0.00  0.00    +0.000 C 
ENDBRANCH  10  11
ENDBRANCH   8  10
ENDBRANCH   3   8
BRANCH   1  13
ATOM     13  C   UNL     1       4.609   5.806  19.436  0.00  0.00    +0.000 C 
BRANCH  13  14
ATOM     14  C   UNL     1       3.164   6.252  19.315  0.00  0.00    +0.000 C 
ATOM     15  O   UNL     1       2.300   6.160  20.177  0.00  0.00    +0.000 OA
BRANCH  14  16
ATOM     16  O   UNL     1       2.943   6.690  18.039  0.00  0.00    +0.000 OA
BRANCH  16  18
ATOM     17  C   UNL     1       1.558   8.681  17.839  0.00  0.00    +0.000 C 
ATOM     18  C   UNL     1       2.962   8.112  17.854  0.00  0.00    +0.000 C 
ENDBRANCH  16  18
ENDBRANCH  14  16
ENDBRANCH  13  14
ENDBRANCH   1  13
BRANCH   5  19
ATOM     19  C   UNL     1       4.538   2.742  18.922  0.00  0.00    +0.000 C 
BRANCH  19  20
ATOM     20  C   UNL     1       3.076   2.848  19.288  0.00  0.00    +0.000 A 
ATOM     21  C   UNL     1       2.080   2.902  18.300  0.00  0.00    +0.000 A 
ATOM     22  C   UNL     1       0.729   2.936  18.652  0.00  0.00    +0.000 A 
ATOM     23  C   UNL     1       0.354   2.913  19.993  0.00  0.00    +0.000 A 
ATOM     24  C   UNL     1       1.331   2.859  20.985  0.00  0.00    +0.000 A 
ATOM     25  C   UNL     1       2.682   2.823  20.636  0.00  0.00    +0.000 A 
ENDBRANCH  19  20
ENDBRANCH   5  19
TORSDOF 10
ENDMDL
MODEL 7
REMARK VINA RESULT:      -6.9      2.173      4.833
REMARK  Name = 
REMARK  13 active torsions:
REMARK  status: ('A' for Active; 'I' for Inactive)
REMARK    1  A    between atoms: C_1  and  C_2
REMARK    2  A    between atoms: C_2  and  O_3
REMARK    3  A    between atoms: O_3  and  C_4
REMARK    4  A    between atoms: C_4  and  C_6
REMARK    5  A    between atoms: C_6  and  C_7
REMARK    6  A    between atoms: C_8  and  C_9
REMARK    7  A    between atoms: C_9  and  C_10
REMARK    8  A    between atoms: C_11  and  C_12
REMARK    9  A    between atoms: C_12  and  O_14
REMARK   10  A    between atoms: O_14  and  C_15
REMARK   11  A    between atoms: C_15  and  C_16
REMARK   12  A    between atoms: N_18  and  C_19
REMARK   13  A    between atoms: C_19  and  C_20
REMARK                            x       y       z     vdW  Elec       q    Type
REMARK                         _______ _______ _______ _____ _____    ______ ____
ROOT
ATOM      1  C   UNL     1       3.560   5.214  17.226  0.00  0.00    +0.000 A 
ATOM      2  C   UNL     1       4.823   5.664  16.850  0.00  0.00    +0.000 A 
ATOM      3  C   UNL     1       5.571   4.522  16.403  0.00  0.00    +0.000 A 
ATOM      4  C   UNL     1       4.753   3.424  16.597  0.00  0.00    +0.000 A 
ATOM      5  N   UNL     1       3.544   3.840  17.096  0.00  0.00    +0.000 N 
ENDROOT
BRANCH   2   6
ATOM      6  C   UNL     1       5.311   7.083  16.929  0.00  0.00    +0.000 C 
ATOM      7  C   UNL     1       6.658   7.221  17.619  0.00  0.00    +0.000 C 
ENDBRANCH   2   6
BRANCH   3   8
ATOM      8  C   UNL     1       6.916   4.483  15.830  0.00  0.00    +0.000 C 
ATOM      9  O   UNL     1       7.932   4.303  16.491  0.00  0.00    +0.000 OA
BRANCH   8  10
ATOM     10  O   UNL     1       6.914   4.762  14.490  0.00  0.00    +0.000 OA
BRANCH  10  11
ATOM     11  C   UNL     1       6.013   3.976  13.702  0.00  0.00    +0.000 C 
ATOM     12  C   UNL     1       6.688   3.671  12.377  0.00  0.00    +0.000 C 
ENDBRANCH  10  11
ENDBRANCH   8  10
ENDBRANCH   3   8
BRANCH   1  13
ATOM     13  C   UNL     1       2.387   6.015  17.719  0.00  0.00    +0.000 C 
BRANCH  13  14
ATOM     14  C   UNL     1       2.654   6.629  19.080  0.00  0.00    +0.000 C 
ATOM     15  O   UNL     1       2.804   6.026  20.134  0.00  0.00    +0.000 OA
BRANCH  14  16
ATOM     16  O   UNL     1       2.605   7.991  18.966  0.00  0.00    +0.000 OA
BRANCH  16  18
ATOM     17  C   UNL     1       1.195   9.811  18.178  0.00  0.00    +0.000 C 
ATOM     18  C   UNL     1       1.873   8.498  17.842  0.00  0.00    +0.000 C 
ENDBRANCH  16  18
ENDBRANCH  14  16
ENDBRANCH  13  14
ENDBRANCH   1  13
BRANCH   5  19
ATOM     19  C   UNL     1       2.501   2.914  17.542  0.00  0.00    +0.000 C 
BRANCH  19  20
ATOM     20  C   UNL     1       2.342   2.867  19.043  0.00  0.00    +0.000 A 
ATOM     21  C   UNL     1       1.088   3.045  19.648  0.00  0.00    +0.000 A 
ATOM     22  C   UNL     1       0.942   2.936  21.033  0.00  0.00    +0.000 A 
ATOM     23  C   UNL     1       2.046   2.644  21.831  0.00  0.00    +0.000 A 
ATOM     24  C   UNL     1       3.296   2.463  21.246  0.00  0.00    +0.000 A 
ATOM     25  C   UNL     1       3.444   2.570  19.861  0.00  0.00    +0.000 A 
ENDBRANCH  19  20
ENDBRANCH   5  19
TORSDOF 10
ENDMDL
MODEL 8
REMARK VINA RESULT:      -6.8      2.651      6.049
REMARK  Name = 
REMARK  13 active torsions:
REMARK  status: ('A' for Active; 'I' for Inactive)
REMARK    1  A    between atoms: C_1  and  C_2
REMARK    2  A    between atoms: C_2  and  O_3
REMARK    3  A    between atoms: O_3  and  C_4
REMARK    4  A    between atoms: C_4  and  C_6
REMARK    5  A    between atoms: C_6  and  C_7
REMARK    6  A    between atoms: C_8  and  C_9
REMARK    7  A    between atoms: C_9  and  C_10
REMARK    8  A    between atoms: C_11  and  C_12
REMARK    9  A    between atoms: C_12  and  O_14
REMARK   10  A    between atoms: O_14  and  C_15
REMARK   11  A    between atoms: C_15  and  C_16
REMARK   12  A    between atoms: N_18  and  C_19
REMARK   13  A    between atoms: C_19  and  C_20
REMARK                            x       y       z     vdW  Elec       q    Type
REMARK                         _______ _______ _______ _____ _____    ______ ____
ROOT
ATOM      1  C   UNL     1       2.537   6.638  19.531  0.00  0.00    +0.000 A 
ATOM      2  C   UNL     1       1.866   7.819  19.837  0.00  0.00    +0.000 A 
ATOM      3  C   UNL     1       1.861   8.631  18.652  0.00  0.00    +0.000 A 
ATOM      4  C   UNL     1       2.593   7.937  17.706  0.00  0.00    +0.000 A 
ATOM      5  N   UNL     1       3.003   6.740  18.236  0.00  0.00    +0.000 N 
ENDROOT
BRANCH   2   6
ATOM      6  C   UNL     1       1.281   8.177  21.173  0.00  0.00    +0.000 C 
ATOM      7  C   UNL     1      -0.231   8.027  21.231  0.00  0.00    +0.000 C 
ENDBRANCH   2   6
BRANCH   3   8
ATOM      8  C   UNL     1       1.211   9.923  18.437  0.00  0.00    +0.000 C 
ATOM      9  O   UNL     1       1.697  10.994  18.776  0.00  0.00    +0.000 OA
BRANCH   8  10
ATOM     10  O   UNL     1      -0.040   9.786  17.898  0.00  0.00    +0.000 OA
BRANCH  10  11
ATOM     11  C   UNL     1      -1.090  10.455  18.608  0.00  0.00    +0.000 C 
ATOM     12  C   UNL     1      -2.157  10.855  17.605  0.00  0.00    +0.000 C 
ENDBRANCH  10  11
ENDBRANCH   8  10
ENDBRANCH   3   8
BRANCH   1  13
ATOM     13  C   UNL     1       2.775   5.440  20.407  0.00  0.00    +0.000 C 
BRANCH  13  14
ATOM     14  C   UNL     1       1.657   4.421  20.287  0.00  0.00    +0.000 C 
ATOM     15  O   UNL     1       1.182   3.752  21.195  0.00  0.00    +0.000 OA
BRANCH  14  16
ATOM     16  O   UNL     1       1.320   4.290  18.968  0.00  0.00    +0.000 OA
BRANCH  16  18
ATOM     17  C   UNL     1       2.427   2.435  17.848  0.00  0.00    +0.000 C 
ATOM     18  C   UNL     1       1.156   2.947  18.495  0.00  0.00    +0.000 C 
ENDBRANCH  16  18
ENDBRANCH  14  16
ENDBRANCH  13  14
ENDBRANCH   1  13
BRANCH   5  19
ATOM     19  C   UNL     1       3.914   5.827  17.542  0.00  0.00    +0.000 C 
BRANCH  19  20
ATOM     20  C   UNL     1       5.369   6.070  17.865  0.00  0.00    +0.000 A 
ATOM     21  C   UNL     1       6.112   7.050  17.188  0.00  0.00    +0.000 A 
ATOM     22  C   UNL     1       7.439   7.308  17.540  0.00  0.00    +0.000 A 
ATOM     23  C   UNL     1       8.040   6.595  18.574  0.00  0.00    +0.000 A 
ATOM     24  C   UNL     1       7.316   5.620  19.256  0.00  0.00    +0.000 A 
ATOM     25  C   UNL     1       5.989   5.361  18.907  0.00  0.00    +0.000 A 
ENDBRANCH  19  20
ENDBRANCH   5  19
TORSDOF 10
ENDMDL
MODEL 9
REMARK VINA RESULT:      -6.8      1.996      5.339
REMARK  Name = 
REMARK  13 active torsions:
REMARK  status: ('A' for Active; 'I' for Inactive)
REMARK    1  A    between atoms: C_1  and  C_2
REMARK    2  A    between atoms: C_2  and  O_3
REMARK    3  A    between atoms: O_3  and  C_4
REMARK    4  A    between atoms: C_4  and  C_6
REMARK    5  A    between atoms: C_6  and  C_7
REMARK    6  A    between atoms: C_8  and  C_9
REMARK    7  A    between atoms: C_9  and  C_10
REMARK    8  A    between atoms: C_11  and  C_12
REMARK    9  A    between atoms: C_12  and  O_14
REMARK   10  A    between atoms: O_14  and  C_15
REMARK   11  A    between atoms: C_15  and  C_16
REMARK   12  A    between atoms: N_18  and  C_19
REMARK   13  A    between atoms: C_19  and  C_20
REMARK                            x       y       z     vdW  Elec       q    Type
REMARK                         _______ _______ _______ _____ _____    ______ ____
ROOT
ATOM      1  C   UNL     1       3.943   5.634  17.797  0.00  0.00    +0.000 A 
ATOM      2  C   UNL     1       3.483   4.368  18.151  0.00  0.00    +0.000 A 
ATOM      3  C   UNL     1       2.089   4.493  18.475  0.00  0.00    +0.000 A 
ATOM      4  C   UNL     1       1.788   5.839  18.374  0.00  0.00    +0.000 A 
ATOM      5  N   UNL     1       2.904   6.526  17.969  0.00  0.00    +0.000 N 
ENDROOT
BRANCH   2   6
ATOM      6  C   UNL     1       4.309   3.115  18.206  0.00  0.00    +0.000 C 
ATOM      7  C   UNL     1       4.666   2.688  19.621  0.00  0.00    +0.000 C 
ENDBRANCH   2   6
BRANCH   3   8
ATOM      8  C   UNL     1       1.138   3.438  18.824  0.00  0.00    +0.000 C 
ATOM      9  O   UNL     1       0.760   2.576  18.040  0.00  0.00    +0.000 OA
BRANCH   8  10
ATOM     10  O   UNL     1       0.653   3.581  20.096  0.00  0.00    +0.000 OA
BRANCH  10  11
ATOM     11  C   UNL     1       1.217   2.695  21.071  0.00  0.00    +0.000 C 
ATOM     12  C   UNL     1       2.195   3.487  21.919  0.00  0.00    +0.000 C 
ENDBRANCH  10  11
ENDBRANCH   8  10
ENDBRANCH   3   8
BRANCH   1  13
ATOM     13  C   UNL     1       5.314   6.037  17.330  0.00  0.00    +0.000 C 
BRANCH  13  14
ATOM     14  C   UNL     1       5.432   5.990  15.818  0.00  0.00    +0.000 C 
ATOM     15  O   UNL     1       5.211   6.911  15.043  0.00  0.00    +0.000 OA
BRANCH  14  16
ATOM     16  O   UNL     1       5.736   4.713  15.439  0.00  0.00    +0.000 OA
BRANCH  16  18
ATOM     17  C   UNL     1       6.000   3.746  13.222  0.00  0.00    +0.000 C 
ATOM     18  C   UNL     1       6.622   4.585  14.319  0.00  0.00    +0.000 C 
ENDBRANCH  16  18
ENDBRANCH  14  16
ENDBRANCH  13  14
ENDBRANCH   1  13
BRANCH   5  19
ATOM     19  C   UNL     1       2.963   7.987  17.898  0.00  0.00    +0.000 C 
BRANCH  19  20
ATOM     20  C   UNL     1       1.811   8.670  18.597  0.00  0.00    +0.000 A 
ATOM     21  C   UNL     1       1.637   8.566  19.986  0.00  0.00    +0.000 A 
ATOM     22  C   UNL     1       0.605   9.253  20.629  0.00  0.00    +0.000 A 
ATOM     23  C   UNL     1      -0.264  10.055  19.895  0.00  0.00    +0.000 A 
ATOM     24  C   UNL     1      -0.105  10.169  18.516  0.00  0.00    +0.000 A 
ATOM     25  C   UNL     1       0.928   9.485  17.871  0.00  0.00    +0.000 A 
ENDBRANCH  19  20
ENDBRANCH   5  19
TORSDOF 10
ENDMDL
