MODEL 1
REMARK VINA RESULT:      -8.2      0.000      0.000
REMARK  Name = 
REMARK  2 active torsions:
REMARK  status: ('A' for Active; 'I' for Inactive)
REMARK    1  A    between atoms: C_9  and  C_10
REMARK    2  A    between atoms: N_20  and  C_21
REMARK                            x       y       z     vdW  Elec       q    Type
REMARK                         _______ _______ _______ _____ _____    ______ ____
ROOT
ATOM      1  O   UNL     1       5.173   3.776  15.584  0.00  0.00    +0.000 OA
ATOM      2  C   UNL     1       4.816   3.790  16.767  0.00  0.00    +0.000 C 
ATOM      3  C   UNL     1       3.518   3.077  17.133  0.00  0.00    +0.000 C 
ATOM      4  C   UNL     1       3.697   1.986  18.186  0.00  0.00    +0.000 C 
ATOM      5  N   UNL     1       3.180   2.295  19.532  0.00  0.00    +0.000 N 
ATOM      6  C   UNL     1       2.957   3.631  19.845  0.00  0.00    +0.000 A 
ATOM      7  N   UNL     1       1.717   3.906  20.277  0.00  0.00    +0.000 NA
ATOM      8  C   UNL     1       1.358   5.203  20.393  0.00  0.00    +0.000 A 
ATOM      9  C   UNL     1       2.175   6.290  20.092  0.00  0.00    +0.000 A 
ATOM     10  C   UNL     1       3.486   5.970  19.735  0.00  0.00    +0.000 A 
ATOM     11  C   UNL     1       3.899   4.630  19.634  0.00  0.00    +0.000 A 
ATOM     12  C   UNL     1       5.301   4.325  19.194  0.00  0.00    +0.000 C 
ATOM     13  N   UNL     1       5.535   4.474  17.750  0.00  0.00    +0.000 N 
ATOM     14  H   UNL     1       3.751   1.872  20.256  0.00  0.00    +0.000 HD
ENDROOT
BRANCH   9  15
ATOM     15  C   UNL     1       1.673   7.676  20.139  0.00  0.00    +0.000 A 
ATOM     16  C   UNL     1       1.748   8.512  19.007  0.00  0.00    +0.000 A 
ATOM     17  C   UNL     1       1.237   9.811  19.026  0.00  0.00    +0.000 A 
ATOM     18  C   UNL     1       0.662  10.311  20.187  0.00  0.00    +0.000 A 
ATOM     19  C   UNL     1       0.604   9.515  21.326  0.00  0.00    +0.000 A 
ATOM     20 CL   UNL     1      -0.097  10.137  22.769  0.00  0.00    +0.000 Cl
ATOM     21  C   UNL     1       1.101   8.210  21.306  0.00  0.00    +0.000 A 
ENDBRANCH   9  15
BRANCH  13  22
ATOM     22  C   UNL     1       6.840   5.032  17.429  0.00  0.00    +0.000 C 
ATOM     23  C   UNL     1       7.135   6.476  17.124  0.00  0.00    +0.000 C 
ATOM     24  C   UNL     1       7.522   5.910  18.454  0.00  0.00    +0.000 C 
ENDBRANCH  13  22
TORSDOF 2
ENDMDL
MODEL 2
REMARK VINA RESULT:      -8.2      1.898      3.791
REMARK  Name = 
REMARK  2 active torsions:
REMARK  status: ('A' for Active; 'I' for Inactive)
REMARK    1  A    between atoms: C_9  and  C_10
REMARK    2  A    between atoms: N_20  and  C_21
REMARK                            x       y       z     vdW  Elec       q    Type
REMARK                         _______ _______ _______ _____ _____    ______ ____
ROOT
ATOM      1  O   UNL     1       4.849   2.534  20.379  0.00  0.00    +0.000 OA
ATOM      2  C   UNL     1       4.559   3.262  19.424  0.00  0.00    +0.000 C 
ATOM      3  C   UNL     1       5.604   4.265  18.944  0.00  0.00    +0.000 C 
ATOM      4  C   UNL     1       5.985   4.092  17.475  0.00  0.00    +0.000 C 
ATOM      5  N   UNL     1       5.475   5.120  16.549  0.00  0.00    +0.000 N 
ATOM      6  C   UNL     1       4.402   5.895  16.975  0.00  0.00    +0.000 A 
ATOM      7  N   UNL     1       4.610   7.219  16.918  0.00  0.00    +0.000 NA
ATOM      8  C   UNL     1       3.708   8.029  17.512  0.00  0.00    +0.000 A 
ATOM      9  C   UNL     1       2.570   7.599  18.191  0.00  0.00    +0.000 A 
ATOM     10  C   UNL     1       2.336   6.223  18.151  0.00  0.00    +0.000 A 
ATOM     11  C   UNL     1       3.241   5.356  17.515  0.00  0.00    +0.000 A 
ATOM     12  C   UNL     1       2.983   3.878  17.540  0.00  0.00    +0.000 C 
ATOM     13  N   UNL     1       3.302   3.224  18.818  0.00  0.00    +0.000 N 
ATOM     14  H   UNL     1       5.265   4.727  15.637  0.00  0.00    +0.000 HD
ENDROOT
BRANCH   9  15
ATOM     15  C   UNL     1       1.691   8.541  18.910  0.00  0.00    +0.000 A 
ATOM     16  C   UNL     1       1.004   9.559  18.219  0.00  0.00    +0.000 A 
ATOM     17  C   UNL     1       0.135  10.429  18.881  0.00  0.00    +0.000 A 
ATOM     18  C   UNL     1      -0.044  10.316  20.255  0.00  0.00    +0.000 A 
ATOM     19  C   UNL     1       0.649   9.338  20.961  0.00  0.00    +0.000 A 
ATOM     20 CL   UNL     1       0.437   9.204  22.664  0.00  0.00    +0.000 Cl
ATOM     21  C   UNL     1       1.506   8.457  20.300  0.00  0.00    +0.000 A 
ENDBRANCH   9  15
BRANCH  13  22
ATOM     22  C   UNL     1       2.360   2.176  19.182  0.00  0.00    +0.000 C 
ATOM     23  C   UNL     1       1.397   2.214  20.338  0.00  0.00    +0.000 C 
ATOM     24  C   UNL     1       0.885   2.416  18.947  0.00  0.00    +0.000 C 
ENDBRANCH  13  22
TORSDOF 2
ENDMDL
MODEL 3
REMARK VINA RESULT:      -8.1      1.077      1.508
REMARK  Name = 
REMARK  2 active torsions:
REMARK  status: ('A' for Active; 'I' for Inactive)
REMARK    1  A    between atoms: C_9  and  C_10
REMARK    2  A    between atoms: N_20  and  C_21
REMARK                            x       y       z     vdW  Elec       q    Type
REMARK                         _______ _______ _______ _____ _____    ______ ____
ROOT
ATOM      1  O   UNL     1       4.886   4.126  15.512  0.00  0.00    +0.000 OA
ATOM      2  C   UNL     1       4.570   4.043  16.704  0.00  0.00    +0.000 C 
ATOM      3  C   UNL     1       3.310   3.260  17.059  0.00  0.00    +0.000 C 
ATOM      4  C   UNL     1       3.562   2.104  18.024  0.00  0.00    +0.000 C 
ATOM      5  N   UNL     1       3.082   2.298  19.405  0.00  0.00    +0.000 N 
ATOM      6  C   UNL     1       2.826   3.599  19.820  0.00  0.00    +0.000 A 
ATOM      7  N   UNL     1       1.593   3.798  20.312  0.00  0.00    +0.000 NA
ATOM      8  C   UNL     1       1.195   5.069  20.532  0.00  0.00    +0.000 A 
ATOM      9  C   UNL     1       1.964   6.204  20.285  0.00  0.00    +0.000 A 
ATOM     10  C   UNL     1       3.272   5.958  19.863  0.00  0.00    +0.000 A 
ATOM     11  C   UNL     1       3.726   4.644  19.652  0.00  0.00    +0.000 A 
ATOM     12  C   UNL     1       5.121   4.422  19.146  0.00  0.00    +0.000 C 
ATOM     13  N   UNL     1       5.299   4.681  17.709  0.00  0.00    +0.000 N 
ATOM     14  H   UNL     1       3.693   1.845  20.078  0.00  0.00    +0.000 HD
ENDROOT
BRANCH   9  15
ATOM     15  C   UNL     1       1.417   7.564  20.448  0.00  0.00    +0.000 A 
ATOM     16  C   UNL     1       0.676   7.913  21.594  0.00  0.00    +0.000 A 
ATOM     17  C   UNL     1       0.190   9.209  21.780  0.00  0.00    +0.000 A 
ATOM     18  C   UNL     1       0.414  10.178  20.810  0.00  0.00    +0.000 A 
ATOM     19  C   UNL     1       1.117   9.848  19.656  0.00  0.00    +0.000 A 
ATOM     20 CL   UNL     1       1.386  11.043  18.448  0.00  0.00    +0.000 Cl
ATOM     21  C   UNL     1       1.617   8.557  19.474  0.00  0.00    +0.000 A 
ENDBRANCH   9  15
BRANCH  13  22
ATOM     22  C   UNL     1       6.572   5.307  17.388  0.00  0.00    +0.000 C 
ATOM     23  C   UNL     1       7.571   5.842  18.378  0.00  0.00    +0.000 C 
ATOM     24  C   UNL     1       7.846   4.547  17.681  0.00  0.00    +0.000 C 
ENDBRANCH  13  22
TORSDOF 2
ENDMDL
MODEL 4
REMARK VINA RESULT:      -8.0      2.092      3.982
REMARK  Name = 
REMARK  2 active torsions:
REMARK  status: ('A' for Active; 'I' for Inactive)
REMARK    1  A    between atoms: C_9  and  C_10
REMARK    2  A    between atoms: N_20  and  C_21
REMARK                            x       y       z     vdW  Elec       q    Type
REMARK                         _______ _______ _______ _____ _____    ______ ____
ROOT
ATOM      1  O   UNL     1       4.901   2.476  20.247  0.00  0.00    +0.000 OA
ATOM      2  C   UNL     1       4.576   3.237  19.328  0.00  0.00    +0.000 C 
ATOM      3  C   UNL     1       5.599   4.266  18.854  0.00  0.00    +0.000 C 
ATOM      4  C   UNL     1       5.936   4.150  17.370  0.00  0.00    +0.000 C 
ATOM      5  N   UNL     1       5.391   5.208  16.498  0.00  0.00    +0.000 N 
ATOM      6  C   UNL     1       4.327   5.958  16.985  0.00  0.00    +0.000 A 
ATOM      7  N   UNL     1       4.523   7.285  16.971  0.00  0.00    +0.000 NA
ATOM      8  C   UNL     1       3.634   8.065  17.623  0.00  0.00    +0.000 A 
ATOM      9  C   UNL     1       2.521   7.601  18.320  0.00  0.00    +0.000 A 
ATOM     10  C   UNL     1       2.295   6.226  18.235  0.00  0.00    +0.000 A 
ATOM     11  C   UNL     1       3.186   5.390  17.539  0.00  0.00    +0.000 A 
ATOM     12  C   UNL     1       2.939   3.911  17.517  0.00  0.00    +0.000 C 
ATOM     13  N   UNL     1       3.301   3.211  18.760  0.00  0.00    +0.000 N 
ATOM     14  H   UNL     1       5.155   4.848  15.579  0.00  0.00    +0.000 HD
ENDROOT
BRANCH   9  15
ATOM     15  C   UNL     1       1.658   8.509  19.099  0.00  0.00    +0.000 A 
ATOM     16  C   UNL     1       1.472   8.320  20.483  0.00  0.00    +0.000 A 
ATOM     17  C   UNL     1       0.693   9.197  21.240  0.00  0.00    +0.000 A 
ATOM     18  C   UNL     1       0.061  10.270  20.622  0.00  0.00    +0.000 A 
ATOM     19  C   UNL     1       0.206  10.458  19.252  0.00  0.00    +0.000 A 
ATOM     20 CL   UNL     1      -0.586  11.778  18.483  0.00  0.00    +0.000 Cl
ATOM     21  C   UNL     1       0.996   9.591  18.495  0.00  0.00    +0.000 A 
ENDBRANCH   9  15
BRANCH  13  22
ATOM     22  C   UNL     1       2.378   2.144  19.113  0.00  0.00    +0.000 C 
ATOM     23  C   UNL     1       1.453   2.129  20.301  0.00  0.00    +0.000 C 
ATOM     24  C   UNL     1       0.895   2.382  18.936  0.00  0.00    +0.000 C 
ENDBRANCH  13  22
TORSDOF 2
ENDMDL
MODEL 5
REMARK VINA RESULT:      -7.9      4.622      8.128
REMARK  Name = 
REMARK  2 active torsions:
REMARK  status: ('A' for Active; 'I' for Inactive)
REMARK    1  A    between atoms: C_9  and  C_10
REMARK    2  A    between atoms: N_20  and  C_21
REMARK                            x       y       z     vdW  Elec       q    Type
REMARK                         _______ _______ _______ _____ _____    ______ ____
ROOT
ATOM      1  O   UNL     1       2.866   6.895  17.945  0.00  0.00    +0.000 OA
ATOM      2  C   UNL     1       3.913   6.325  17.618  0.00  0.00    +0.000 C 
ATOM      3  C   UNL     1       5.020   7.164  16.988  0.00  0.00    +0.000 C 
ATOM      4  C   UNL     1       6.341   7.103  17.753  0.00  0.00    +0.000 C 
ATOM      5  N   UNL     1       7.421   6.326  17.119  0.00  0.00    +0.000 N 
ATOM      6  C   UNL     1       7.063   5.409  16.137  0.00  0.00    +0.000 A 
ATOM      7  N   UNL     1       7.699   5.565  14.966  0.00  0.00    +0.000 NA
ATOM      8  C   UNL     1       7.254   4.860  13.904  0.00  0.00    +0.000 A 
ATOM      9  C   UNL     1       6.175   3.979  13.921  0.00  0.00    +0.000 A 
ATOM     10  C   UNL     1       5.597   3.770  15.175  0.00  0.00    +0.000 A 
ATOM     11  C   UNL     1       6.057   4.467  16.306  0.00  0.00    +0.000 A 
ATOM     12  C   UNL     1       5.374   4.256  17.625  0.00  0.00    +0.000 C 
ATOM     13  N   UNL     1       4.082   4.946  17.763  0.00  0.00    +0.000 N 
ATOM     14  H   UNL     1       8.005   5.866  17.811  0.00  0.00    +0.000 HD
ENDROOT
BRANCH   9  15
ATOM     15  C   UNL     1       5.682   3.330  12.693  0.00  0.00    +0.000 A 
ATOM     16  C   UNL     1       6.277   2.148  12.209  0.00  0.00    +0.000 A 
ATOM     17  C   UNL     1       5.791   1.500  11.072  0.00  0.00    +0.000 A 
ATOM     18  C   UNL     1       4.713   2.037  10.377  0.00  0.00    +0.000 A 
ATOM     19  C   UNL     1       4.130   3.220  10.819  0.00  0.00    +0.000 A 
ATOM     20 CL   UNL     1       2.803   3.892   9.953  0.00  0.00    +0.000 Cl
ATOM     21  C   UNL     1       4.604   3.862  11.964  0.00  0.00    +0.000 A 
ENDBRANCH   9  15
BRANCH  13  22
ATOM     22  C   UNL     1       3.086   4.172  18.488  0.00  0.00    +0.000 C 
ATOM     23  C   UNL     1       1.655   3.961  18.075  0.00  0.00    +0.000 C 
ATOM     24  C   UNL     1       2.640   2.847  17.911  0.00  0.00    +0.000 C 
ENDBRANCH  13  22
TORSDOF 2
ENDMDL
MODEL 6
REMARK VINA RESULT:      -7.8      0.982      1.088
REMARK  Name = 
REMARK  2 active torsions:
REMARK  status: ('A' for Active; 'I' for Inactive)
REMARK    1  A    between atoms: C_9  and  C_10
REMARK    2  A    between atoms: N_20  and  C_21
REMARK                            x       y       z     vdW  Elec       q    Type
REMARK                         _______ _______ _______ _____ _____    ______ ____
ROOT
ATOM      1  O   UNL     1       6.094   5.285  15.115  0.00  0.00    +0.000 OA
ATOM      2  C   UNL     1       5.663   5.006  16.239  0.00  0.00    +0.000 C 
ATOM      3  C   UNL     1       4.456   4.078  16.334  0.00  0.00    +0.000 C 
ATOM      4  C   UNL     1       4.717   2.821  17.160  0.00  0.00    +0.000 C 
ATOM      5  N   UNL     1       4.076   2.774  18.487  0.00  0.00    +0.000 N 
ATOM      6  C   UNL     1       3.649   3.976  19.038  0.00  0.00    +0.000 A 
ATOM      7  N   UNL     1       2.358   3.998  19.401  0.00  0.00    +0.000 NA
ATOM      8  C   UNL     1       1.814   5.188  19.740  0.00  0.00    +0.000 A 
ATOM      9  C   UNL     1       2.489   6.406  19.739  0.00  0.00    +0.000 A 
ATOM     10  C   UNL     1       3.852   6.333  19.447  0.00  0.00    +0.000 A 
ATOM     11  C   UNL     1       4.454   5.105  19.119  0.00  0.00    +0.000 A 
ATOM     12  C   UNL     1       5.910   5.075  18.758  0.00  0.00    +0.000 C 
ATOM     13  N   UNL     1       6.213   5.552  17.400  0.00  0.00    +0.000 N 
ATOM     14  H   UNL     1       4.653   2.281  19.162  0.00  0.00    +0.000 HD
ENDROOT
BRANCH   9  15
ATOM     15  C   UNL     1       1.796   7.678  20.015  0.00  0.00    +0.000 A 
ATOM     16  C   UNL     1       1.679   8.669  19.021  0.00  0.00    +0.000 A 
ATOM     17  C   UNL     1       0.987   9.859  19.256  0.00  0.00    +0.000 A 
ATOM     18  C   UNL     1       0.420  10.095  20.503  0.00  0.00    +0.000 A 
ATOM     19  C   UNL     1       0.549   9.144  21.509  0.00  0.00    +0.000 A 
ATOM     20 CL   UNL     1      -0.143   9.439  23.057  0.00  0.00    +0.000 Cl
ATOM     21  C   UNL     1       1.227   7.946  21.272  0.00  0.00    +0.000 A 
ENDBRANCH   9  15
BRANCH  13  22
ATOM     22  C   UNL     1       7.445   6.322  17.319  0.00  0.00    +0.000 C 
ATOM     23  C   UNL     1       7.571   7.812  17.486  0.00  0.00    +0.000 C 
ATOM     24  C   UNL     1       8.017   6.908  18.591  0.00  0.00    +0.000 C 
ENDBRANCH  13  22
TORSDOF 2
ENDMDL
MODEL 7
REMARK VINA RESULT:      -7.6      1.534      1.953
REMARK  Name = 
REMARK  2 active torsions:
REMARK  status: ('A' for Active; 'I' for Inactive)
REMARK    1  A    between atoms: C_9  and  C_10
REMARK    2  A    between atoms: N_20  and  C_21
REMARK                            x       y       z     vdW  Elec       q    Type
REMARK                         _______ _______ _______ _____ _____    ______ ____
ROOT
ATOM      1  O   UNL     1       6.228   5.781  14.936  0.00  0.00    +0.000 OA
ATOM      2  C   UNL     1       5.810   5.384  16.028  0.00  0.00    +0.000 C 
ATOM      3  C   UNL     1       4.647   4.396  16.035  0.00  0.00    +0.000 C 
ATOM      4  C   UNL     1       4.966   3.084  16.747  0.00  0.00    +0.000 C 
ATOM      5  N   UNL     1       4.326   2.889  18.062  0.00  0.00    +0.000 N 
ATOM      6  C   UNL     1       3.844   4.017  18.716  0.00  0.00    +0.000 A 
ATOM      7  N   UNL     1       2.552   3.947  19.072  0.00  0.00    +0.000 NA
ATOM      8  C   UNL     1       1.954   5.075  19.513  0.00  0.00    +0.000 A 
ATOM      9  C   UNL     1       2.571   6.319  19.623  0.00  0.00    +0.000 A 
ATOM     10  C   UNL     1       3.936   6.335  19.333  0.00  0.00    +0.000 A 
ATOM     11  C   UNL     1       4.595   5.170  18.900  0.00  0.00    +0.000 A 
ATOM     12  C   UNL     1       6.051   5.240  18.545  0.00  0.00    +0.000 C 
ATOM     13  N   UNL     1       6.333   5.850  17.236  0.00  0.00    +0.000 N 
ATOM     14  H   UNL     1       4.925   2.366  18.693  0.00  0.00    +0.000 HD
ENDROOT
BRANCH   9  15
ATOM     15  C   UNL     1       1.819   7.528  20.008  0.00  0.00    +0.000 A 
ATOM     16  C   UNL     1       1.157   7.604  21.249  0.00  0.00    +0.000 A 
ATOM     17  C   UNL     1       0.479   8.759  21.643  0.00  0.00    +0.000 A 
ATOM     18  C   UNL     1       0.426   9.855  20.791  0.00  0.00    +0.000 A 
ATOM     19  C   UNL     1       1.046   9.791  19.547  0.00  0.00    +0.000 A 
ATOM     20 CL   UNL     1       0.972  11.143  18.486  0.00  0.00    +0.000 Cl
ATOM     21  C   UNL     1       1.738   8.643  19.157  0.00  0.00    +0.000 A 
ENDBRANCH   9  15
BRANCH  13  22
ATOM     22  C   UNL     1       7.528   6.680  17.230  0.00  0.00    +0.000 C 
ATOM     23  C   UNL     1       7.589   8.147  17.560  0.00  0.00    +0.000 C 
ATOM     24  C   UNL     1       8.091   7.147  18.554  0.00  0.00    +0.000 C 
ENDBRANCH  13  22
TORSDOF 2
ENDMDL
MODEL 8
REMARK VINA RESULT:      -7.4      4.267      7.208
REMARK  Name = 
REMARK  2 active torsions:
REMARK  status: ('A' for Active; 'I' for Inactive)
REMARK    1  A    between atoms: C_9  and  C_10
REMARK    2  A    between atoms: N_20  and  C_21
REMARK                            x       y       z     vdW  Elec       q    Type
REMARK                         _______ _______ _______ _____ _____    ______ ____
ROOT
ATOM      1  O   UNL     1       1.128   2.941  18.744  0.00  0.00    +0.000 OA
ATOM      2  C   UNL     1       2.062   3.741  18.626  0.00  0.00    +0.000 C 
ATOM      3  C   UNL     1       1.747   5.141  18.110  0.00  0.00    +0.000 C 
ATOM      4  C   UNL     1       2.165   6.253  19.070  0.00  0.00    +0.000 C 
ATOM      5  N   UNL     1       3.342   7.045  18.669  0.00  0.00    +0.000 N 
ATOM      6  C   UNL     1       4.194   6.495  17.718  0.00  0.00    +0.000 A 
ATOM      7  N   UNL     1       4.417   7.274  16.649  0.00  0.00    +0.000 NA
ATOM      8  C   UNL     1       5.052   6.730  15.589  0.00  0.00    +0.000 A 
ATOM      9  C   UNL     1       5.495   5.412  15.509  0.00  0.00    +0.000 A 
ATOM     10  C   UNL     1       5.330   4.657  16.672  0.00  0.00    +0.000 A 
ATOM     11  C   UNL     1       4.699   5.204  17.804  0.00  0.00    +0.000 A 
ATOM     12  C   UNL     1       4.491   4.344  19.015  0.00  0.00    +0.000 C 
ATOM     13  N   UNL     1       3.384   3.382  18.900  0.00  0.00    +0.000 N 
ATOM     14  H   UNL     1       3.885   7.339  19.476  0.00  0.00    +0.000 HD
ENDROOT
BRANCH   9  15
ATOM     15  C   UNL     1       6.081   4.862  14.273  0.00  0.00    +0.000 A 
ATOM     16  C   UNL     1       7.323   5.324  13.794  0.00  0.00    +0.000 A 
ATOM     17  C   UNL     1       7.909   4.781  12.649  0.00  0.00    +0.000 A 
ATOM     18  C   UNL     1       7.252   3.780  11.944  0.00  0.00    +0.000 A 
ATOM     19  C   UNL     1       6.011   3.330  12.381  0.00  0.00    +0.000 A 
ATOM     20 CL   UNL     1       5.191   2.099  11.502  0.00  0.00    +0.000 Cl
ATOM     21  C   UNL     1       5.429   3.861  13.534  0.00  0.00    +0.000 A 
ENDBRANCH   9  15
BRANCH  13  22
ATOM     22  C   UNL     1       3.666   2.098  19.523  0.00  0.00    +0.000 C 
ATOM     23  C   UNL     1       4.841   1.782  20.409  0.00  0.00    +0.000 C 
ATOM     24  C   UNL     1       3.486   1.964  21.018  0.00  0.00    +0.000 C 
ENDBRANCH  13  22
TORSDOF 2
ENDMDL
MODEL 9
REMARK VINA RESULT:      -7.3      1.533      1.774
REMARK  Name = 
REMARK  2 active torsions:
REMARK  status: ('A' for Active; 'I' for Inactive)
REMARK    1  A    between atoms: C_9  and  C_10
REMARK    2  A    between atoms: N_20  and  C_21
REMARK                            x       y       z     vdW  Elec       q    Type
REMARK                         _______ _______ _______ _____ _____    ______ ____
ROOT
ATOM      1  O   UNL     1       7.386   5.647  15.487  0.00  0.00    +0.000 OA
ATOM      2  C   UNL     1       6.518   5.205  16.247  0.00  0.00    +0.000 C 
ATOM      3  C   UNL     1       5.245   4.636  15.628  0.00  0.00    +0.000 C 
ATOM      4  C   UNL     1       4.978   3.182  16.011  0.00  0.00    +0.000 C 
ATOM      5  N   UNL     1       3.875   2.956  16.963  0.00  0.00    +0.000 N 
ATOM      6  C   UNL     1       3.451   4.038  17.726  0.00  0.00    +0.000 A 
ATOM      7  N   UNL     1       2.139   4.302  17.642  0.00  0.00    +0.000 NA
ATOM      8  C   UNL     1       1.689   5.459  18.175  0.00  0.00    +0.000 A 
ATOM      9  C   UNL     1       2.484   6.413  18.807  0.00  0.00    +0.000 A 
ATOM     10  C   UNL     1       3.827   6.063  18.959  0.00  0.00    +0.000 A 
ATOM     11  C   UNL     1       4.320   4.852  18.441  0.00  0.00    +0.000 A 
ATOM     12  C   UNL     1       5.780   4.537  18.576  0.00  0.00    +0.000 C 
ATOM     13  N   UNL     1       6.652   5.259  17.636  0.00  0.00    +0.000 N 
ATOM     14  H   UNL     1       4.067   2.169  17.575  0.00  0.00    +0.000 HD
ENDROOT
BRANCH   9  15
ATOM     15  C   UNL     1       1.934   7.702  19.265  0.00  0.00    +0.000 A 
ATOM     16  C   UNL     1       1.781   8.782  18.372  0.00  0.00    +0.000 A 
ATOM     17  C   UNL     1       1.222   9.993  18.784  0.00  0.00    +0.000 A 
ATOM     18  C   UNL     1       0.827  10.159  20.106  0.00  0.00    +0.000 A 
ATOM     19  C   UNL     1       0.997   9.117  21.011  0.00  0.00    +0.000 A 
ATOM     20 CL   UNL     1       0.520   9.325  22.651  0.00  0.00    +0.000 Cl
ATOM     21  C   UNL     1       1.542   7.900  20.600  0.00  0.00    +0.000 A 
ENDBRANCH   9  15
BRANCH  13  22
ATOM     22  C   UNL     1       7.919   5.671  18.221  0.00  0.00    +0.000 C 
ATOM     23  C   UNL     1       8.252   7.046  18.735  0.00  0.00    +0.000 C 
ATOM     24  C   UNL     1       7.974   5.944  19.708  0.00  0.00    +0.000 C 
ENDBRANCH  13  22
TORSDOF 2
ENDMDL
