MODEL 1
REMARK VINA RESULT:      -8.3      0.000      0.000
REMARK  Name = 
REMARK  9 active torsions:
REMARK  status: ('A' for Active; 'I' for Inactive)
REMARK    1  A    between atoms: C_2  and  C_3
REMARK    2  A    between atoms: C_3  and  O_4
REMARK    3  A    between atoms: O_4  and  C_5
REMARK    4  A    between atoms: C_8  and  N_9
REMARK    5  A    between atoms: N_14  and  C_15
REMARK    6  A    between atoms: C_19  and  C_20
REMARK    7  A    between atoms: N_22  and  C_23
REMARK    8  A    between atoms: C_28  and  C_29
REMARK    9  A    between atoms: C_29  and  O_31
REMARK                            x       y       z     vdW  Elec       q    Type
REMARK                         _______ _______ _______ _____ _____    ______ ____
ROOT
ATOM      1  C   UNL     1       2.309   7.248  19.587  0.00  0.00    +0.000 A 
ATOM      2  C   UNL     1       2.511   7.747  18.296  0.00  0.00    +0.000 A 
ATOM      3  C   UNL     1       1.926   8.947  17.893  0.00  0.00    +0.000 A 
ATOM      4  C   UNL     1       1.126   9.657  18.780  0.00  0.00    +0.000 A 
ATOM      5  C   UNL     1       0.930   9.189  20.087  0.00  0.00    +0.000 A 
ATOM      6  C   UNL     1       1.535   7.992  20.498  0.00  0.00    +0.000 A 
ENDROOT
BRANCH   1   9
ATOM      7  O   UNL     1       1.256   4.518  19.088  0.00  0.00    +0.000 OA
ATOM      8  C   UNL     1       2.261   4.745  19.757  0.00  0.00    +0.000 C 
ATOM      9  N   UNL     1       2.817   5.997  20.011  0.00  0.00    +0.000 N 
ATOM     10  H   UNL     1       3.619   6.029  20.628  0.00  0.00    +0.000 HD
BRANCH   8  11
ATOM     11  C   UNL     1       2.992   3.601  20.461  0.00  0.00    +0.000 C 
BRANCH  11  12
ATOM     12  O   UNL     1       3.609   2.744  19.507  0.00  0.00    +0.000 OA
BRANCH  12  13
ATOM     13  C   UNL     1       4.417   3.380  18.601  0.00  0.00    +0.000 A 
ATOM     14  C   UNL     1       5.517   4.059  19.132  0.00  0.00    +0.000 A 
ATOM     15  C   UNL     1       6.409   4.736  18.291  0.00  0.00    +0.000 A 
ATOM     16  C   UNL     1       6.200   4.714  16.907  0.00  0.00    +0.000 A 
ATOM     17  C   UNL     1       5.116   4.012  16.365  0.00  0.00    +0.000 A 
ATOM     18  C   UNL     1       4.228   3.345  17.216  0.00  0.00    +0.000 A 
BRANCH  16  19
ATOM     19  N   UNL     1       7.121   5.426  16.012  0.00  0.00    +0.000 N 
ATOM     20  O   UNL     1       7.516   6.546  16.363  0.00  0.00    +0.000 OA
ATOM     21  O   UNL     1       7.447   4.864  14.956  0.00  0.00    +0.000 OA
ENDBRANCH  16  19
ENDBRANCH  12  13
ENDBRANCH  11  12
ENDBRANCH   8  11
ENDBRANCH   1   9
BRANCH   5  22
ATOM     22  C   UNL     1      -0.062   9.925  20.921  0.00  0.00    +0.000 C 
ATOM     23  O   UNL     1      -0.556   9.310  21.862  0.00  0.00    +0.000 OA
ATOM     24  N   UNL     1      -0.371  11.228  20.559  0.00  0.00    +0.000 N 
ATOM     25  H   UNL     1      -0.179  11.504  19.595  0.00  0.00    +0.000 HD
BRANCH  24  26
ATOM     26  C   UNL     1      -1.222  12.102  21.306  0.00  0.00    +0.000 A 
ATOM     27  C   UNL     1      -0.894  12.495  22.611  0.00  0.00    +0.000 A 
ATOM     28  C   UNL     1      -1.737  13.310  23.369  0.00  0.00    +0.000 A 
ATOM     29  C   UNL     1      -2.935  13.759  22.833  0.00  0.00    +0.000 A 
ATOM     30  C   UNL     1      -3.276  13.415  21.527  0.00  0.00    +0.000 A 
ATOM     31  C   UNL     1      -2.411  12.618  20.746  0.00  0.00    +0.000 A 
BRANCH  31  32
ATOM     32  C   UNL     1      -2.788  12.300  19.345  0.00  0.00    +0.000 C 
ATOM     33  O   UNL     1      -1.960  12.139  18.461  0.00  0.00    +0.000 OA
BRANCH  32  34
ATOM     34  O   UNL     1      -4.114  12.297  19.108  0.00  0.00    +0.000 OA
ATOM     35  H   UNL     1      -4.421  11.681  18.415  0.00  0.00    +0.000 HD
ENDBRANCH  32  34
ENDBRANCH  31  32
ENDBRANCH  24  26
ENDBRANCH   5  22
TORSDOF 9
ENDMDL
MODEL 2
REMARK VINA RESULT:      -8.3      1.612      1.993
REMARK  Name = 
REMARK  9 active torsions:
REMARK  status: ('A' for Active; 'I' for Inactive)
REMARK    1  A    between atoms: C_2  and  C_3
REMARK    2  A    between atoms: C_3  and  O_4
REMARK    3  A    between atoms: O_4  and  C_5
REMARK    4  A    between atoms: C_8  and  N_9
REMARK    5  A    between atoms: N_14  and  C_15
REMARK    6  A    between atoms: C_19  and  C_20
REMARK    7  A    between atoms: N_22  and  C_23
REMARK    8  A    between atoms: C_28  and  C_29
REMARK    9  A    between atoms: C_29  and  O_31
REMARK                            x       y       z     vdW  Elec       q    Type
REMARK                         _______ _______ _______ _____ _____    ______ ____
ROOT
ATOM      1  C   UNL     1       2.189   7.412  19.628  0.00  0.00    +0.000 A 
ATOM      2  C   UNL     1       2.053   7.910  18.328  0.00  0.00    +0.000 A 
ATOM      3  C   UNL     1       1.451   9.146  18.094  0.00  0.00    +0.000 A 
ATOM      4  C   UNL     1       0.975   9.895  19.163  0.00  0.00    +0.000 A 
ATOM      5  C   UNL     1       1.124   9.429  20.477  0.00  0.00    +0.000 A 
ATOM      6  C   UNL     1       1.747   8.194  20.712  0.00  0.00    +0.000 A 
ENDROOT
BRANCH   1   9
ATOM      7  O   UNL     1       0.771   4.883  20.259  0.00  0.00    +0.000 OA
ATOM      8  C   UNL     1       1.995   4.981  20.214  0.00  0.00    +0.000 C 
ATOM      9  N   UNL     1       2.719   6.130  19.903  0.00  0.00    +0.000 N 
ATOM     10  H   UNL     1       3.728   6.068  19.960  0.00  0.00    +0.000 HD
BRANCH   8  11
ATOM     11  C   UNL     1       2.878   3.786  20.577  0.00  0.00    +0.000 C 
BRANCH  11  12
ATOM     12  O   UNL     1       3.226   3.052  19.408  0.00  0.00    +0.000 OA
BRANCH  12  13
ATOM     13  C   UNL     1       4.209   3.623  18.642  0.00  0.00    +0.000 A 
ATOM     14  C   UNL     1       3.933   3.735  17.276  0.00  0.00    +0.000 A 
ATOM     15  C   UNL     1       4.868   4.310  16.407  0.00  0.00    +0.000 A 
ATOM     16  C   UNL     1       6.079   4.789  16.920  0.00  0.00    +0.000 A 
ATOM     17  C   UNL     1       6.351   4.704  18.291  0.00  0.00    +0.000 A 
ATOM     18  C   UNL     1       5.412   4.122  19.149  0.00  0.00    +0.000 A 
BRANCH  16  19
ATOM     19  N   UNL     1       7.075   5.386  16.021  0.00  0.00    +0.000 N 
ATOM     20  O   UNL     1       7.540   6.492  16.326  0.00  0.00    +0.000 OA
ATOM     21  O   UNL     1       7.390   4.746  15.006  0.00  0.00    +0.000 OA
ENDBRANCH  16  19
ENDBRANCH  12  13
ENDBRANCH  11  12
ENDBRANCH   8  11
ENDBRANCH   1   9
BRANCH   5  22
ATOM     22  C   UNL     1       0.450  10.216  21.548  0.00  0.00    +0.000 C 
ATOM     23  O   UNL     1       0.654   9.859  22.705  0.00  0.00    +0.000 OA
ATOM     24  N   UNL     1      -0.369  11.266  21.161  0.00  0.00    +0.000 N 
ATOM     25  H   UNL     1      -0.732  11.249  20.207  0.00  0.00    +0.000 HD
BRANCH  24  26
ATOM     26  C   UNL     1      -1.006  12.178  22.060  0.00  0.00    +0.000 A 
ATOM     27  C   UNL     1      -2.113  11.787  22.827  0.00  0.00    +0.000 A 
ATOM     28  C   UNL     1      -2.774  12.679  23.674  0.00  0.00    +0.000 A 
ATOM     29  C   UNL     1      -2.339  13.992  23.776  0.00  0.00    +0.000 A 
ATOM     30  C   UNL     1      -1.222  14.405  23.052  0.00  0.00    +0.000 A 
ATOM     31  C   UNL     1      -0.531  13.498  22.221  0.00  0.00    +0.000 A 
BRANCH  31  32
ATOM     32  C   UNL     1       0.677  13.961  21.491  0.00  0.00    +0.000 C 
ATOM     33  O   UNL     1       1.761  13.406  21.593  0.00  0.00    +0.000 OA
BRANCH  32  34
ATOM     34  O   UNL     1       0.505  15.094  20.785  0.00  0.00    +0.000 OA
ATOM     35  H   UNL     1       1.050  15.181  19.979  0.00  0.00    +0.000 HD
ENDBRANCH  32  34
ENDBRANCH  31  32
ENDBRANCH  24  26
ENDBRANCH   5  22
TORSDOF 9
ENDMDL
MODEL 3
REMARK VINA RESULT:      -8.3      1.599      2.000
REMARK  Name = 
REMARK  9 active torsions:
REMARK  status: ('A' for Active; 'I' for Inactive)
REMARK    1  A    between atoms: C_2  and  C_3
REMARK    2  A    between atoms: C_3  and  O_4
REMARK    3  A    between atoms: O_4  and  C_5
REMARK    4  A    between atoms: C_8  and  N_9
REMARK    5  A    between atoms: N_14  and  C_15
REMARK    6  A    between atoms: C_19  and  C_20
REMARK    7  A    between atoms: N_22  and  C_23
REMARK    8  A    between atoms: C_28  and  C_29
REMARK    9  A    between atoms: C_29  and  O_31
REMARK                            x       y       z     vdW  Elec       q    Type
REMARK                         _______ _______ _______ _____ _____    ______ ____
ROOT
ATOM      1  C   UNL     1       2.037   7.679  19.998  0.00  0.00    +0.000 A 
ATOM      2  C   UNL     1       1.888   8.176  18.699  0.00  0.00    +0.000 A 
ATOM      3  C   UNL     1       1.224   9.380  18.466  0.00  0.00    +0.000 A 
ATOM      4  C   UNL     1       0.697  10.096  19.534  0.00  0.00    +0.000 A 
ATOM      5  C   UNL     1       0.857   9.631  20.847  0.00  0.00    +0.000 A 
ATOM      6  C   UNL     1       1.543   8.429  21.082  0.00  0.00    +0.000 A 
ENDROOT
BRANCH   1   9
ATOM      7  O   UNL     1       0.775   5.003  20.223  0.00  0.00    +0.000 OA
ATOM      8  C   UNL     1       1.977   5.201  20.385  0.00  0.00    +0.000 C 
ATOM      9  N   UNL     1       2.633   6.425  20.272  0.00  0.00    +0.000 N 
ATOM     10  H   UNL     1       3.622   6.440  20.489  0.00  0.00    +0.000 HD
BRANCH   8  11
ATOM     11  C   UNL     1       2.897   4.055  20.808  0.00  0.00    +0.000 C 
BRANCH  11  12
ATOM     12  O   UNL     1       3.106   3.158  19.723  0.00  0.00    +0.000 OA
BRANCH  12  13
ATOM     13  C   UNL     1       3.948   3.623  18.747  0.00  0.00    +0.000 A 
ATOM     14  C   UNL     1       5.198   4.074  19.180  0.00  0.00    +0.000 A 
ATOM     15  C   UNL     1       6.136   4.562  18.262  0.00  0.00    +0.000 A 
ATOM     16  C   UNL     1       5.817   4.580  16.899  0.00  0.00    +0.000 A 
ATOM     17  C   UNL     1       4.577   4.105  16.455  0.00  0.00    +0.000 A 
ATOM     18  C   UNL     1       3.647   3.625  17.382  0.00  0.00    +0.000 A 
BRANCH  16  19
ATOM     19  N   UNL     1       6.785   5.099  15.925  0.00  0.00    +0.000 N 
ATOM     20  O   UNL     1       6.878   4.516  14.836  0.00  0.00    +0.000 OA
ATOM     21  O   UNL     1       7.455   6.091  16.251  0.00  0.00    +0.000 OA
ENDBRANCH  16  19
ENDBRANCH  12  13
ENDBRANCH  11  12
ENDBRANCH   8  11
ENDBRANCH   1   9
BRANCH   5  22
ATOM     22  C   UNL     1       0.132  10.374  21.915  0.00  0.00    +0.000 C 
ATOM     23  O   UNL     1       0.334  10.014  23.072  0.00  0.00    +0.000 OA
ATOM     24  N   UNL     1      -0.728  11.390  21.526  0.00  0.00    +0.000 N 
ATOM     25  H   UNL     1      -1.074  11.368  20.566  0.00  0.00    +0.000 HD
BRANCH  24  26
ATOM     26  C   UNL     1      -1.420  12.262  22.423  0.00  0.00    +0.000 A 
ATOM     27  C   UNL     1      -2.543  11.825  23.139  0.00  0.00    +0.000 A 
ATOM     28  C   UNL     1      -3.257  12.678  23.983  0.00  0.00    +0.000 A 
ATOM     29  C   UNL     1      -2.859  13.998  24.136  0.00  0.00    +0.000 A 
ATOM     30  C   UNL     1      -1.727  14.457  23.465  0.00  0.00    +0.000 A 
ATOM     31  C   UNL     1      -0.983  13.589  22.637  0.00  0.00    +0.000 A 
BRANCH  31  32
ATOM     32  C   UNL     1       0.239  14.100  21.964  0.00  0.00    +0.000 C 
ATOM     33  O   UNL     1       0.599  13.706  20.865  0.00  0.00    +0.000 OA
BRANCH  32  34
ATOM     34  O   UNL     1       0.967  14.958  22.702  0.00  0.00    +0.000 OA
ATOM     35  H   UNL     1       1.012  14.766  23.659  0.00  0.00    +0.000 HD
ENDBRANCH  32  34
ENDBRANCH  31  32
ENDBRANCH  24  26
ENDBRANCH   5  22
TORSDOF 9
ENDMDL
MODEL 4
REMARK VINA RESULT:      -8.1      2.282     10.695
REMARK  Name = 
REMARK  9 active torsions:
REMARK  status: ('A' for Active; 'I' for Inactive)
REMARK    1  A    between atoms: C_2  and  C_3
REMARK    2  A    between atoms: C_3  and  O_4
REMARK    3  A    between atoms: O_4  and  C_5
REMARK    4  A    between atoms: C_8  and  N_9
REMARK    5  A    between atoms: N_14  and  C_15
REMARK    6  A    between atoms: C_19  and  C_20
REMARK    7  A    between atoms: N_22  and  C_23
REMARK    8  A    between atoms: C_28  and  C_29
REMARK    9  A    between atoms: C_29  and  O_31
REMARK                            x       y       z     vdW  Elec       q    Type
REMARK                         _______ _______ _______ _____ _____    ______ ____
ROOT
ATOM      1  C   UNL     1       1.881   5.887  20.476  0.00  0.00    +0.000 A 
ATOM      2  C   UNL     1       1.301   4.618  20.567  0.00  0.00    +0.000 A 
ATOM      3  C   UNL     1       1.619   3.618  19.648  0.00  0.00    +0.000 A 
ATOM      4  C   UNL     1       2.519   3.884  18.624  0.00  0.00    +0.000 A 
ATOM      5  C   UNL     1       3.133   5.140  18.527  0.00  0.00    +0.000 A 
ATOM      6  C   UNL     1       2.827   6.139  19.465  0.00  0.00    +0.000 A 
ENDROOT
BRANCH   1   9
ATOM      7  O   UNL     1       1.341   8.733  19.830  0.00  0.00    +0.000 OA
ATOM      8  C   UNL     1       1.306   8.278  20.971  0.00  0.00    +0.000 C 
ATOM      9  N   UNL     1       1.527   6.953  21.337  0.00  0.00    +0.000 N 
ATOM     10  H   UNL     1       1.517   6.740  22.327  0.00  0.00    +0.000 HD
BRANCH   8  11
ATOM     11  C   UNL     1       1.058   9.205  22.163  0.00  0.00    +0.000 C 
BRANCH  11  12
ATOM     12  O   UNL     1       1.036  10.563  21.740  0.00  0.00    +0.000 OA
BRANCH  12  13
ATOM     13  C   UNL     1      -0.201  11.155  21.770  0.00  0.00    +0.000 A 
ATOM     14  C   UNL     1      -0.874  11.103  22.994  0.00  0.00    +0.000 A 
ATOM     15  C   UNL     1      -2.140  11.683  23.134  0.00  0.00    +0.000 A 
ATOM     16  C   UNL     1      -2.723  12.333  22.040  0.00  0.00    +0.000 A 
ATOM     17  C   UNL     1      -2.043  12.413  20.819  0.00  0.00    +0.000 A 
ATOM     18  C   UNL     1      -0.781  11.824  20.689  0.00  0.00    +0.000 A 
BRANCH  16  19
ATOM     19  N   UNL     1      -4.055  12.938  22.168  0.00  0.00    +0.000 N 
ATOM     20  O   UNL     1      -4.913  12.628  21.330  0.00  0.00    +0.000 OA
ATOM     21  O   UNL     1      -4.241  13.726  23.107  0.00  0.00    +0.000 OA
ENDBRANCH  16  19
ENDBRANCH  12  13
ENDBRANCH  11  12
ENDBRANCH   8  11
ENDBRANCH   1   9
BRANCH   5  22
ATOM     22  C   UNL     1       3.963   5.391  17.315  0.00  0.00    +0.000 C 
ATOM     23  O   UNL     1       4.091   6.561  16.967  0.00  0.00    +0.000 OA
ATOM     24  N   UNL     1       4.501   4.292  16.662  0.00  0.00    +0.000 N 
ATOM     25  H   UNL     1       4.056   3.387  16.823  0.00  0.00    +0.000 HD
BRANCH  24  26
ATOM     26  C   UNL     1       5.397   4.362  15.550  0.00  0.00    +0.000 A 
ATOM     27  C   UNL     1       4.971   4.041  14.253  0.00  0.00    +0.000 A 
ATOM     28  C   UNL     1       5.845   4.060  13.164  0.00  0.00    +0.000 A 
ATOM     29  C   UNL     1       7.176   4.406  13.348  0.00  0.00    +0.000 A 
ATOM     30  C   UNL     1       7.625   4.762  14.618  0.00  0.00    +0.000 A 
ATOM     31  C   UNL     1       6.737   4.777  15.715  0.00  0.00    +0.000 A 
BRANCH  31  32
ATOM     32  C   UNL     1       7.240   5.196  17.048  0.00  0.00    +0.000 C 
ATOM     33  O   UNL     1       7.623   6.333  17.279  0.00  0.00    +0.000 OA
BRANCH  32  34
ATOM     34  O   UNL     1       7.329   4.203  17.952  0.00  0.00    +0.000 OA
ATOM     35  H   UNL     1       8.181   4.132  18.424  0.00  0.00    +0.000 HD
ENDBRANCH  32  34
ENDBRANCH  31  32
ENDBRANCH  24  26
ENDBRANCH   5  22
TORSDOF 9
ENDMDL
MODEL 5
REMARK VINA RESULT:      -8.0      2.006      2.445
REMARK  Name = 
REMARK  9 active torsions:
REMARK  status: ('A' for Active; 'I' for Inactive)
REMARK    1  A    between atoms: C_2  and  C_3
REMARK    2  A    between atoms: C_3  and  O_4
REMARK    3  A    between atoms: O_4  and  C_5
REMARK    4  A    between atoms: C_8  and  N_9
REMARK    5  A    between atoms: N_14  and  C_15
REMARK    6  A    between atoms: C_19  and  C_20
REMARK    7  A    between atoms: N_22  and  C_23
REMARK    8  A    between atoms: C_28  and  C_29
REMARK    9  A    between atoms: C_29  and  O_31
REMARK                            x       y       z     vdW  Elec       q    Type
REMARK                         _______ _______ _______ _____ _____    ______ ____
ROOT
ATOM      1  C   UNL     1       1.814   8.300  19.826  0.00  0.00    +0.000 A 
ATOM      2  C   UNL     1       1.616   8.878  18.568  0.00  0.00    +0.000 A 
ATOM      3  C   UNL     1       0.824  10.016  18.419  0.00  0.00    +0.000 A 
ATOM      4  C   UNL     1       0.218  10.585  19.533  0.00  0.00    +0.000 A 
ATOM      5  C   UNL     1       0.422  10.039  20.808  0.00  0.00    +0.000 A 
ATOM      6  C   UNL     1       1.235   8.905  20.958  0.00  0.00    +0.000 A 
ENDROOT
BRANCH   1   9
ATOM      7  O   UNL     1       2.054   5.947  18.034  0.00  0.00    +0.000 OA
ATOM      8  C   UNL     1       2.598   6.021  19.133  0.00  0.00    +0.000 C 
ATOM      9  N   UNL     1       2.542   7.101  20.010  0.00  0.00    +0.000 N 
ATOM     10  H   UNL     1       3.000   6.992  20.907  0.00  0.00    +0.000 HD
BRANCH   8  11
ATOM     11  C   UNL     1       3.381   4.828  19.687  0.00  0.00    +0.000 C 
BRANCH  11  12
ATOM     12  O   UNL     1       4.778   5.096  19.661  0.00  0.00    +0.000 OA
BRANCH  12  13
ATOM     13  C   UNL     1       5.346   5.066  18.415  0.00  0.00    +0.000 A 
ATOM     14  C   UNL     1       4.927   4.030  17.575  0.00  0.00    +0.000 A 
ATOM     15  C   UNL     1       5.441   3.913  16.278  0.00  0.00    +0.000 A 
ATOM     16  C   UNL     1       6.370   4.854  15.820  0.00  0.00    +0.000 A 
ATOM     17  C   UNL     1       6.775   5.910  16.645  0.00  0.00    +0.000 A 
ATOM     18  C   UNL     1       6.259   6.013  17.941  0.00  0.00    +0.000 A 
BRANCH  16  19
ATOM     19  N   UNL     1       6.927   4.740  14.466  0.00  0.00    +0.000 N 
ATOM     20  O   UNL     1       7.842   5.513  14.150  0.00  0.00    +0.000 OA
ATOM     21  O   UNL     1       6.445   3.876  13.717  0.00  0.00    +0.000 OA
ENDBRANCH  16  19
ENDBRANCH  12  13
ENDBRANCH  11  12
ENDBRANCH   8  11
ENDBRANCH   1   9
BRANCH   5  22
ATOM     22  C   UNL     1      -0.385  10.612  21.921  0.00  0.00    +0.000 C 
ATOM     23  O   UNL     1      -0.414   9.971  22.968  0.00  0.00    +0.000 OA
ATOM     24  N   UNL     1      -1.058  11.802  21.685  0.00  0.00    +0.000 N 
ATOM     25  H   UNL     1      -1.243  12.050  20.713  0.00  0.00    +0.000 HD
BRANCH  24  26
ATOM     26  C   UNL     1      -1.791  12.534  22.671  0.00  0.00    +0.000 A 
ATOM     27  C   UNL     1      -2.905  11.973  23.313  0.00  0.00    +0.000 A 
ATOM     28  C   UNL     1      -3.658  12.692  24.243  0.00  0.00    +0.000 A 
ATOM     29  C   UNL     1      -3.311  13.997  24.558  0.00  0.00    +0.000 A 
ATOM     30  C   UNL     1      -2.191  14.574  23.964  0.00  0.00    +0.000 A 
ATOM     31  C   UNL     1      -1.407  13.840  23.048  0.00  0.00    +0.000 A 
BRANCH  31  32
ATOM     32  C   UNL     1      -0.198  14.472  22.460  0.00  0.00    +0.000 C 
ATOM     33  O   UNL     1       0.848  13.863  22.294  0.00  0.00    +0.000 OA
BRANCH  32  34
ATOM     34  O   UNL     1      -0.318  15.790  22.215  0.00  0.00    +0.000 OA
ATOM     35  H   UNL     1      -0.931  16.035  21.494  0.00  0.00    +0.000 HD
ENDBRANCH  32  34
ENDBRANCH  31  32
ENDBRANCH  24  26
ENDBRANCH   5  22
TORSDOF 9
ENDMDL
MODEL 6
REMARK VINA RESULT:      -8.0      2.834      4.540
REMARK  Name = 
REMARK  9 active torsions:
REMARK  status: ('A' for Active; 'I' for Inactive)
REMARK    1  A    between atoms: C_2  and  C_3
REMARK    2  A    between atoms: C_3  and  O_4
REMARK    3  A    between atoms: O_4  and  C_5
REMARK    4  A    between atoms: C_8  and  N_9
REMARK    5  A    between atoms: N_14  and  C_15
REMARK    6  A    between atoms: C_19  and  C_20
REMARK    7  A    between atoms: N_22  and  C_23
REMARK    8  A    between atoms: C_28  and  C_29
REMARK    9  A    between atoms: C_29  and  O_31
REMARK                            x       y       z     vdW  Elec       q    Type
REMARK                         _______ _______ _______ _____ _____    ______ ____
ROOT
ATOM      1  C   UNL     1       4.111   5.903  18.418  0.00  0.00    +0.000 A 
ATOM      2  C   UNL     1       3.719   5.267  19.601  0.00  0.00    +0.000 A 
ATOM      3  C   UNL     1       2.664   5.765  20.365  0.00  0.00    +0.000 A 
ATOM      4  C   UNL     1       1.993   6.909  19.952  0.00  0.00    +0.000 A 
ATOM      5  C   UNL     1       2.350   7.549  18.757  0.00  0.00    +0.000 A 
ATOM      6  C   UNL     1       3.400   7.036  17.979  0.00  0.00    +0.000 A 
ENDROOT
BRANCH   1   9
ATOM      7  O   UNL     1       6.876   5.289  19.304  0.00  0.00    +0.000 OA
ATOM      8  C   UNL     1       6.509   5.225  18.133  0.00  0.00    +0.000 C 
ATOM      9  N   UNL     1       5.225   5.479  17.656  0.00  0.00    +0.000 N 
ATOM     10  H   UNL     1       5.089   5.439  16.653  0.00  0.00    +0.000 HD
BRANCH   8  11
ATOM     11  C   UNL     1       7.515   4.900  17.027  0.00  0.00    +0.000 C 
BRANCH  11  12
ATOM     12  O   UNL     1       7.240   5.670  15.863  0.00  0.00    +0.000 OA
BRANCH  12  13
ATOM     13  C   UNL     1       6.828   4.943  14.777  0.00  0.00    +0.000 A 
ATOM     14  C   UNL     1       5.555   4.373  14.868  0.00  0.00    +0.000 A 
ATOM     15  C   UNL     1       5.037   3.617  13.811  0.00  0.00    +0.000 A 
ATOM     16  C   UNL     1       5.798   3.448  12.648  0.00  0.00    +0.000 A 
ATOM     17  C   UNL     1       7.063   4.039  12.538  0.00  0.00    +0.000 A 
ATOM     18  C   UNL     1       7.573   4.787  13.603  0.00  0.00    +0.000 A 
BRANCH  16  19
ATOM     19  N   UNL     1       5.272   2.650  11.534  0.00  0.00    +0.000 N 
ATOM     20  O   UNL     1       5.966   1.713  11.117  0.00  0.00    +0.000 OA
ATOM     21  O   UNL     1       4.164   2.963  11.074  0.00  0.00    +0.000 OA
ENDBRANCH  16  19
ENDBRANCH  12  13
ENDBRANCH  11  12
ENDBRANCH   8  11
ENDBRANCH   1   9
BRANCH   5  22
ATOM     22  C   UNL     1       1.687   8.851  18.468  0.00  0.00    +0.000 C 
ATOM     23  O   UNL     1       2.145   9.509  17.538  0.00  0.00    +0.000 OA
ATOM     24  N   UNL     1       0.629   9.232  19.280  0.00  0.00    +0.000 N 
ATOM     25  H   UNL     1       0.567   8.798  20.202  0.00  0.00    +0.000 HD
BRANCH  24  26
ATOM     26  C   UNL     1      -0.175  10.397  19.080  0.00  0.00    +0.000 A 
ATOM     27  C   UNL     1      -1.195  10.418  18.118  0.00  0.00    +0.000 A 
ATOM     28  C   UNL     1      -1.959  11.562  17.878  0.00  0.00    +0.000 A 
ATOM     29  C   UNL     1      -1.721  12.721  18.603  0.00  0.00    +0.000 A 
ATOM     30  C   UNL     1      -0.737  12.725  19.590  0.00  0.00    +0.000 A 
ATOM     31  C   UNL     1       0.014  11.560  19.858  0.00  0.00    +0.000 A 
BRANCH  31  32
ATOM     32  C   UNL     1       1.031  11.588  20.941  0.00  0.00    +0.000 C 
ATOM     33  O   UNL     1       1.953  12.389  20.956  0.00  0.00    +0.000 OA
BRANCH  32  34
ATOM     34  O   UNL     1       0.909  10.602  21.849  0.00  0.00    +0.000 OA
ATOM     35  H   UNL     1       0.464  10.845  22.684  0.00  0.00    +0.000 HD
ENDBRANCH  32  34
ENDBRANCH  31  32
ENDBRANCH  24  26
ENDBRANCH   5  22
TORSDOF 9
ENDMDL
MODEL 7
REMARK VINA RESULT:      -7.9      2.153     10.429
REMARK  Name = 
REMARK  9 active torsions:
REMARK  status: ('A' for Active; 'I' for Inactive)
REMARK    1  A    between atoms: C_2  and  C_3
REMARK    2  A    between atoms: C_3  and  O_4
REMARK    3  A    between atoms: O_4  and  C_5
REMARK    4  A    between atoms: C_8  and  N_9
REMARK    5  A    between atoms: N_14  and  C_15
REMARK    6  A    between atoms: C_19  and  C_20
REMARK    7  A    between atoms: N_22  and  C_23
REMARK    8  A    between atoms: C_28  and  C_29
REMARK    9  A    between atoms: C_29  and  O_31
REMARK                            x       y       z     vdW  Elec       q    Type
REMARK                         _______ _______ _______ _____ _____    ______ ____
ROOT
ATOM      1  C   UNL     1       1.895   5.150  20.515  0.00  0.00    +0.000 A 
ATOM      2  C   UNL     1       1.145   4.026  20.877  0.00  0.00    +0.000 A 
ATOM      3  C   UNL     1       1.381   2.787  20.284  0.00  0.00    +0.000 A 
ATOM      4  C   UNL     1       2.372   2.662  19.317  0.00  0.00    +0.000 A 
ATOM      5  C   UNL     1       3.154   3.768  18.957  0.00  0.00    +0.000 A 
ATOM      6  C   UNL     1       2.928   5.011  19.569  0.00  0.00    +0.000 A 
ENDROOT
BRANCH   1   9
ATOM      7  O   UNL     1       2.080   7.790  19.173  0.00  0.00    +0.000 OA
ATOM      8  C   UNL     1       1.761   7.649  20.351  0.00  0.00    +0.000 C 
ATOM      9  N   UNL     1       1.635   6.441  21.032  0.00  0.00    +0.000 N 
ATOM     10  H   UNL     1       1.417   6.490  22.020  0.00  0.00    +0.000 HD
BRANCH   8  11
ATOM     11  C   UNL     1       1.519   8.874  21.235  0.00  0.00    +0.000 C 
BRANCH  11  12
ATOM     12  O   UNL     1       1.011   9.954  20.460  0.00  0.00    +0.000 OA
BRANCH  12  13
ATOM     13  C   UNL     1      -0.046  10.619  21.024  0.00  0.00    +0.000 A 
ATOM     14  C   UNL     1      -0.198  10.468  22.406  0.00  0.00    +0.000 A 
ATOM     15  C   UNL     1      -1.242  11.111  23.081  0.00  0.00    +0.000 A 
ATOM     16  C   UNL     1      -2.127  11.924  22.363  0.00  0.00    +0.000 A 
ATOM     17  C   UNL     1      -1.965  12.102  20.984  0.00  0.00    +0.000 A 
ATOM     18  C   UNL     1      -0.922  11.450  20.319  0.00  0.00    +0.000 A 
BRANCH  16  19
ATOM     19  N   UNL     1      -3.233  12.598  23.055  0.00  0.00    +0.000 N 
ATOM     20  O   UNL     1      -2.950  13.381  23.971  0.00  0.00    +0.000 OA
ATOM     21  O   UNL     1      -4.387  12.340  22.681  0.00  0.00    +0.000 OA
ENDBRANCH  16  19
ENDBRANCH  12  13
ENDBRANCH  11  12
ENDBRANCH   8  11
ENDBRANCH   1   9
BRANCH   5  22
ATOM     22  C   UNL     1       4.084   3.586  17.808  0.00  0.00    +0.000 C 
ATOM     23  O   UNL     1       4.308   2.430  17.457  0.00  0.00    +0.000 OA
ATOM     24  N   UNL     1       4.642   4.722  17.242  0.00  0.00    +0.000 N 
ATOM     25  H   UNL     1       4.665   5.568  17.814  0.00  0.00    +0.000 HD
BRANCH  24  26
ATOM     26  C   UNL     1       5.471   4.731  16.076  0.00  0.00    +0.000 A 
ATOM     27  C   UNL     1       5.059   4.111  14.888  0.00  0.00    +0.000 A 
ATOM     28  C   UNL     1       5.876   4.072  13.756  0.00  0.00    +0.000 A 
ATOM     29  C   UNL     1       7.132   4.659  13.785  0.00  0.00    +0.000 A 
ATOM     30  C   UNL     1       7.560   5.313  14.940  0.00  0.00    +0.000 A 
ATOM     31  C   UNL     1       6.723   5.384  16.074  0.00  0.00    +0.000 A 
BRANCH  31  32
ATOM     32  C   UNL     1       7.195   6.119  17.276  0.00  0.00    +0.000 C 
ATOM     33  O   UNL     1       7.326   5.583  18.366  0.00  0.00    +0.000 OA
BRANCH  32  34
ATOM     34  O   UNL     1       7.374   7.440  17.090  0.00  0.00    +0.000 OA
ATOM     35  H   UNL     1       8.223   7.702  16.684  0.00  0.00    +0.000 HD
ENDBRANCH  32  34
ENDBRANCH  31  32
ENDBRANCH  24  26
ENDBRANCH   5  22
TORSDOF 9
ENDMDL
MODEL 8
REMARK VINA RESULT:      -7.9      0.749      1.046
REMARK  Name = 
REMARK  9 active torsions:
REMARK  status: ('A' for Active; 'I' for Inactive)
REMARK    1  A    between atoms: C_2  and  C_3
REMARK    2  A    between atoms: C_3  and  O_4
REMARK    3  A    between atoms: O_4  and  C_5
REMARK    4  A    between atoms: C_8  and  N_9
REMARK    5  A    between atoms: N_14  and  C_15
REMARK    6  A    between atoms: C_19  and  C_20
REMARK    7  A    between atoms: N_22  and  C_23
REMARK    8  A    between atoms: C_28  and  C_29
REMARK    9  A    between atoms: C_29  and  O_31
REMARK                            x       y       z     vdW  Elec       q    Type
REMARK                         _______ _______ _______ _____ _____    ______ ____
ROOT
ATOM      1  C   UNL     1       2.307   7.417  19.459  0.00  0.00    +0.000 A 
ATOM      2  C   UNL     1       2.352   7.722  18.095  0.00  0.00    +0.000 A 
ATOM      3  C   UNL     1       1.873   8.941  17.618  0.00  0.00    +0.000 A 
ATOM      4  C   UNL     1       1.338   9.867  18.506  0.00  0.00    +0.000 A 
ATOM      5  C   UNL     1       1.307   9.595  19.881  0.00  0.00    +0.000 A 
ATOM      6  C   UNL     1       1.807   8.375  20.361  0.00  0.00    +0.000 A 
ENDROOT
BRANCH   1   9
ATOM      7  O   UNL     1       1.263   4.707  18.847  0.00  0.00    +0.000 OA
ATOM      8  C   UNL     1       2.160   4.921  19.658  0.00  0.00    +0.000 C 
ATOM      9  N   UNL     1       2.708   6.162  19.975  0.00  0.00    +0.000 N 
ATOM     10  H   UNL     1       3.407   6.184  20.707  0.00  0.00    +0.000 HD
BRANCH   8  11
ATOM     11  C   UNL     1       2.742   3.771  20.483  0.00  0.00    +0.000 C 
BRANCH  11  12
ATOM     12  O   UNL     1       3.432   2.855  19.641  0.00  0.00    +0.000 OA
BRANCH  12  13
ATOM     13  C   UNL     1       4.274   3.435  18.728  0.00  0.00    +0.000 A 
ATOM     14  C   UNL     1       5.393   4.086  19.254  0.00  0.00    +0.000 A 
ATOM     15  C   UNL     1       6.319   4.706  18.406  0.00  0.00    +0.000 A 
ATOM     16  C   UNL     1       6.124   4.655  17.021  0.00  0.00    +0.000 A 
ATOM     17  C   UNL     1       5.019   3.981  16.485  0.00  0.00    +0.000 A 
ATOM     18  C   UNL     1       4.098   3.371  17.342  0.00  0.00    +0.000 A 
BRANCH  16  19
ATOM     19  N   UNL     1       7.080   5.308  16.118  0.00  0.00    +0.000 N 
ATOM     20  O   UNL     1       7.485   4.664  15.141  0.00  0.00    +0.000 OA
ATOM     21  O   UNL     1       7.428   6.467  16.390  0.00  0.00    +0.000 OA
ENDBRANCH  16  19
ENDBRANCH  12  13
ENDBRANCH  11  12
ENDBRANCH   8  11
ENDBRANCH   1   9
BRANCH   5  22
ATOM     22  C   UNL     1       0.580  10.569  20.741  0.00  0.00    +0.000 C 
ATOM     23  O   UNL     1       1.268  11.340  21.406  0.00  0.00    +0.000 OA
ATOM     24  N   UNL     1      -0.806  10.517  20.749  0.00  0.00    +0.000 N 
ATOM     25  H   UNL     1      -1.243   9.645  20.448  0.00  0.00    +0.000 HD
BRANCH  24  26
ATOM     26  C   UNL     1      -1.654  11.440  21.437  0.00  0.00    +0.000 A 
ATOM     27  C   UNL     1      -1.680  11.496  22.838  0.00  0.00    +0.000 A 
ATOM     28  C   UNL     1      -2.537  12.359  23.525  0.00  0.00    +0.000 A 
ATOM     29  C   UNL     1      -3.391  13.195  22.822  0.00  0.00    +0.000 A 
ATOM     30  C   UNL     1      -3.368  13.189  21.429  0.00  0.00    +0.000 A 
ATOM     31  C   UNL     1      -2.480  12.342  20.731  0.00  0.00    +0.000 A 
BRANCH  31  32
ATOM     32  C   UNL     1      -2.455  12.386  19.246  0.00  0.00    +0.000 C 
ATOM     33  O   UNL     1      -3.280  11.806  18.557  0.00  0.00    +0.000 OA
BRANCH  32  34
ATOM     34  O   UNL     1      -1.397  13.035  18.722  0.00  0.00    +0.000 OA
ATOM     35  H   UNL     1      -1.008  12.636  17.920  0.00  0.00    +0.000 HD
ENDBRANCH  32  34
ENDBRANCH  31  32
ENDBRANCH  24  26
ENDBRANCH   5  22
TORSDOF 9
ENDMDL
MODEL 9
REMARK VINA RESULT:      -7.9      1.468      1.879
REMARK  Name = 
REMARK  9 active torsions:
REMARK  status: ('A' for Active; 'I' for Inactive)
REMARK    1  A    between atoms: C_2  and  C_3
REMARK    2  A    between atoms: C_3  and  O_4
REMARK    3  A    between atoms: O_4  and  C_5
REMARK    4  A    between atoms: C_8  and  N_9
REMARK    5  A    between atoms: N_14  and  C_15
REMARK    6  A    between atoms: C_19  and  C_20
REMARK    7  A    between atoms: N_22  and  C_23
REMARK    8  A    between atoms: C_28  and  C_29
REMARK    9  A    between atoms: C_29  and  O_31
REMARK                            x       y       z     vdW  Elec       q    Type
REMARK                         _______ _______ _______ _____ _____    ______ ____
ROOT
ATOM      1  C   UNL     1       2.362   7.274  19.477  0.00  0.00    +0.000 A 
ATOM      2  C   UNL     1       2.735   7.576  18.163  0.00  0.00    +0.000 A 
ATOM      3  C   UNL     1       2.282   8.737  17.539  0.00  0.00    +0.000 A 
ATOM      4  C   UNL     1       1.445   9.608  18.227  0.00  0.00    +0.000 A 
ATOM      5  C   UNL     1       1.079   9.341  19.553  0.00  0.00    +0.000 A 
ATOM      6  C   UNL     1       1.552   8.181  20.186  0.00  0.00    +0.000 A 
ENDROOT
BRANCH   1   9
ATOM      7  O   UNL     1       1.190   4.561  19.214  0.00  0.00    +0.000 OA
ATOM      8  C   UNL     1       2.125   4.825  19.966  0.00  0.00    +0.000 C 
ATOM      9  N   UNL     1       2.733   6.069  20.119  0.00  0.00    +0.000 N 
ATOM     10  H   UNL     1       3.460   6.144  20.820  0.00  0.00    +0.000 HD
BRANCH   8  11
ATOM     11  C   UNL     1       2.693   3.752  20.896  0.00  0.00    +0.000 C 
BRANCH  11  12
ATOM     12  O   UNL     1       3.491   2.830  20.163  0.00  0.00    +0.000 OA
BRANCH  12  13
ATOM     13  C   UNL     1       4.180   3.375  19.111  0.00  0.00    +0.000 A 
ATOM     14  C   UNL     1       5.269   4.186  19.446  0.00  0.00    +0.000 A 
ATOM     15  C   UNL     1       6.043   4.785  18.446  0.00  0.00    +0.000 A 
ATOM     16  C   UNL     1       5.728   4.554  17.102  0.00  0.00    +0.000 A 
ATOM     17  C   UNL     1       4.656   3.722  16.758  0.00  0.00    +0.000 A 
ATOM     18  C   UNL     1       3.886   3.133  17.766  0.00  0.00    +0.000 A 
BRANCH  16  19
ATOM     19  N   UNL     1       6.525   5.184  16.041  0.00  0.00    +0.000 N 
ATOM     20  O   UNL     1       6.038   6.161  15.455  0.00  0.00    +0.000 OA
ATOM     21  O   UNL     1       7.639   4.698  15.793  0.00  0.00    +0.000 OA
ENDBRANCH  16  19
ENDBRANCH  12  13
ENDBRANCH  11  12
ENDBRANCH   8  11
ENDBRANCH   1   9
BRANCH   5  22
ATOM     22  C   UNL     1       0.060  10.240  20.163  0.00  0.00    +0.000 C 
ATOM     23  O   UNL     1      -1.029  10.302  19.598  0.00  0.00    +0.000 OA
ATOM     24  N   UNL     1       0.421  10.954  21.295  0.00  0.00    +0.000 N 
ATOM     25  H   UNL     1       1.419  11.092  21.463  0.00  0.00    +0.000 HD
BRANCH  24  26
ATOM     26  C   UNL     1      -0.463  11.780  22.057  0.00  0.00    +0.000 A 
ATOM     27  C   UNL     1      -1.455  11.220  22.875  0.00  0.00    +0.000 A 
ATOM     28  C   UNL     1      -2.356  12.013  23.589  0.00  0.00    +0.000 A 
ATOM     29  C   UNL     1      -2.283  13.396  23.504  0.00  0.00    +0.000 A 
ATOM     30  C   UNL     1      -1.288  13.986  22.726  0.00  0.00    +0.000 A 
ATOM     31  C   UNL     1      -0.355  13.188  22.030  0.00  0.00    +0.000 A 
BRANCH  31  32
ATOM     32  C   UNL     1       0.715  13.849  21.239  0.00  0.00    +0.000 C 
ATOM     33  O   UNL     1       0.474  14.594  20.301  0.00  0.00    +0.000 OA
BRANCH  32  34
ATOM     34  O   UNL     1       1.967  13.486  21.576  0.00  0.00    +0.000 OA
ATOM     35  H   UNL     1       2.200  13.589  22.519  0.00  0.00    +0.000 HD
ENDBRANCH  32  34
ENDBRANCH  31  32
ENDBRANCH  24  26
ENDBRANCH   5  22
TORSDOF 9
ENDMDL
