MODEL 1
REMARK VINA RESULT:      -7.5      0.000      0.000
REMARK  Name = 
REMARK  9 active torsions:
REMARK  status: ('A' for Active; 'I' for Inactive)
REMARK    1  A    between atoms: C_1  and  O_2
REMARK    2  A    between atoms: O_2  and  C_3
REMARK    3  A    between atoms: C_8  and  C_9
REMARK    4  A    between atoms: C_9  and  N_10
REMARK    5  A    between atoms: N_10  and  C_11
REMARK    6  A    between atoms: C_11  and  C_12
REMARK    7  A    between atoms: C_12  and  C_13
REMARK    8  A    between atoms: C_13  and  N_14
REMARK    9  A    between atoms: N_17  and  C_18
REMARK                            x       y       z     vdW  Elec       q    Type
REMARK                         _______ _______ _______ _____ _____    ______ ____
ROOT
ATOM      1  C   UNL     1       7.969   6.271  18.744  0.00  0.00    +0.000 C 
ENDROOT
BRANCH   1   2
ATOM      2  C   UNL     1       7.876   7.625  18.017  0.00  0.00    +0.000 C 
BRANCH   2   3
ATOM      3  N   UNL     1       8.581   8.673  18.754  0.00  0.00    +0.000 NA
ATOM      4  H   UNL     1       8.085   8.902  19.616  0.00  0.00    +0.000 HD
BRANCH   3   5
ATOM      5  C   UNL     1       8.708   9.912  17.990  0.00  0.00    +0.000 C 
BRANCH   5  11
ATOM      6  C   UNL     1       9.868  12.080  20.928  0.00  0.00    +0.000 A 
ATOM      7  C   UNL     1      10.821  12.890  20.311  0.00  0.00    +0.000 A 
ATOM      8  C   UNL     1      11.084  12.730  18.951  0.00  0.00    +0.000 A 
ATOM      9 CL   UNL     1      12.270  13.722  18.192  0.00  0.00    +0.000 Cl
ATOM     10  C   UNL     1      10.402  11.776  18.200  0.00  0.00    +0.000 A 
ATOM     11  C   UNL     1       9.447  10.948  18.807  0.00  0.00    +0.000 A 
ATOM     12  C   UNL     1       9.202  11.101  20.181  0.00  0.00    +0.000 A 
BRANCH   6  14
ATOM     13  C   UNL     1       8.414  12.943  22.583  0.00  0.00    +0.000 C 
ATOM     14  O   UNL     1       9.535  12.127  22.255  0.00  0.00    +0.000 OA
ENDBRANCH   6  14
ENDBRANCH   5  11
ENDBRANCH   3   5
ENDBRANCH   2   3
ENDBRANCH   1   2
BRANCH   1  15
ATOM     15  C   UNL     1       7.475   5.136  17.861  0.00  0.00    +0.000 C 
BRANCH  15  16
ATOM     16  N   UNL     1       6.777   4.074  18.556  0.00  0.00    +0.000 N 
ATOM     17  C   UNL     1       5.403   4.227  18.632  0.00  0.00    +0.000 C 
ATOM     18  O   UNL     1       4.841   5.208  18.157  0.00  0.00    +0.000 OA
ATOM     19  N   UNL     1       4.800   3.195  19.312  0.00  0.00    +0.000 N 
ATOM     20  H   UNL     1       7.097   3.126  18.420  0.00  0.00    +0.000 HD
ATOM     21  H   UNL     1       5.398   2.682  19.942  0.00  0.00    +0.000 HD
BRANCH  19  22
ATOM     22  C   UNL     1       3.404   3.066  19.498  0.00  0.00    +0.000 A 
ATOM     23  C   UNL     1       2.722   3.674  20.560  0.00  0.00    +0.000 A 
ATOM     24  C   UNL     1       1.352   3.488  20.730  0.00  0.00    +0.000 A 
ATOM     25  C   UNL     1       0.639   2.703  19.833  0.00  0.00    +0.000 A 
ATOM     26  C   UNL     1       1.298   2.117  18.757  0.00  0.00    +0.000 A 
ATOM     27  C   UNL     1       2.676   2.304  18.582  0.00  0.00    +0.000 A 
ENDBRANCH  19  22
ENDBRANCH  15  16
ENDBRANCH   1  15
TORSDOF 8
ENDMDL
MODEL 2
REMARK VINA RESULT:      -7.4      5.351      7.695
REMARK  Name = 
REMARK  9 active torsions:
REMARK  status: ('A' for Active; 'I' for Inactive)
REMARK    1  A    between atoms: C_1  and  O_2
REMARK    2  A    between atoms: O_2  and  C_3
REMARK    3  A    between atoms: C_8  and  C_9
REMARK    4  A    between atoms: C_9  and  N_10
REMARK    5  A    between atoms: N_10  and  C_11
REMARK    6  A    between atoms: C_11  and  C_12
REMARK    7  A    between atoms: C_12  and  C_13
REMARK    8  A    between atoms: C_13  and  N_14
REMARK    9  A    between atoms: N_17  and  C_18
REMARK                            x       y       z     vdW  Elec       q    Type
REMARK                         _______ _______ _______ _____ _____    ______ ____
ROOT
ATOM      1  C   UNL     1       1.604   2.488  19.959  0.00  0.00    +0.000 C 
ENDROOT
BRANCH   1   2
ATOM      2  C   UNL     1       2.790   2.285  18.998  0.00  0.00    +0.000 C 
BRANCH   2   3
ATOM      3  N   UNL     1       2.543   2.925  17.707  0.00  0.00    +0.000 NA
ATOM      4  H   UNL     1       3.003   2.410  16.956  0.00  0.00    +0.000 HD
BRANCH   3   5
ATOM      5  C   UNL     1       3.042   4.297  17.653  0.00  0.00    +0.000 C 
BRANCH   5  11
ATOM      6  C   UNL     1       6.865   4.497  17.529  0.00  0.00    +0.000 A 
ATOM      7  C   UNL     1       7.104   4.345  16.163  0.00  0.00    +0.000 A 
ATOM      8  C   UNL     1       6.029   4.176  15.292  0.00  0.00    +0.000 A 
ATOM      9 CL   UNL     1       6.324   3.976  13.607  0.00  0.00    +0.000 Cl
ATOM     10  C   UNL     1       4.720   4.166  15.767  0.00  0.00    +0.000 A 
ATOM     11  C   UNL     1       4.464   4.309  17.138  0.00  0.00    +0.000 A 
ATOM     12  C   UNL     1       5.552   4.459  18.012  0.00  0.00    +0.000 A 
BRANCH   6  14
ATOM     13  C   UNL     1       7.610   5.692  19.431  0.00  0.00    +0.000 C 
ATOM     14  O   UNL     1       7.834   4.651  18.485  0.00  0.00    +0.000 OA
ENDBRANCH   6  14
ENDBRANCH   5  11
ENDBRANCH   3   5
ENDBRANCH   2   3
ENDBRANCH   1   2
BRANCH   1  15
ATOM     15  C   UNL     1       2.048   3.162  21.248  0.00  0.00    +0.000 C 
BRANCH  15  16
ATOM     16  N   UNL     1       2.661   4.463  21.082  0.00  0.00    +0.000 N 
ATOM     17  C   UNL     1       1.834   5.438  20.550  0.00  0.00    +0.000 C 
ATOM     18  O   UNL     1       0.677   5.190  20.229  0.00  0.00    +0.000 OA
ATOM     19  N   UNL     1       2.475   6.646  20.408  0.00  0.00    +0.000 N 
ATOM     20  H   UNL     1       3.297   4.784  21.798  0.00  0.00    +0.000 HD
ATOM     21  H   UNL     1       3.483   6.600  20.361  0.00  0.00    +0.000 HD
BRANCH  19  22
ATOM     22  C   UNL     1       1.860   7.829  19.937  0.00  0.00    +0.000 A 
ATOM     23  C   UNL     1       1.066   8.645  20.752  0.00  0.00    +0.000 A 
ATOM     24  C   UNL     1       0.444   9.782  20.238  0.00  0.00    +0.000 A 
ATOM     25  C   UNL     1       0.619  10.127  18.905  0.00  0.00    +0.000 A 
ATOM     26  C   UNL     1       1.429   9.343  18.090  0.00  0.00    +0.000 A 
ATOM     27  C   UNL     1       2.057   8.200  18.605  0.00  0.00    +0.000 A 
ENDBRANCH  19  22
ENDBRANCH  15  16
ENDBRANCH   1  15
TORSDOF 8
ENDMDL
MODEL 3
REMARK VINA RESULT:      -7.4      5.035      7.514
REMARK  Name = 
REMARK  9 active torsions:
REMARK  status: ('A' for Active; 'I' for Inactive)
REMARK    1  A    between atoms: C_1  and  O_2
REMARK    2  A    between atoms: O_2  and  C_3
REMARK    3  A    between atoms: C_8  and  C_9
REMARK    4  A    between atoms: C_9  and  N_10
REMARK    5  A    between atoms: N_10  and  C_11
REMARK    6  A    between atoms: C_11  and  C_12
REMARK    7  A    between atoms: C_12  and  C_13
REMARK    8  A    between atoms: C_13  and  N_14
REMARK    9  A    between atoms: N_17  and  C_18
REMARK                            x       y       z     vdW  Elec       q    Type
REMARK                         _______ _______ _______ _____ _____    ______ ____
ROOT
ATOM      1  C   UNL     1       2.790   2.103  20.188  0.00  0.00    +0.000 C 
ENDROOT
BRANCH   1   2
ATOM      2  C   UNL     1       4.212   2.670  20.026  0.00  0.00    +0.000 C 
BRANCH   2   3
ATOM      3  N   UNL     1       4.233   3.792  19.089  0.00  0.00    +0.000 NA
ATOM      4  H   UNL     1       3.492   4.457  19.307  0.00  0.00    +0.000 HD
BRANCH   3   5
ATOM      5  C   UNL     1       4.037   3.372  17.703  0.00  0.00    +0.000 C 
BRANCH   5  11
ATOM      6  C   UNL     1       6.914   5.591  16.489  0.00  0.00    +0.000 A 
ATOM      7  C   UNL     1       7.013   5.205  15.153  0.00  0.00    +0.000 A 
ATOM      8  C   UNL     1       6.152   4.229  14.653  0.00  0.00    +0.000 A 
ATOM      9 CL   UNL     1       6.282   3.744  13.006  0.00  0.00    +0.000 Cl
ATOM     10  C   UNL     1       5.189   3.641  15.470  0.00  0.00    +0.000 A 
ATOM     11  C   UNL     1       5.082   4.012  16.817  0.00  0.00    +0.000 A 
ATOM     12  C   UNL     1       5.966   4.981  17.319  0.00  0.00    +0.000 A 
BRANCH   6  14
ATOM     13  C   UNL     1       7.729   6.479  18.525  0.00  0.00    +0.000 C 
ATOM     14  O   UNL     1       7.712   6.521  17.101  0.00  0.00    +0.000 OA
ENDBRANCH   6  14
ENDBRANCH   5  11
ENDBRANCH   3   5
ENDBRANCH   2   3
ENDBRANCH   1   2
BRANCH   1  15
ATOM     15  C   UNL     1       1.988   2.905  21.200  0.00  0.00    +0.000 C 
BRANCH  15  16
ATOM     16  N   UNL     1       2.418   4.276  21.378  0.00  0.00    +0.000 N 
ATOM     17  C   UNL     1       1.900   5.177  20.462  0.00  0.00    +0.000 C 
ATOM     18  O   UNL     1       1.151   4.815  19.561  0.00  0.00    +0.000 OA
ATOM     19  N   UNL     1       2.353   6.458  20.676  0.00  0.00    +0.000 N 
ATOM     20  H   UNL     1       2.510   4.628  22.320  0.00  0.00    +0.000 HD
ATOM     21  H   UNL     1       3.217   6.532  21.193  0.00  0.00    +0.000 HD
BRANCH  19  22
ATOM     22  C   UNL     1       1.950   7.586  19.925  0.00  0.00    +0.000 A 
ATOM     23  C   UNL     1       2.328   7.781  18.590  0.00  0.00    +0.000 A 
ATOM     24  C   UNL     1       1.943   8.927  17.898  0.00  0.00    +0.000 A 
ATOM     25  C   UNL     1       1.162   9.890  18.525  0.00  0.00    +0.000 A 
ATOM     26  C   UNL     1       0.755   9.696  19.840  0.00  0.00    +0.000 A 
ATOM     27  C   UNL     1       1.139   8.543  20.539  0.00  0.00    +0.000 A 
ENDBRANCH  19  22
ENDBRANCH  15  16
ENDBRANCH   1  15
TORSDOF 8
ENDMDL
MODEL 4
REMARK VINA RESULT:      -7.3      3.124      9.638
REMARK  Name = 
REMARK  9 active torsions:
REMARK  status: ('A' for Active; 'I' for Inactive)
REMARK    1  A    between atoms: C_1  and  O_2
REMARK    2  A    between atoms: O_2  and  C_3
REMARK    3  A    between atoms: C_8  and  C_9
REMARK    4  A    between atoms: C_9  and  N_10
REMARK    5  A    between atoms: N_10  and  C_11
REMARK    6  A    between atoms: C_11  and  C_12
REMARK    7  A    between atoms: C_12  and  C_13
REMARK    8  A    between atoms: C_13  and  N_14
REMARK    9  A    between atoms: N_17  and  C_18
REMARK                            x       y       z     vdW  Elec       q    Type
REMARK                         _______ _______ _______ _____ _____    ______ ____
ROOT
ATOM      1  C   UNL     1       7.000   5.882  16.544  0.00  0.00    +0.000 C 
ENDROOT
BRANCH   1   2
ATOM      2  C   UNL     1       6.858   4.770  17.600  0.00  0.00    +0.000 C 
BRANCH   2   3
ATOM      3  N   UNL     1       5.921   3.738  17.162  0.00  0.00    +0.000 NA
ATOM      4  H   UNL     1       6.330   3.173  16.418  0.00  0.00    +0.000 HD
BRANCH   3   5
ATOM      5  C   UNL     1       4.674   4.293  16.641  0.00  0.00    +0.000 C 
BRANCH   5  11
ATOM      6  C   UNL     1       2.243   3.751  19.551  0.00  0.00    +0.000 A 
ATOM      7  C   UNL     1       1.912   5.064  19.881  0.00  0.00    +0.000 A 
ATOM      8  C   UNL     1       2.478   6.117  19.163  0.00  0.00    +0.000 A 
ATOM      9 CL   UNL     1       2.080   7.740  19.579  0.00  0.00    +0.000 Cl
ATOM     10  C   UNL     1       3.364   5.872  18.116  0.00  0.00    +0.000 A 
ATOM     11  C   UNL     1       3.712   4.557  17.778  0.00  0.00    +0.000 A 
ATOM     12  C   UNL     1       3.154   3.503  18.517  0.00  0.00    +0.000 A 
BRANCH   6  14
ATOM     13  C   UNL     1       1.676   2.730  21.609  0.00  0.00    +0.000 C 
ATOM     14  O   UNL     1       1.770   2.636  20.191  0.00  0.00    +0.000 OA
ENDBRANCH   6  14
ENDBRANCH   5  11
ENDBRANCH   3   5
ENDBRANCH   2   3
ENDBRANCH   1   2
BRANCH   1  15
ATOM     15  C   UNL     1       6.884   7.260  17.175  0.00  0.00    +0.000 C 
BRANCH  15  16
ATOM     16  N   UNL     1       7.953   7.611  18.087  0.00  0.00    +0.000 N 
ATOM     17  C   UNL     1       8.194   8.970  18.213  0.00  0.00    +0.000 C 
ATOM     18  O   UNL     1       7.552   9.795  17.573  0.00  0.00    +0.000 OA
ATOM     19  N   UNL     1       9.224   9.238  19.083  0.00  0.00    +0.000 N 
ATOM     20  H   UNL     1       8.044   7.079  18.940  0.00  0.00    +0.000 HD
ATOM     21  H   UNL     1       9.874   8.481  19.234  0.00  0.00    +0.000 HD
BRANCH  19  22
ATOM     22  C   UNL     1       9.653  10.538  19.440  0.00  0.00    +0.000 A 
ATOM     23  C   UNL     1      10.311  11.390  18.544  0.00  0.00    +0.000 A 
ATOM     24  C   UNL     1      10.754  12.648  18.948  0.00  0.00    +0.000 A 
ATOM     25  C   UNL     1      10.532  13.079  20.250  0.00  0.00    +0.000 A 
ATOM     26  C   UNL     1       9.854  12.255  21.142  0.00  0.00    +0.000 A 
ATOM     27  C   UNL     1       9.405  10.990  20.738  0.00  0.00    +0.000 A 
ENDBRANCH  19  22
ENDBRANCH  15  16
ENDBRANCH   1  15
TORSDOF 8
ENDMDL
MODEL 5
REMARK VINA RESULT:      -7.3      3.747      9.529
REMARK  Name = 
REMARK  9 active torsions:
REMARK  status: ('A' for Active; 'I' for Inactive)
REMARK    1  A    between atoms: C_1  and  O_2
REMARK    2  A    between atoms: O_2  and  C_3
REMARK    3  A    between atoms: C_8  and  C_9
REMARK    4  A    between atoms: C_9  and  N_10
REMARK    5  A    between atoms: N_10  and  C_11
REMARK    6  A    between atoms: C_11  and  C_12
REMARK    7  A    between atoms: C_12  and  C_13
REMARK    8  A    between atoms: C_13  and  N_14
REMARK    9  A    between atoms: N_17  and  C_18
REMARK                            x       y       z     vdW  Elec       q    Type
REMARK                         _______ _______ _______ _____ _____    ______ ____
ROOT
ATOM      1  C   UNL     1       7.542   5.470  18.513  0.00  0.00    +0.000 C 
ENDROOT
BRANCH   1   2
ATOM      2  C   UNL     1       7.164   4.560  17.329  0.00  0.00    +0.000 C 
BRANCH   2   3
ATOM      3  N   UNL     1       5.873   3.911  17.549  0.00  0.00    +0.000 NA
ATOM      4  H   UNL     1       5.814   3.040  17.021  0.00  0.00    +0.000 HD
BRANCH   3   5
ATOM      5  C   UNL     1       4.746   4.742  17.131  0.00  0.00    +0.000 C 
BRANCH   5  11
ATOM      6  C   UNL     1       2.455   6.516  19.637  0.00  0.00    +0.000 A 
ATOM      7  C   UNL     1       2.149   5.476  20.514  0.00  0.00    +0.000 A 
ATOM      8  C   UNL     1       2.683   4.207  20.289  0.00  0.00    +0.000 A 
ATOM      9 CL   UNL     1       2.295   2.919  21.364  0.00  0.00    +0.000 Cl
ATOM     10  C   UNL     1       3.523   3.969  19.204  0.00  0.00    +0.000 A 
ATOM     11  C   UNL     1       3.834   5.002  18.309  0.00  0.00    +0.000 A 
ATOM     12  C   UNL     1       3.277   6.272  18.530  0.00  0.00    +0.000 A 
BRANCH   6  14
ATOM     13  C   UNL     1       1.321   8.117  20.961  0.00  0.00    +0.000 C 
ATOM     14  O   UNL     1       1.980   7.796  19.739  0.00  0.00    +0.000 OA
ENDBRANCH   6  14
ENDBRANCH   5  11
ENDBRANCH   3   5
ENDBRANCH   2   3
ENDBRANCH   1   2
BRANCH   1  15
ATOM     15  C   UNL     1       7.680   6.918  18.074  0.00  0.00    +0.000 C 
BRANCH  15  16
ATOM     16  N   UNL     1       8.590   7.718  18.868  0.00  0.00    +0.000 N 
ATOM     17  C   UNL     1       8.574   9.075  18.590  0.00  0.00    +0.000 C 
ATOM     18  O   UNL     1       7.851   9.540  17.715  0.00  0.00    +0.000 OA
ATOM     19  N   UNL     1       9.464   9.778  19.367  0.00  0.00    +0.000 N 
ATOM     20  H   UNL     1       8.703   7.482  19.843  0.00  0.00    +0.000 HD
ATOM     21  H   UNL     1      10.223   9.237  19.755  0.00  0.00    +0.000 HD
BRANCH  19  22
ATOM     22  C   UNL     1       9.624  11.182  19.331  0.00  0.00    +0.000 A 
ATOM     23  C   UNL     1      10.125  11.858  18.212  0.00  0.00    +0.000 A 
ATOM     24  C   UNL     1      10.305  13.240  18.232  0.00  0.00    +0.000 A 
ATOM     25  C   UNL     1       9.974  13.969  19.368  0.00  0.00    +0.000 A 
ATOM     26  C   UNL     1       9.448  13.314  20.477  0.00  0.00    +0.000 A 
ATOM     27  C   UNL     1       9.263  11.924  20.458  0.00  0.00    +0.000 A 
ENDBRANCH  19  22
ENDBRANCH  15  16
ENDBRANCH   1  15
TORSDOF 8
ENDMDL
MODEL 6
REMARK VINA RESULT:      -7.2      1.674      2.490
REMARK  Name = 
REMARK  9 active torsions:
REMARK  status: ('A' for Active; 'I' for Inactive)
REMARK    1  A    between atoms: C_1  and  O_2
REMARK    2  A    between atoms: O_2  and  C_3
REMARK    3  A    between atoms: C_8  and  C_9
REMARK    4  A    between atoms: C_9  and  N_10
REMARK    5  A    between atoms: N_10  and  C_11
REMARK    6  A    between atoms: C_11  and  C_12
REMARK    7  A    between atoms: C_12  and  C_13
REMARK    8  A    between atoms: C_13  and  N_14
REMARK    9  A    between atoms: N_17  and  C_18
REMARK                            x       y       z     vdW  Elec       q    Type
REMARK                         _______ _______ _______ _____ _____    ______ ____
ROOT
ATOM      1  C   UNL     1       7.463   6.676  18.320  0.00  0.00    +0.000 C 
ENDROOT
BRANCH   1   2
ATOM      2  C   UNL     1       7.785   7.828  17.350  0.00  0.00    +0.000 C 
BRANCH   2   3
ATOM      3  N   UNL     1       7.919   9.099  18.059  0.00  0.00    +0.000 NA
ATOM      4  H   UNL     1       7.937   9.878  17.401  0.00  0.00    +0.000 HD
BRANCH   3   5
ATOM      5  C   UNL     1       9.145   9.177  18.849  0.00  0.00    +0.000 C 
BRANCH   5  11
ATOM      6  C   UNL     1       9.997  12.912  18.865  0.00  0.00    +0.000 A 
ATOM      7  C   UNL     1       9.791  13.235  20.205  0.00  0.00    +0.000 A 
ATOM      8  C   UNL     1       9.375  12.245  21.096  0.00  0.00    +0.000 A 
ATOM      9 CL   UNL     1       9.108  12.647  22.749  0.00  0.00    +0.000 Cl
ATOM     10  C   UNL     1       9.172  10.937  20.663  0.00  0.00    +0.000 A 
ATOM     11  C   UNL     1       9.367  10.598  19.317  0.00  0.00    +0.000 A 
ATOM     12  C   UNL     1       9.766  11.604  18.423  0.00  0.00    +0.000 A 
BRANCH   6  14
ATOM     13  C   UNL     1      11.154  13.245  16.827  0.00  0.00    +0.000 C 
ATOM     14  O   UNL     1      10.385  13.796  17.893  0.00  0.00    +0.000 OA
ENDBRANCH   6  14
ENDBRANCH   5  11
ENDBRANCH   3   5
ENDBRANCH   2   3
ENDBRANCH   1   2
BRANCH   1  15
ATOM     15  C   UNL     1       7.497   5.332  17.612  0.00  0.00    +0.000 C 
BRANCH  15  16
ATOM     16  N   UNL     1       6.845   4.248  18.318  0.00  0.00    +0.000 N 
ATOM     17  C   UNL     1       5.471   4.371  18.442  0.00  0.00    +0.000 C 
ATOM     18  O   UNL     1       4.873   5.345  17.998  0.00  0.00    +0.000 OA
ATOM     19  N   UNL     1       4.913   3.319  19.129  0.00  0.00    +0.000 N 
ATOM     20  H   UNL     1       7.179   3.308  18.160  0.00  0.00    +0.000 HD
ATOM     21  H   UNL     1       5.542   2.811  19.733  0.00  0.00    +0.000 HD
BRANCH  19  22
ATOM     22  C   UNL     1       3.527   3.159  19.360  0.00  0.00    +0.000 A 
ATOM     23  C   UNL     1       2.696   2.429  18.501  0.00  0.00    +0.000 A 
ATOM     24  C   UNL     1       1.327   2.329  18.743  0.00  0.00    +0.000 A 
ATOM     25  C   UNL     1       0.771   2.945  19.857  0.00  0.00    +0.000 A 
ATOM     26  C   UNL     1       1.589   3.649  20.735  0.00  0.00    +0.000 A 
ATOM     27  C   UNL     1       2.966   3.749  20.495  0.00  0.00    +0.000 A 
ENDBRANCH  19  22
ENDBRANCH  15  16
ENDBRANCH   1  15
TORSDOF 8
ENDMDL
MODEL 7
REMARK VINA RESULT:      -7.2      4.863      7.423
REMARK  Name = 
REMARK  9 active torsions:
REMARK  status: ('A' for Active; 'I' for Inactive)
REMARK    1  A    between atoms: C_1  and  O_2
REMARK    2  A    between atoms: O_2  and  C_3
REMARK    3  A    between atoms: C_8  and  C_9
REMARK    4  A    between atoms: C_9  and  N_10
REMARK    5  A    between atoms: N_10  and  C_11
REMARK    6  A    between atoms: C_11  and  C_12
REMARK    7  A    between atoms: C_12  and  C_13
REMARK    8  A    between atoms: C_13  and  N_14
REMARK    9  A    between atoms: N_17  and  C_18
REMARK                            x       y       z     vdW  Elec       q    Type
REMARK                         _______ _______ _______ _____ _____    ______ ____
ROOT
ATOM      1  C   UNL     1       2.889   1.943  19.550  0.00  0.00    +0.000 C 
ENDROOT
BRANCH   1   2
ATOM      2  C   UNL     1       2.339   2.108  18.121  0.00  0.00    +0.000 C 
BRANCH   2   3
ATOM      3  N   UNL     1       3.073   3.134  17.384  0.00  0.00    +0.000 NA
ATOM      4  H   UNL     1       3.256   2.829  16.428  0.00  0.00    +0.000 HD
BRANCH   3   5
ATOM      5  C   UNL     1       4.366   3.447  17.989  0.00  0.00    +0.000 C 
BRANCH   5  11
ATOM      6  C   UNL     1       6.663   6.074  16.410  0.00  0.00    +0.000 A 
ATOM      7  C   UNL     1       6.839   5.551  15.129  0.00  0.00    +0.000 A 
ATOM      8  C   UNL     1       6.216   4.352  14.784  0.00  0.00    +0.000 A 
ATOM      9 CL   UNL     1       6.443   3.700  13.207  0.00  0.00    +0.000 Cl
ATOM     10  C   UNL     1       5.416   3.675  15.701  0.00  0.00    +0.000 A 
ATOM     11  C   UNL     1       5.236   4.183  16.995  0.00  0.00    +0.000 A 
ATOM     12  C   UNL     1       5.881   5.381  17.341  0.00  0.00    +0.000 A 
BRANCH   6  14
ATOM     13  C   UNL     1       7.915   7.126  18.121  0.00  0.00    +0.000 C 
ATOM     14  O   UNL     1       7.234   7.229  16.873  0.00  0.00    +0.000 OA
ENDBRANCH   6  14
ENDBRANCH   5  11
ENDBRANCH   3   5
ENDBRANCH   2   3
ENDBRANCH   1   2
BRANCH   1  15
ATOM     15  C   UNL     1       2.030   2.685  20.561  0.00  0.00    +0.000 C 
BRANCH  15  16
ATOM     16  N   UNL     1       2.497   4.010  20.912  0.00  0.00    +0.000 N 
ATOM     17  C   UNL     1       1.926   5.044  20.189  0.00  0.00    +0.000 C 
ATOM     18  O   UNL     1       1.102   4.829  19.307  0.00  0.00    +0.000 OA
ATOM     19  N   UNL     1       2.417   6.274  20.560  0.00  0.00    +0.000 N 
ATOM     20  H   UNL     1       2.669   4.211  21.886  0.00  0.00    +0.000 HD
ATOM     21  H   UNL     1       3.320   6.263  21.011  0.00  0.00    +0.000 HD
BRANCH  19  22
ATOM     22  C   UNL     1       1.977   7.507  20.025  0.00  0.00    +0.000 A 
ATOM     23  C   UNL     1       1.232   8.431  20.768  0.00  0.00    +0.000 A 
ATOM     24  C   UNL     1       0.783   9.617  20.191  0.00  0.00    +0.000 A 
ATOM     25  C   UNL     1       1.084   9.904  18.866  0.00  0.00    +0.000 A 
ATOM     26  C   UNL     1       1.849   9.009  18.124  0.00  0.00    +0.000 A 
ATOM     27  C   UNL     1       2.303   7.816  18.703  0.00  0.00    +0.000 A 
ENDBRANCH  19  22
ENDBRANCH  15  16
ENDBRANCH   1  15
TORSDOF 8
ENDMDL
MODEL 8
REMARK VINA RESULT:      -7.2      3.790      9.776
REMARK  Name = 
REMARK  9 active torsions:
REMARK  status: ('A' for Active; 'I' for Inactive)
REMARK    1  A    between atoms: C_1  and  O_2
REMARK    2  A    between atoms: O_2  and  C_3
REMARK    3  A    between atoms: C_8  and  C_9
REMARK    4  A    between atoms: C_9  and  N_10
REMARK    5  A    between atoms: N_10  and  C_11
REMARK    6  A    between atoms: C_11  and  C_12
REMARK    7  A    between atoms: C_12  and  C_13
REMARK    8  A    between atoms: C_13  and  N_14
REMARK    9  A    between atoms: N_17  and  C_18
REMARK                            x       y       z     vdW  Elec       q    Type
REMARK                         _______ _______ _______ _____ _____    ______ ____
ROOT
ATOM      1  C   UNL     1       7.381   6.332  17.050  0.00  0.00    +0.000 C 
ENDROOT
BRANCH   1   2
ATOM      2  C   UNL     1       7.538   5.468  18.315  0.00  0.00    +0.000 C 
BRANCH   2   3
ATOM      3  N   UNL     1       6.639   4.315  18.286  0.00  0.00    +0.000 NA
ATOM      4  H   UNL     1       7.152   3.464  18.059  0.00  0.00    +0.000 HD
BRANCH   3   5
ATOM      5  C   UNL     1       5.578   4.453  17.291  0.00  0.00    +0.000 C 
BRANCH   5  11
ATOM      6  C   UNL     1       2.661   5.997  19.235  0.00  0.00    +0.000 A 
ATOM      7  C   UNL     1       1.762   4.932  19.275  0.00  0.00    +0.000 A 
ATOM      8  C   UNL     1       2.103   3.722  18.672  0.00  0.00    +0.000 A 
ATOM      9 CL   UNL     1       0.989   2.409  18.710  0.00  0.00    +0.000 Cl
ATOM     10  C   UNL     1       3.333   3.563  18.037  0.00  0.00    +0.000 A 
ATOM     11  C   UNL     1       4.243   4.627  17.981  0.00  0.00    +0.000 A 
ATOM     12  C   UNL     1       3.885   5.848  18.574  0.00  0.00    +0.000 A 
BRANCH   6  14
ATOM     13  C   UNL     1       1.487   7.288  20.835  0.00  0.00    +0.000 C 
ATOM     14  O   UNL     1       2.435   7.237  19.772  0.00  0.00    +0.000 OA
ENDBRANCH   6  14
ENDBRANCH   5  11
ENDBRANCH   3   5
ENDBRANCH   2   3
ENDBRANCH   1   2
BRANCH   1  15
ATOM     15  C   UNL     1       7.430   7.814  17.385  0.00  0.00    +0.000 C 
BRANCH  15  16
ATOM     16  N   UNL     1       8.372   8.179  18.423  0.00  0.00    +0.000 N 
ATOM     17  C   UNL     1       8.617   9.538  18.541  0.00  0.00    +0.000 C 
ATOM     18  O   UNL     1       8.080  10.351  17.797  0.00  0.00    +0.000 OA
ATOM     19  N   UNL     1       9.525   9.820  19.534  0.00  0.00    +0.000 N 
ATOM     20  H   UNL     1       8.339   7.672  19.296  0.00  0.00    +0.000 HD
ATOM     21  H   UNL     1      10.135   9.059  19.793  0.00  0.00    +0.000 HD
BRANCH  19  22
ATOM     22  C   UNL     1       9.923  11.124  19.908  0.00  0.00    +0.000 A 
ATOM     23  C   UNL     1      11.121  11.704  19.471  0.00  0.00    +0.000 A 
ATOM     24  C   UNL     1      11.496  12.977  19.896  0.00  0.00    +0.000 A 
ATOM     25  C   UNL     1      10.672  13.696  20.753  0.00  0.00    +0.000 A 
ATOM     26  C   UNL     1       9.465  13.145  21.171  0.00  0.00    +0.000 A 
ATOM     27  C   UNL     1       9.084  11.865  20.744  0.00  0.00    +0.000 A 
ENDBRANCH  19  22
ENDBRANCH  15  16
ENDBRANCH   1  15
TORSDOF 8
ENDMDL
MODEL 9
REMARK VINA RESULT:      -7.1      0.862      1.308
REMARK  Name = 
REMARK  9 active torsions:
REMARK  status: ('A' for Active; 'I' for Inactive)
REMARK    1  A    between atoms: C_1  and  O_2
REMARK    2  A    between atoms: O_2  and  C_3
REMARK    3  A    between atoms: C_8  and  C_9
REMARK    4  A    between atoms: C_9  and  N_10
REMARK    5  A    between atoms: N_10  and  C_11
REMARK    6  A    between atoms: C_11  and  C_12
REMARK    7  A    between atoms: C_12  and  C_13
REMARK    8  A    between atoms: C_13  and  N_14
REMARK    9  A    between atoms: N_17  and  C_18
REMARK                            x       y       z     vdW  Elec       q    Type
REMARK                         _______ _______ _______ _____ _____    ______ ____
ROOT
ATOM      1  C   UNL     1       7.685   6.979  17.495  0.00  0.00    +0.000 C 
ENDROOT
BRANCH   1   2
ATOM      2  C   UNL     1       7.535   8.501  17.668  0.00  0.00    +0.000 C 
BRANCH   2   3
ATOM      3  N   UNL     1       8.589   9.046  18.523  0.00  0.00    +0.000 NA
ATOM      4  H   UNL     1       8.209   9.329  19.426  0.00  0.00    +0.000 HD
BRANCH   3   5
ATOM      5  C   UNL     1       9.235  10.220  17.942  0.00  0.00    +0.000 C 
BRANCH   5  11
ATOM      6  C   UNL     1       9.465  12.015  21.318  0.00  0.00    +0.000 A 
ATOM      7  C   UNL     1      10.475  12.943  21.068  0.00  0.00    +0.000 A 
ATOM      8  C   UNL     1      11.077  12.982  19.810  0.00  0.00    +0.000 A 
ATOM      9 CL   UNL     1      12.332  14.121  19.504  0.00  0.00    +0.000 Cl
ATOM     10  C   UNL     1      10.676  12.111  18.800  0.00  0.00    +0.000 A 
ATOM     11  C   UNL     1       9.668  11.166  19.039  0.00  0.00    +0.000 A 
ATOM     12  C   UNL     1       9.081  11.119  20.313  0.00  0.00    +0.000 A 
BRANCH   6  14
ATOM     13  C   UNL     1       8.284  13.059  23.083  0.00  0.00    +0.000 C 
ATOM     14  O   UNL     1       8.813  11.865  22.513  0.00  0.00    +0.000 OA
ENDBRANCH   6  14
ENDBRANCH   5  11
ENDBRANCH   3   5
ENDBRANCH   2   3
ENDBRANCH   1   2
BRANCH   1  15
ATOM     15  C   UNL     1       7.696   6.269  18.839  0.00  0.00    +0.000 C 
BRANCH  15  16
ATOM     16  N   UNL     1       7.199   4.909  18.821  0.00  0.00    +0.000 N 
ATOM     17  C   UNL     1       5.827   4.783  18.964  0.00  0.00    +0.000 C 
ATOM     18  O   UNL     1       5.108   5.765  19.115  0.00  0.00    +0.000 OA
ATOM     19  N   UNL     1       5.418   3.471  18.949  0.00  0.00    +0.000 N 
ATOM     20  H   UNL     1       7.625   4.255  18.180  0.00  0.00    +0.000 HD
ATOM     21  H   UNL     1       6.127   2.792  19.187  0.00  0.00    +0.000 HD
BRANCH  19  22
ATOM     22  C   UNL     1       4.071   3.051  19.025  0.00  0.00    +0.000 A 
ATOM     23  C   UNL     1       3.286   2.814  17.889  0.00  0.00    +0.000 A 
ATOM     24  C   UNL     1       1.949   2.440  18.008  0.00  0.00    +0.000 A 
ATOM     25  C   UNL     1       1.380   2.283  19.265  0.00  0.00    +0.000 A 
ATOM     26  C   UNL     1       2.155   2.486  20.403  0.00  0.00    +0.000 A 
ATOM     27  C   UNL     1       3.500   2.860  20.286  0.00  0.00    +0.000 A 
ENDBRANCH  19  22
ENDBRANCH  15  16
ENDBRANCH   1  15
TORSDOF 8
ENDMDL
