MODEL 1
REMARK VINA RESULT:      -7.2      0.000      0.000
REMARK  Name = 
REMARK  2 active torsions:
REMARK  status: ('A' for Active; 'I' for Inactive)
REMARK    1  A    between atoms: S_2  and  N_4
REMARK    2  A    between atoms: S_2  and  C_14
REMARK                            x       y       z     vdW  Elec       q    Type
REMARK                         _______ _______ _______ _____ _____    ______ ____
ROOT
ATOM      1  N   UNL     1       6.331   4.279  17.401  0.00  0.00    +0.000 N 
ATOM      2  C   UNL     1       5.116   4.005  17.978  0.00  0.00    +0.000 A 
ATOM      3  N   UNL     1       4.192   3.165  17.433  0.00  0.00    +0.000 NA
ATOM      4  C   UNL     1       3.221   3.166  18.317  0.00  0.00    +0.000 A 
ATOM      5  N   UNL     1       3.543   4.031  19.321  0.00  0.00    +0.000 N 
ATOM      6  N   UNL     1       4.782   4.521  19.165  0.00  0.00    +0.000 NA
ATOM      7  C   UNL     1       2.633   4.497  20.345  0.00  0.00    +0.000 C 
ATOM      8  C   UNL     1       1.428   3.564  20.505  0.00  0.00    +0.000 C 
ATOM      9  C   UNL     1       0.883   3.105  19.147  0.00  0.00    +0.000 C 
ATOM     10  C   UNL     1       1.962   2.383  18.335  0.00  0.00    +0.000 C 
ATOM     11  H   UNL     1       7.022   4.523  18.104  0.00  0.00    +0.000 HD
ENDROOT
BRANCH   1  13
ATOM     12  O   UNL     1       5.000   6.079  16.264  0.00  0.00    +0.000 OA
ATOM     13  S   UNL     1       6.328   5.507  16.250  0.00  0.00    +0.000 S 
ATOM     14  O   UNL     1       7.515   6.324  16.363  0.00  0.00    +0.000 OA
BRANCH  13  15
ATOM     15  C   UNL     1       6.442   4.788  14.667  0.00  0.00    +0.000 A 
ATOM     16  C   UNL     1       5.461   3.905  14.119  0.00  0.00    +0.000 A 
ATOM     17  C   UNL     1       5.756   3.551  12.821  0.00  0.00    +0.000 A 
ATOM     18  S   UNL     1       7.216   4.260  12.276  0.00  0.00    +0.000 S 
ATOM     19  C   UNL     1       7.459   5.053  13.774  0.00  0.00    +0.000 A 
ENDBRANCH  13  15
ENDBRANCH   1  13
TORSDOF 2
ENDMDL
MODEL 2
REMARK VINA RESULT:      -7.1      2.131      2.376
REMARK  Name = 
REMARK  2 active torsions:
REMARK  status: ('A' for Active; 'I' for Inactive)
REMARK    1  A    between atoms: S_2  and  N_4
REMARK    2  A    between atoms: S_2  and  C_14
REMARK                            x       y       z     vdW  Elec       q    Type
REMARK                         _______ _______ _______ _____ _____    ______ ____
ROOT
ATOM      1  N   UNL     1       6.571   5.301  19.688  0.00  0.00    +0.000 N 
ATOM      2  C   UNL     1       5.360   4.708  19.429  0.00  0.00    +0.000 A 
ATOM      3  N   UNL     1       5.172   3.359  19.395  0.00  0.00    +0.000 NA
ATOM      4  C   UNL     1       3.886   3.238  19.158  0.00  0.00    +0.000 A 
ATOM      5  N   UNL     1       3.350   4.482  18.998  0.00  0.00    +0.000 N 
ATOM      6  N   UNL     1       4.258   5.440  19.242  0.00  0.00    +0.000 NA
ATOM      7  C   UNL     1       2.027   4.762  18.483  0.00  0.00    +0.000 C 
ATOM      8  C   UNL     1       1.101   3.547  18.600  0.00  0.00    +0.000 C 
ATOM      9  C   UNL     1       1.818   2.248  18.208  0.00  0.00    +0.000 C 
ATOM     10  C   UNL     1       3.053   2.014  19.083  0.00  0.00    +0.000 C 
ATOM     11  H   UNL     1       6.446   6.217  20.108  0.00  0.00    +0.000 HD
ENDROOT
BRANCH   1  13
ATOM     12  O   UNL     1       8.018   6.871  18.367  0.00  0.00    +0.000 OA
ATOM     13  S   UNL     1       7.585   5.491  18.359  0.00  0.00    +0.000 S 
ATOM     14  O   UNL     1       8.524   4.396  18.264  0.00  0.00    +0.000 OA
BRANCH  13  15
ATOM     15  C   UNL     1       6.629   5.374  16.907  0.00  0.00    +0.000 A 
ATOM     16  C   UNL     1       5.822   6.436  16.395  0.00  0.00    +0.000 A 
ATOM     17  C   UNL     1       5.241   6.105  15.191  0.00  0.00    +0.000 A 
ATOM     18  S   UNL     1       5.647   4.518  14.694  0.00  0.00    +0.000 S 
ATOM     19  C   UNL     1       6.613   4.266  16.085  0.00  0.00    +0.000 A 
ENDBRANCH  13  15
ENDBRANCH   1  13
TORSDOF 2
ENDMDL
MODEL 3
REMARK VINA RESULT:      -7.0      2.366      6.142
REMARK  Name = 
REMARK  2 active torsions:
REMARK  status: ('A' for Active; 'I' for Inactive)
REMARK    1  A    between atoms: S_2  and  N_4
REMARK    2  A    between atoms: S_2  and  C_14
REMARK                            x       y       z     vdW  Elec       q    Type
REMARK                         _______ _______ _______ _____ _____    ______ ____
ROOT
ATOM      1  N   UNL     1       6.458   4.293  17.559  0.00  0.00    +0.000 N 
ATOM      2  C   UNL     1       6.665   4.353  16.203  0.00  0.00    +0.000 A 
ATOM      3  N   UNL     1       7.479   5.266  15.603  0.00  0.00    +0.000 NA
ATOM      4  C   UNL     1       7.413   4.941  14.332  0.00  0.00    +0.000 A 
ATOM      5  N   UNL     1       6.537   3.906  14.188  0.00  0.00    +0.000 N 
ATOM      6  N   UNL     1       6.104   3.463  15.379  0.00  0.00    +0.000 NA
ATOM      7  C   UNL     1       6.007   3.430  12.929  0.00  0.00    +0.000 C 
ATOM      8  C   UNL     1       6.882   3.852  11.745  0.00  0.00    +0.000 C 
ATOM      9  C   UNL     1       7.353   5.306  11.878  0.00  0.00    +0.000 C 
ATOM     10  C   UNL     1       8.140   5.514  13.175  0.00  0.00    +0.000 C 
ATOM     11  H   UNL     1       6.225   3.349  17.851  0.00  0.00    +0.000 HD
ENDROOT
BRANCH   1  13
ATOM     12  O   UNL     1       5.553   5.510  19.560  0.00  0.00    +0.000 OA
ATOM     13  S   UNL     1       5.261   5.314  18.158  0.00  0.00    +0.000 S 
ATOM     14  O   UNL     1       5.032   6.424  17.261  0.00  0.00    +0.000 OA
BRANCH  13  15
ATOM     15  C   UNL     1       3.749   4.448  18.177  0.00  0.00    +0.000 A 
ATOM     16  C   UNL     1       2.476   5.061  17.962  0.00  0.00    +0.000 A 
ATOM     17  C   UNL     1       1.456   4.135  17.946  0.00  0.00    +0.000 A 
ATOM     18  S   UNL     1       2.027   2.543  18.210  0.00  0.00    +0.000 S 
ATOM     19  C   UNL     1       3.647   3.082  18.340  0.00  0.00    +0.000 A 
ENDBRANCH  13  15
ENDBRANCH   1  13
TORSDOF 2
ENDMDL
MODEL 4
REMARK VINA RESULT:      -6.8      2.629      3.392
REMARK  Name = 
REMARK  2 active torsions:
REMARK  status: ('A' for Active; 'I' for Inactive)
REMARK    1  A    between atoms: S_2  and  N_4
REMARK    2  A    between atoms: S_2  and  C_14
REMARK                            x       y       z     vdW  Elec       q    Type
REMARK                         _______ _______ _______ _____ _____    ______ ____
ROOT
ATOM      1  N   UNL     1       6.334   4.010  18.570  0.00  0.00    +0.000 N 
ATOM      2  C   UNL     1       5.008   3.803  18.858  0.00  0.00    +0.000 A 
ATOM      3  N   UNL     1       4.264   2.801  18.312  0.00  0.00    +0.000 NA
ATOM      4  C   UNL     1       3.091   2.949  18.883  0.00  0.00    +0.000 A 
ATOM      5  N   UNL     1       3.131   4.045  19.694  0.00  0.00    +0.000 N 
ATOM      6  N   UNL     1       4.368   4.563  19.752  0.00  0.00    +0.000 NA
ATOM      7  C   UNL     1       1.980   4.680  20.298  0.00  0.00    +0.000 C 
ATOM      8  C   UNL     1       0.775   3.736  20.359  0.00  0.00    +0.000 C 
ATOM      9  C   UNL     1       0.615   2.936  19.060  0.00  0.00    +0.000 C 
ATOM     10  C   UNL     1       1.872   2.114  18.761  0.00  0.00    +0.000 C 
ATOM     11  H   UNL     1       6.811   4.457  19.348  0.00  0.00    +0.000 HD
ENDROOT
BRANCH   1  13
ATOM     12  O   UNL     1       7.765   4.303  16.527  0.00  0.00    +0.000 OA
ATOM     13  S   UNL     1       6.645   4.929  17.195  0.00  0.00    +0.000 S 
ATOM     14  O   UNL     1       5.419   5.247  16.498  0.00  0.00    +0.000 OA
BRANCH  13  15
ATOM     15  C   UNL     1       7.280   6.475  17.689  0.00  0.00    +0.000 A 
ATOM     16  C   UNL     1       8.156   6.659  18.802  0.00  0.00    +0.000 A 
ATOM     17  C   UNL     1       8.573   7.967  18.918  0.00  0.00    +0.000 A 
ATOM     18  S   UNL     1       7.895   8.968  17.705  0.00  0.00    +0.000 S 
ATOM     19  C   UNL     1       7.044   7.654  17.013  0.00  0.00    +0.000 A 
ENDBRANCH  13  15
ENDBRANCH   1  13
TORSDOF 2
ENDMDL
MODEL 5
REMARK VINA RESULT:      -6.7      3.715      5.713
REMARK  Name = 
REMARK  2 active torsions:
REMARK  status: ('A' for Active; 'I' for Inactive)
REMARK    1  A    between atoms: S_2  and  N_4
REMARK    2  A    between atoms: S_2  and  C_14
REMARK                            x       y       z     vdW  Elec       q    Type
REMARK                         _______ _______ _______ _____ _____    ______ ____
ROOT
ATOM      1  N   UNL     1       2.847   5.595  20.704  0.00  0.00    +0.000 N 
ATOM      2  C   UNL     1       3.694   5.668  19.625  0.00  0.00    +0.000 A 
ATOM      3  N   UNL     1       3.322   6.146  18.405  0.00  0.00    +0.000 NA
ATOM      4  C   UNL     1       4.428   6.072  17.700  0.00  0.00    +0.000 A 
ATOM      5  N   UNL     1       5.403   5.509  18.471  0.00  0.00    +0.000 N 
ATOM      6  N   UNL     1       4.978   5.313  19.729  0.00  0.00    +0.000 NA
ATOM      7  C   UNL     1       6.680   5.033  17.986  0.00  0.00    +0.000 C 
ATOM      8  C   UNL     1       7.048   5.660  16.637  0.00  0.00    +0.000 C 
ATOM      9  C   UNL     1       5.841   5.717  15.691  0.00  0.00    +0.000 C 
ATOM     10  C   UNL     1       4.692   6.517  16.311  0.00  0.00    +0.000 C 
ATOM     11  H   UNL     1       3.363   5.657  21.576  0.00  0.00    +0.000 HD
ENDROOT
BRANCH   1  13
ATOM     12  O   UNL     1       2.221   3.556  22.029  0.00  0.00    +0.000 OA
ATOM     13  S   UNL     1       1.890   4.213  20.783  0.00  0.00    +0.000 S 
ATOM     14  O   UNL     1       0.524   4.508  20.413  0.00  0.00    +0.000 OA
BRANCH  13  15
ATOM     15  C   UNL     1       2.437   3.085  19.573  0.00  0.00    +0.000 A 
ATOM     16  C   UNL     1       1.861   2.971  18.270  0.00  0.00    +0.000 A 
ATOM     17  C   UNL     1       2.538   2.063  17.487  0.00  0.00    +0.000 A 
ATOM     18  S   UNL     1       3.843   1.336  18.324  0.00  0.00    +0.000 S 
ATOM     19  C   UNL     1       3.515   2.241  19.740  0.00  0.00    +0.000 A 
ENDBRANCH  13  15
ENDBRANCH   1  13
TORSDOF 2
ENDMDL
MODEL 6
REMARK VINA RESULT:      -6.7      2.865      3.727
REMARK  Name = 
REMARK  2 active torsions:
REMARK  status: ('A' for Active; 'I' for Inactive)
REMARK    1  A    between atoms: S_2  and  N_4
REMARK    2  A    between atoms: S_2  and  C_14
REMARK                            x       y       z     vdW  Elec       q    Type
REMARK                         _______ _______ _______ _____ _____    ______ ____
ROOT
ATOM      1  N   UNL     1       3.635   6.607  17.202  0.00  0.00    +0.000 N 
ATOM      2  C   UNL     1       3.077   5.767  18.134  0.00  0.00    +0.000 A 
ATOM      3  N   UNL     1       3.495   5.690  19.428  0.00  0.00    +0.000 NA
ATOM      4  C   UNL     1       2.678   4.810  19.960  0.00  0.00    +0.000 A 
ATOM      5  N   UNL     1       1.844   4.342  18.987  0.00  0.00    +0.000 N 
ATOM      6  N   UNL     1       2.030   4.994  17.829  0.00  0.00    +0.000 NA
ATOM      7  C   UNL     1       0.976   3.191  19.114  0.00  0.00    +0.000 C 
ATOM      8  C   UNL     1       0.700   2.844  20.581  0.00  0.00    +0.000 C 
ATOM      9  C   UNL     1       1.970   2.945  21.435  0.00  0.00    +0.000 C 
ATOM     10  C   UNL     1       2.572   4.351  21.365  0.00  0.00    +0.000 C 
ATOM     11  H   UNL     1       2.959   6.860  16.488  0.00  0.00    +0.000 HD
ENDROOT
BRANCH   1  13
ATOM     12  O   UNL     1       4.828   4.582  16.319  0.00  0.00    +0.000 OA
ATOM     13  S   UNL     1       5.000   6.015  16.416  0.00  0.00    +0.000 S 
ATOM     14  O   UNL     1       5.326   6.827  15.265  0.00  0.00    +0.000 OA
BRANCH  13  15
ATOM     15  C   UNL     1       6.373   6.188  17.475  0.00  0.00    +0.000 A 
ATOM     16  C   UNL     1       7.215   7.341  17.508  0.00  0.00    +0.000 A 
ATOM     17  C   UNL     1       8.172   7.250  18.495  0.00  0.00    +0.000 A 
ATOM     18  S   UNL     1       8.068   5.776  19.359  0.00  0.00    +0.000 S 
ATOM     19  C   UNL     1       6.734   5.252  18.422  0.00  0.00    +0.000 A 
ENDBRANCH  13  15
ENDBRANCH   1  13
TORSDOF 2
ENDMDL
MODEL 7
REMARK VINA RESULT:      -6.7      1.482      2.114
REMARK  Name = 
REMARK  2 active torsions:
REMARK  status: ('A' for Active; 'I' for Inactive)
REMARK    1  A    between atoms: S_2  and  N_4
REMARK    2  A    between atoms: S_2  and  C_14
REMARK                            x       y       z     vdW  Elec       q    Type
REMARK                         _______ _______ _______ _____ _____    ______ ____
ROOT
ATOM      1  N   UNL     1       5.007   6.310  17.715  0.00  0.00    +0.000 N 
ATOM      2  C   UNL     1       4.049   5.581  18.376  0.00  0.00    +0.000 A 
ATOM      3  N   UNL     1       3.976   5.486  19.733  0.00  0.00    +0.000 NA
ATOM      4  C   UNL     1       2.912   4.741  19.928  0.00  0.00    +0.000 A 
ATOM      5  N   UNL     1       2.413   4.362  18.717  0.00  0.00    +0.000 N 
ATOM      6  N   UNL     1       3.079   4.949  17.709  0.00  0.00    +0.000 NA
ATOM      7  C   UNL     1       1.406   3.344  18.509  0.00  0.00    +0.000 C 
ATOM      8  C   UNL     1       0.591   3.081  19.780  0.00  0.00    +0.000 C 
ATOM      9  C   UNL     1       1.485   3.033  21.026  0.00  0.00    +0.000 C 
ATOM     10  C   UNL     1       2.261   4.342  21.199  0.00  0.00    +0.000 C 
ATOM     11  H   UNL     1       4.663   6.632  16.815  0.00  0.00    +0.000 HD
ENDROOT
BRANCH   1  13
ATOM     12  O   UNL     1       7.493   6.533  17.443  0.00  0.00    +0.000 OA
ATOM     13  S   UNL     1       6.465   5.516  17.442  0.00  0.00    +0.000 S 
ATOM     14  O   UNL     1       6.565   4.325  18.256  0.00  0.00    +0.000 OA
BRANCH  13  15
ATOM     15  C   UNL     1       6.480   4.926  15.802  0.00  0.00    +0.000 A 
ATOM     16  C   UNL     1       5.445   4.123  15.233  0.00  0.00    +0.000 A 
ATOM     17  C   UNL     1       5.668   3.868  13.898  0.00  0.00    +0.000 A 
ATOM     18  S   UNL     1       7.126   4.574  13.342  0.00  0.00    +0.000 S 
ATOM     19  C   UNL     1       7.465   5.233  14.886  0.00  0.00    +0.000 A 
ENDBRANCH  13  15
ENDBRANCH   1  13
TORSDOF 2
ENDMDL
MODEL 8
REMARK VINA RESULT:      -6.7      2.591      3.682
REMARK  Name = 
REMARK  2 active torsions:
REMARK  status: ('A' for Active; 'I' for Inactive)
REMARK    1  A    between atoms: S_2  and  N_4
REMARK    2  A    between atoms: S_2  and  C_14
REMARK                            x       y       z     vdW  Elec       q    Type
REMARK                         _______ _______ _______ _____ _____    ______ ____
ROOT
ATOM      1  N   UNL     1       5.025   5.209  16.541  0.00  0.00    +0.000 N 
ATOM      2  C   UNL     1       4.025   4.757  17.366  0.00  0.00    +0.000 A 
ATOM      3  N   UNL     1       3.535   5.468  18.419  0.00  0.00    +0.000 NA
ATOM      4  C   UNL     1       2.587   4.693  18.895  0.00  0.00    +0.000 A 
ATOM      5  N   UNL     1       2.566   3.535  18.175  0.00  0.00    +0.000 N 
ATOM      6  N   UNL     1       3.425   3.583  17.145  0.00  0.00    +0.000 NA
ATOM      7  C   UNL     1       1.840   2.337  18.542  0.00  0.00    +0.000 C 
ATOM      8  C   UNL     1       0.709   2.636  19.531  0.00  0.00    +0.000 C 
ATOM      9  C   UNL     1       1.153   3.626  20.616  0.00  0.00    +0.000 C 
ATOM     10  C   UNL     1       1.630   4.944  19.998  0.00  0.00    +0.000 C 
ATOM     11  H   UNL     1       4.945   4.802  15.614  0.00  0.00    +0.000 HD
ENDROOT
BRANCH   1  13
ATOM     12  O   UNL     1       6.478   4.130  18.281  0.00  0.00    +0.000 OA
ATOM     13  S   UNL     1       6.594   4.927  17.080  0.00  0.00    +0.000 S 
ATOM     14  O   UNL     1       7.456   4.542  15.985  0.00  0.00    +0.000 OA
BRANCH  13  15
ATOM     15  C   UNL     1       7.264   6.430  17.655  0.00  0.00    +0.000 A 
ATOM     16  C   UNL     1       8.107   6.540  18.804  0.00  0.00    +0.000 A 
ATOM     17  C   UNL     1       8.564   7.827  18.984  0.00  0.00    +0.000 A 
ATOM     18  S   UNL     1       7.964   8.897  17.790  0.00  0.00    +0.000 S 
ATOM     19  C   UNL     1       7.093   7.641  17.018  0.00  0.00    +0.000 A 
ENDBRANCH  13  15
ENDBRANCH   1  13
TORSDOF 2
ENDMDL
MODEL 9
REMARK VINA RESULT:      -6.6      1.262      2.123
REMARK  Name = 
REMARK  2 active torsions:
REMARK  status: ('A' for Active; 'I' for Inactive)
REMARK    1  A    between atoms: S_2  and  N_4
REMARK    2  A    between atoms: S_2  and  C_14
REMARK                            x       y       z     vdW  Elec       q    Type
REMARK                         _______ _______ _______ _____ _____    ______ ____
ROOT
ATOM      1  N   UNL     1       4.969   6.051  16.641  0.00  0.00    +0.000 N 
ATOM      2  C   UNL     1       4.159   5.378  17.522  0.00  0.00    +0.000 A 
ATOM      3  N   UNL     1       4.204   5.552  18.872  0.00  0.00    +0.000 NA
ATOM      4  C   UNL     1       3.255   4.759  19.312  0.00  0.00    +0.000 A 
ATOM      5  N   UNL     1       2.711   4.095  18.252  0.00  0.00    +0.000 N 
ATOM      6  N   UNL     1       3.222   4.530  17.090  0.00  0.00    +0.000 NA
ATOM      7  C   UNL     1       1.819   2.960  18.346  0.00  0.00    +0.000 C 
ATOM      8  C   UNL     1       1.143   2.878  19.719  0.00  0.00    +0.000 C 
ATOM      9  C   UNL     1       2.131   3.173  20.855  0.00  0.00    +0.000 C 
ATOM     10  C   UNL     1       2.758   4.561  20.695  0.00  0.00    +0.000 C 
ATOM     11  H   UNL     1       4.520   6.148  15.735  0.00  0.00    +0.000 HD
ENDROOT
BRANCH   1  13
ATOM     12  O   UNL     1       7.437   6.457  16.425  0.00  0.00    +0.000 OA
ATOM     13  S   UNL     1       6.485   5.369  16.380  0.00  0.00    +0.000 S 
ATOM     14  O   UNL     1       6.655   4.170  17.169  0.00  0.00    +0.000 OA
BRANCH  13  15
ATOM     15  C   UNL     1       6.574   4.822  14.728  0.00  0.00    +0.000 A 
ATOM     16  C   UNL     1       7.584   5.232  13.805  0.00  0.00    +0.000 A 
ATOM     17  C   UNL     1       7.468   4.584  12.595  0.00  0.00    +0.000 A 
ATOM     18  S   UNL     1       6.138   3.506  12.567  0.00  0.00    +0.000 S 
ATOM     19  C   UNL     1       5.713   3.894  14.179  0.00  0.00    +0.000 A 
ENDBRANCH  13  15
ENDBRANCH   1  13
TORSDOF 2
ENDMDL
