MODEL 1
REMARK VINA RESULT:      -7.7      0.000      0.000
REMARK  Name = 
REMARK  9 active torsions:
REMARK  status: ('A' for Active; 'I' for Inactive)
REMARK    1  A    between atoms: C_1  and  O_2
REMARK    2  A    between atoms: O_2  and  C_3
REMARK    3  A    between atoms: N_6  and  C_7
REMARK    4  A    between atoms: C_7  and  C_8
REMARK    5  A    between atoms: C_10  and  C_11
REMARK    6  A    between atoms: C_14  and  C_15
REMARK    7  A    between atoms: N_21  and  C_22
REMARK    8  A    between atoms: C_22  and  C_23
REMARK    9  A    between atoms: C_22  and  C_24
REMARK                            x       y       z     vdW  Elec       q    Type
REMARK                         _______ _______ _______ _____ _____    ______ ____
ROOT
ATOM      1  C   UNL     1       1.471   7.420  20.586  0.00  0.00    +0.000 A 
ATOM      2  C   UNL     1       2.432   7.510  19.556  0.00  0.00    +0.000 A 
ATOM      3  C   UNL     1       2.720   6.208  19.180  0.00  0.00    +0.000 A 
ATOM      4  N   UNL     1       2.039   5.426  20.096  0.00  0.00    +0.000 N 
ATOM      5  N   UNL     1       1.250   6.146  20.929  0.00  0.00    +0.000 NA
ENDROOT
BRANCH   3   6
ATOM      6  C   UNL     1       3.543   5.749  18.056  0.00  0.00    +0.000 A 
ATOM      7  C   UNL     1       4.283   6.671  17.305  0.00  0.00    +0.000 A 
ATOM      8  C   UNL     1       5.039   6.255  16.200  0.00  0.00    +0.000 A 
ATOM      9  C   UNL     1       5.075   4.904  15.829  0.00  0.00    +0.000 A 
ATOM     10  C   UNL     1       4.328   3.983  16.570  0.00  0.00    +0.000 A 
ATOM     11  C   UNL     1       3.552   4.407  17.652  0.00  0.00    +0.000 A 
BRANCH   9  12
ATOM     12  C   UNL     1       5.889   4.431  14.651  0.00  0.00    +0.000 C 
ATOM     13  F   UNL     1       6.798   5.344  14.208  0.00  0.00    +0.000 F 
ATOM     14  F   UNL     1       6.600   3.303  14.932  0.00  0.00    +0.000 F 
ATOM     15  F   UNL     1       5.114   4.123  13.573  0.00  0.00    +0.000 F 
ENDBRANCH   9  12
ENDBRANCH   3   6
BRANCH   4  16
ATOM     16  C   UNL     1       2.081   3.973  20.265  0.00  0.00    +0.000 C 
ATOM     17  C   UNL     1       2.289   3.571  21.725  0.00  0.00    +0.000 C 
ATOM     18  C   UNL     1       0.836   3.302  19.680  0.00  0.00    +0.000 C 
ENDBRANCH   4  16
BRANCH   1  19
ATOM     19  C   UNL     1       0.692   8.545  21.216  0.00  0.00    +0.000 C 
BRANCH  19  23
ATOM     20  C   UNL     1      -0.449  12.338  19.505  0.00  0.00    +0.000 C 
ATOM     21  C   UNL     1      -0.514  11.073  18.658  0.00  0.00    +0.000 C 
ATOM     22  C   UNL     1      -0.538   9.839  19.560  0.00  0.00    +0.000 C 
ATOM     23  N   UNL     1       0.701   9.759  20.357  0.00  0.00    +0.000 NA
ATOM     24  C   UNL     1       0.837  10.956  21.208  0.00  0.00    +0.000 C 
ATOM     25  C   UNL     1       0.784  12.263  20.408  0.00  0.00    +0.000 C 
BRANCH  20  27
ATOM     26  C   UNL     1      -1.867  13.593  20.981  0.00  0.00    +0.000 C 
ATOM     27  O   UNL     1      -1.677  12.399  20.242  0.00  0.00    +0.000 OA
ENDBRANCH  20  27
ENDBRANCH  19  23
ENDBRANCH   1  19
TORSDOF 6
ENDMDL
MODEL 2
REMARK VINA RESULT:      -7.4      5.245      8.975
REMARK  Name = 
REMARK  9 active torsions:
REMARK  status: ('A' for Active; 'I' for Inactive)
REMARK    1  A    between atoms: C_1  and  O_2
REMARK    2  A    between atoms: O_2  and  C_3
REMARK    3  A    between atoms: N_6  and  C_7
REMARK    4  A    between atoms: C_7  and  C_8
REMARK    5  A    between atoms: C_10  and  C_11
REMARK    6  A    between atoms: C_14  and  C_15
REMARK    7  A    between atoms: N_21  and  C_22
REMARK    8  A    between atoms: C_22  and  C_23
REMARK    9  A    between atoms: C_22  and  C_24
REMARK                            x       y       z     vdW  Elec       q    Type
REMARK                         _______ _______ _______ _____ _____    ______ ____
ROOT
ATOM      1  C   UNL     1       5.417   4.955  16.595  0.00  0.00    +0.000 A 
ATOM      2  C   UNL     1       4.738   6.187  16.715  0.00  0.00    +0.000 A 
ATOM      3  C   UNL     1       3.793   6.012  17.714  0.00  0.00    +0.000 A 
ATOM      4  N   UNL     1       3.861   4.665  18.020  0.00  0.00    +0.000 N 
ATOM      5  N   UNL     1       4.864   4.021  17.377  0.00  0.00    +0.000 NA
ENDROOT
BRANCH   3   6
ATOM      6  C   UNL     1       2.926   7.022  18.331  0.00  0.00    +0.000 A 
ATOM      7  C   UNL     1       2.570   8.172  17.615  0.00  0.00    +0.000 A 
ATOM      8  C   UNL     1       1.779   9.169  18.204  0.00  0.00    +0.000 A 
ATOM      9  C   UNL     1       1.322   9.029  19.521  0.00  0.00    +0.000 A 
ATOM     10  C   UNL     1       1.686   7.887  20.242  0.00  0.00    +0.000 A 
ATOM     11  C   UNL     1       2.500   6.912  19.660  0.00  0.00    +0.000 A 
BRANCH   9  12
ATOM     12  C   UNL     1       0.461  10.082  20.174  0.00  0.00    +0.000 C 
ATOM     13  F   UNL     1       1.117  10.829  21.105  0.00  0.00    +0.000 F 
ATOM     14  F   UNL     1      -0.046  10.968  19.272  0.00  0.00    +0.000 F 
ATOM     15  F   UNL     1      -0.616   9.548  20.816  0.00  0.00    +0.000 F 
ENDBRANCH   9  12
ENDBRANCH   3   6
BRANCH   4  16
ATOM     16  C   UNL     1       3.002   3.888  18.915  0.00  0.00    +0.000 C 
ATOM     17  C   UNL     1       1.706   3.453  18.231  0.00  0.00    +0.000 C 
ATOM     18  C   UNL     1       3.743   2.688  19.508  0.00  0.00    +0.000 C 
ENDBRANCH   4  16
BRANCH   1  19
ATOM     19  C   UNL     1       6.651   4.663  15.782  0.00  0.00    +0.000 C 
BRANCH  19  23
ATOM     20  C   UNL     1       6.584   3.760  11.563  0.00  0.00    +0.000 C 
ATOM     21  C   UNL     1       7.366   4.967  12.069  0.00  0.00    +0.000 C 
ATOM     22  C   UNL     1       7.646   4.821  13.565  0.00  0.00    +0.000 C 
ATOM     23  N   UNL     1       6.381   4.778  14.325  0.00  0.00    +0.000 NA
ATOM     24  C   UNL     1       5.564   3.631  13.888  0.00  0.00    +0.000 C 
ATOM     25  C   UNL     1       5.296   3.630  12.379  0.00  0.00    +0.000 C 
BRANCH  20  27
ATOM     26  C   UNL     1       6.995   1.449  11.061  0.00  0.00    +0.000 C 
ATOM     27  O   UNL     1       7.450   2.627  11.704  0.00  0.00    +0.000 OA
ENDBRANCH  20  27
ENDBRANCH  19  23
ENDBRANCH   1  19
TORSDOF 6
ENDMDL
MODEL 3
REMARK VINA RESULT:      -7.4      5.268      9.024
REMARK  Name = 
REMARK  9 active torsions:
REMARK  status: ('A' for Active; 'I' for Inactive)
REMARK    1  A    between atoms: C_1  and  O_2
REMARK    2  A    between atoms: O_2  and  C_3
REMARK    3  A    between atoms: N_6  and  C_7
REMARK    4  A    between atoms: C_7  and  C_8
REMARK    5  A    between atoms: C_10  and  C_11
REMARK    6  A    between atoms: C_14  and  C_15
REMARK    7  A    between atoms: N_21  and  C_22
REMARK    8  A    between atoms: C_22  and  C_23
REMARK    9  A    between atoms: C_22  and  C_24
REMARK                            x       y       z     vdW  Elec       q    Type
REMARK                         _______ _______ _______ _____ _____    ______ ____
ROOT
ATOM      1  C   UNL     1       5.419   5.063  16.524  0.00  0.00    +0.000 A 
ATOM      2  C   UNL     1       4.768   6.300  16.711  0.00  0.00    +0.000 A 
ATOM      3  C   UNL     1       3.804   6.088  17.683  0.00  0.00    +0.000 A 
ATOM      4  N   UNL     1       3.835   4.722  17.907  0.00  0.00    +0.000 N 
ATOM      5  N   UNL     1       4.833   4.095  17.239  0.00  0.00    +0.000 NA
ENDROOT
BRANCH   3   6
ATOM      6  C   UNL     1       2.952   7.079  18.349  0.00  0.00    +0.000 A 
ATOM      7  C   UNL     1       2.564   6.889  19.681  0.00  0.00    +0.000 A 
ATOM      8  C   UNL     1       1.714   7.803  20.320  0.00  0.00    +0.000 A 
ATOM      9  C   UNL     1       1.241   8.931  19.636  0.00  0.00    +0.000 A 
ATOM     10  C   UNL     1       1.617   9.118  18.303  0.00  0.00    +0.000 A 
ATOM     11  C   UNL     1       2.440   8.187  17.663  0.00  0.00    +0.000 A 
BRANCH   9  12
ATOM     12  C   UNL     1       0.334   9.935  20.304  0.00  0.00    +0.000 C 
ATOM     13  F   UNL     1      -0.482   9.394  21.252  0.00  0.00    +0.000 F 
ATOM     14  F   UNL     1       1.028  10.925  20.931  0.00  0.00    +0.000 F 
ATOM     15  F   UNL     1      -0.489  10.562  19.418  0.00  0.00    +0.000 F 
ENDBRANCH   9  12
ENDBRANCH   3   6
BRANCH   4  16
ATOM     16  C   UNL     1       2.944   3.914  18.739  0.00  0.00    +0.000 C 
ATOM     17  C   UNL     1       1.602   3.652  18.056  0.00  0.00    +0.000 C 
ATOM     18  C   UNL     1       3.609   2.604  19.169  0.00  0.00    +0.000 C 
ENDBRANCH   4  16
BRANCH   1  19
ATOM     19  C   UNL     1       6.659   4.791  15.713  0.00  0.00    +0.000 C 
BRANCH  19  23
ATOM     20  C   UNL     1       6.492   3.678  11.547  0.00  0.00    +0.000 C 
ATOM     21  C   UNL     1       7.339   4.869  11.981  0.00  0.00    +0.000 C 
ATOM     22  C   UNL     1       7.631   4.786  13.479  0.00  0.00    +0.000 C 
ATOM     23  N   UNL     1       6.376   4.845  14.254  0.00  0.00    +0.000 NA
ATOM     24  C   UNL     1       5.497   3.718  13.887  0.00  0.00    +0.000 C 
ATOM     25  C   UNL     1       5.210   3.654  12.382  0.00  0.00    +0.000 C 
BRANCH  20  27
ATOM     26  C   UNL     1       6.850   1.356  11.054  0.00  0.00    +0.000 C 
ATOM     27  O   UNL     1       7.303   2.512  11.737  0.00  0.00    +0.000 OA
ENDBRANCH  20  27
ENDBRANCH  19  23
ENDBRANCH   1  19
TORSDOF 6
ENDMDL
MODEL 4
REMARK VINA RESULT:      -7.3      0.637      1.366
REMARK  Name = 
REMARK  9 active torsions:
REMARK  status: ('A' for Active; 'I' for Inactive)
REMARK    1  A    between atoms: C_1  and  O_2
REMARK    2  A    between atoms: O_2  and  C_3
REMARK    3  A    between atoms: N_6  and  C_7
REMARK    4  A    between atoms: C_7  and  C_8
REMARK    5  A    between atoms: C_10  and  C_11
REMARK    6  A    between atoms: C_14  and  C_15
REMARK    7  A    between atoms: N_21  and  C_22
REMARK    8  A    between atoms: C_22  and  C_23
REMARK    9  A    between atoms: C_22  and  C_24
REMARK                            x       y       z     vdW  Elec       q    Type
REMARK                         _______ _______ _______ _____ _____    ______ ____
ROOT
ATOM      1  C   UNL     1       1.482   7.175  20.648  0.00  0.00    +0.000 A 
ATOM      2  C   UNL     1       2.448   7.322  19.630  0.00  0.00    +0.000 A 
ATOM      3  C   UNL     1       2.747   6.042  19.192  0.00  0.00    +0.000 A 
ATOM      4  N   UNL     1       2.065   5.211  20.064  0.00  0.00    +0.000 N 
ATOM      5  N   UNL     1       1.266   5.884  20.927  0.00  0.00    +0.000 NA
ENDROOT
BRANCH   3   6
ATOM      6  C   UNL     1       3.578   5.643  18.051  0.00  0.00    +0.000 A 
ATOM      7  C   UNL     1       3.783   4.287  17.772  0.00  0.00    +0.000 A 
ATOM      8  C   UNL     1       4.610   3.888  16.713  0.00  0.00    +0.000 A 
ATOM      9  C   UNL     1       5.244   4.843  15.907  0.00  0.00    +0.000 A 
ATOM     10  C   UNL     1       5.052   6.198  16.190  0.00  0.00    +0.000 A 
ATOM     11  C   UNL     1       4.250   6.589  17.266  0.00  0.00    +0.000 A 
BRANCH   9  12
ATOM     12  C   UNL     1       6.131   4.439  14.755  0.00  0.00    +0.000 C 
ATOM     13  F   UNL     1       5.599   3.463  13.967  0.00  0.00    +0.000 F 
ATOM     14  F   UNL     1       6.406   5.482  13.922  0.00  0.00    +0.000 F 
ATOM     15  F   UNL     1       7.340   3.966  15.169  0.00  0.00    +0.000 F 
ENDBRANCH   9  12
ENDBRANCH   3   6
BRANCH   4  16
ATOM     16  C   UNL     1       2.114   3.752  20.161  0.00  0.00    +0.000 C 
ATOM     17  C   UNL     1       2.380   3.281  21.591  0.00  0.00    +0.000 C 
ATOM     18  C   UNL     1       0.849   3.106  19.594  0.00  0.00    +0.000 C 
ENDBRANCH   4  16
BRANCH   1  19
ATOM     19  C   UNL     1       0.692   8.263  21.329  0.00  0.00    +0.000 C 
BRANCH  19  23
ATOM     20  C   UNL     1      -0.215  12.163  19.720  0.00  0.00    +0.000 C 
ATOM     21  C   UNL     1       0.072  11.000  18.777  0.00  0.00    +0.000 C 
ATOM     22  C   UNL     1      -0.109   9.672  19.511  0.00  0.00    +0.000 C 
ATOM     23  N   UNL     1       0.849   9.565  20.629  0.00  0.00    +0.000 NA
ATOM     24  C   UNL     1       0.634  10.663  21.590  0.00  0.00    +0.000 C 
ATOM     25  C   UNL     1       0.706  12.049  20.937  0.00  0.00    +0.000 C 
BRANCH  20  27
ATOM     26  C   UNL     1      -2.491  12.139  18.960  0.00  0.00    +0.000 C 
ATOM     27  O   UNL     1      -1.604  12.076  20.062  0.00  0.00    +0.000 OA
ENDBRANCH  20  27
ENDBRANCH  19  23
ENDBRANCH   1  19
TORSDOF 6
ENDMDL
MODEL 5
REMARK VINA RESULT:      -7.2      4.974      8.334
REMARK  Name = 
REMARK  9 active torsions:
REMARK  status: ('A' for Active; 'I' for Inactive)
REMARK    1  A    between atoms: C_1  and  O_2
REMARK    2  A    between atoms: O_2  and  C_3
REMARK    3  A    between atoms: N_6  and  C_7
REMARK    4  A    between atoms: C_7  and  C_8
REMARK    5  A    between atoms: C_10  and  C_11
REMARK    6  A    between atoms: C_14  and  C_15
REMARK    7  A    between atoms: N_21  and  C_22
REMARK    8  A    between atoms: C_22  and  C_23
REMARK    9  A    between atoms: C_22  and  C_24
REMARK                            x       y       z     vdW  Elec       q    Type
REMARK                         _______ _______ _______ _____ _____    ______ ____
ROOT
ATOM      1  C   UNL     1       4.526   4.910  18.878  0.00  0.00    +0.000 A 
ATOM      2  C   UNL     1       3.991   6.211  18.757  0.00  0.00    +0.000 A 
ATOM      3  C   UNL     1       2.849   6.234  19.542  0.00  0.00    +0.000 A 
ATOM      4  N   UNL     1       2.690   4.924  19.957  0.00  0.00    +0.000 N 
ATOM      5  N   UNL     1       3.717   4.120  19.594  0.00  0.00    +0.000 NA
ENDROOT
BRANCH   3   6
ATOM      6  C   UNL     1       2.004   7.384  19.881  0.00  0.00    +0.000 A 
ATOM      7  C   UNL     1       1.808   8.410  18.948  0.00  0.00    +0.000 A 
ATOM      8  C   UNL     1       1.039   9.537  19.271  0.00  0.00    +0.000 A 
ATOM      9  C   UNL     1       0.445   9.656  20.535  0.00  0.00    +0.000 A 
ATOM     10  C   UNL     1       0.648   8.638  21.472  0.00  0.00    +0.000 A 
ATOM     11  C   UNL     1       1.440   7.531  21.155  0.00  0.00    +0.000 A 
BRANCH   9  12
ATOM     12  C   UNL     1      -0.395  10.854  20.903  0.00  0.00    +0.000 C 
ATOM     13  F   UNL     1      -0.939  10.782  22.150  0.00  0.00    +0.000 F 
ATOM     14  F   UNL     1       0.317  12.015  20.871  0.00  0.00    +0.000 F 
ATOM     15  F   UNL     1      -1.441  11.037  20.050  0.00  0.00    +0.000 F 
ENDBRANCH   9  12
ENDBRANCH   3   6
BRANCH   4  16
ATOM     16  C   UNL     1       1.579   4.333  20.705  0.00  0.00    +0.000 C 
ATOM     17  C   UNL     1       0.583   3.624  19.787  0.00  0.00    +0.000 C 
ATOM     18  C   UNL     1       2.077   3.395  21.807  0.00  0.00    +0.000 C 
ENDBRANCH   4  16
BRANCH   1  19
ATOM     19  C   UNL     1       5.855   4.414  18.372  0.00  0.00    +0.000 C 
BRANCH  19  23
ATOM     20  C   UNL     1       6.554   4.962  14.149  0.00  0.00    +0.000 C 
ATOM     21  C   UNL     1       7.724   5.009  15.125  0.00  0.00    +0.000 C 
ATOM     22  C   UNL     1       7.337   4.334  16.441  0.00  0.00    +0.000 C 
ATOM     23  N   UNL     1       6.216   5.053  17.079  0.00  0.00    +0.000 NA
ATOM     24  C   UNL     1       5.039   5.051  16.189  0.00  0.00    +0.000 C 
ATOM     25  C   UNL     1       5.341   5.629  14.802  0.00  0.00    +0.000 C 
BRANCH  20  27
ATOM     26  C   UNL     1       5.959   3.319  12.504  0.00  0.00    +0.000 C 
ATOM     27  O   UNL     1       6.333   3.579  13.845  0.00  0.00    +0.000 OA
ENDBRANCH  20  27
ENDBRANCH  19  23
ENDBRANCH   1  19
TORSDOF 6
ENDMDL
MODEL 6
REMARK VINA RESULT:      -7.2      0.913      1.162
REMARK  Name = 
REMARK  9 active torsions:
REMARK  status: ('A' for Active; 'I' for Inactive)
REMARK    1  A    between atoms: C_1  and  O_2
REMARK    2  A    between atoms: O_2  and  C_3
REMARK    3  A    between atoms: N_6  and  C_7
REMARK    4  A    between atoms: C_7  and  C_8
REMARK    5  A    between atoms: C_10  and  C_11
REMARK    6  A    between atoms: C_14  and  C_15
REMARK    7  A    between atoms: N_21  and  C_22
REMARK    8  A    between atoms: C_22  and  C_23
REMARK    9  A    between atoms: C_22  and  C_24
REMARK                            x       y       z     vdW  Elec       q    Type
REMARK                         _______ _______ _______ _____ _____    ______ ____
ROOT
ATOM      1  C   UNL     1       1.691   7.389  20.687  0.00  0.00    +0.000 A 
ATOM      2  C   UNL     1       2.645   7.462  19.650  0.00  0.00    +0.000 A 
ATOM      3  C   UNL     1       2.835   6.162  19.208  0.00  0.00    +0.000 A 
ATOM      4  N   UNL     1       2.108   5.387  20.095  0.00  0.00    +0.000 N 
ATOM      5  N   UNL     1       1.382   6.119  20.972  0.00  0.00    +0.000 NA
ENDROOT
BRANCH   3   6
ATOM      6  C   UNL     1       3.611   5.700  18.052  0.00  0.00    +0.000 A 
ATOM      7  C   UNL     1       4.379   6.609  17.314  0.00  0.00    +0.000 A 
ATOM      8  C   UNL     1       5.092   6.194  16.180  0.00  0.00    +0.000 A 
ATOM      9  C   UNL     1       5.053   4.856  15.766  0.00  0.00    +0.000 A 
ATOM     10  C   UNL     1       4.277   3.949  16.493  0.00  0.00    +0.000 A 
ATOM     11  C   UNL     1       3.546   4.374  17.605  0.00  0.00    +0.000 A 
BRANCH   9  12
ATOM     12  C   UNL     1       5.819   4.383  14.556  0.00  0.00    +0.000 C 
ATOM     13  F   UNL     1       6.724   5.287  14.089  0.00  0.00    +0.000 F 
ATOM     14  F   UNL     1       6.523   3.242  14.801  0.00  0.00    +0.000 F 
ATOM     15  F   UNL     1       5.002   4.095  13.503  0.00  0.00    +0.000 F 
ENDBRANCH   9  12
ENDBRANCH   3   6
BRANCH   4  16
ATOM     16  C   UNL     1       2.047   3.928  20.193  0.00  0.00    +0.000 C 
ATOM     17  C   UNL     1       2.285   3.439  21.622  0.00  0.00    +0.000 C 
ATOM     18  C   UNL     1       0.732   3.380  19.634  0.00  0.00    +0.000 C 
ENDBRANCH   4  16
BRANCH   1  19
ATOM     19  C   UNL     1       1.002   8.535  21.381  0.00  0.00    +0.000 C 
BRANCH  19  23
ATOM     20  C   UNL     1      -0.494  11.707  18.866  0.00  0.00    +0.000 C 
ATOM     21  C   UNL     1      -1.263  11.304  20.119  0.00  0.00    +0.000 C 
ATOM     22  C   UNL     1      -0.347  10.540  21.074  0.00  0.00    +0.000 C 
ATOM     23  N   UNL     1       0.132   9.294  20.444  0.00  0.00    +0.000 NA
ATOM     24  C   UNL     1       0.890   9.603  19.217  0.00  0.00    +0.000 C 
ATOM     25  C   UNL     1       0.089  10.448  18.220  0.00  0.00    +0.000 C 
BRANCH  20  27
ATOM     26  C   UNL     1       0.270  13.982  18.926  0.00  0.00    +0.000 C 
ATOM     27  O   UNL     1       0.514  12.634  19.289  0.00  0.00    +0.000 OA
ENDBRANCH  20  27
ENDBRANCH  19  23
ENDBRANCH   1  19
TORSDOF 6
ENDMDL
MODEL 7
REMARK VINA RESULT:      -7.1      6.140      9.864
REMARK  Name = 
REMARK  9 active torsions:
REMARK  status: ('A' for Active; 'I' for Inactive)
REMARK    1  A    between atoms: C_1  and  O_2
REMARK    2  A    between atoms: O_2  and  C_3
REMARK    3  A    between atoms: N_6  and  C_7
REMARK    4  A    between atoms: C_7  and  C_8
REMARK    5  A    between atoms: C_10  and  C_11
REMARK    6  A    between atoms: C_14  and  C_15
REMARK    7  A    between atoms: N_21  and  C_22
REMARK    8  A    between atoms: C_22  and  C_23
REMARK    9  A    between atoms: C_22  and  C_24
REMARK                            x       y       z     vdW  Elec       q    Type
REMARK                         _______ _______ _______ _____ _____    ______ ____
ROOT
ATOM      1  C   UNL     1       1.587   9.471  18.491  0.00  0.00    +0.000 A 
ATOM      2  C   UNL     1       0.652   9.404  19.545  0.00  0.00    +0.000 A 
ATOM      3  C   UNL     1       0.403  10.713  19.926  0.00  0.00    +0.000 A 
ATOM      4  N   UNL     1       1.304  11.463  19.191  0.00  0.00    +0.000 N 
ATOM      5  N   UNL     1       2.002  10.728  18.292  0.00  0.00    +0.000 NA
ENDROOT
BRANCH   3   6
ATOM      6  C   UNL     1      -0.599  11.208  20.876  0.00  0.00    +0.000 A 
ATOM      7  C   UNL     1      -1.630  12.048  20.434  0.00  0.00    +0.000 A 
ATOM      8  C   UNL     1      -2.571  12.565  21.335  0.00  0.00    +0.000 A 
ATOM      9  C   UNL     1      -2.501  12.246  22.698  0.00  0.00    +0.000 A 
ATOM     10  C   UNL     1      -1.467  11.418  23.144  0.00  0.00    +0.000 A 
ATOM     11  C   UNL     1      -0.515  10.929  22.246  0.00  0.00    +0.000 A 
BRANCH   9  12
ATOM     12  C   UNL     1      -3.508  12.782  23.686  0.00  0.00    +0.000 C 
ATOM     13  F   UNL     1      -3.945  11.855  24.584  0.00  0.00    +0.000 F 
ATOM     14  F   UNL     1      -3.010  13.812  24.426  0.00  0.00    +0.000 F 
ATOM     15  F   UNL     1      -4.626  13.268  23.078  0.00  0.00    +0.000 F 
ENDBRANCH   9  12
ENDBRANCH   3   6
BRANCH   4  16
ATOM     16  C   UNL     1       1.584  12.897  19.278  0.00  0.00    +0.000 C 
ATOM     17  C   UNL     1       2.288  13.266  20.583  0.00  0.00    +0.000 C 
ATOM     18  C   UNL     1       2.375  13.392  18.065  0.00  0.00    +0.000 C 
ENDBRANCH   4  16
BRANCH   1  19
ATOM     19  C   UNL     1       2.054   8.345  17.606  0.00  0.00    +0.000 C 
BRANCH  19  23
ATOM     20  C   UNL     1       4.566   4.986  18.621  0.00  0.00    +0.000 C 
ATOM     21  C   UNL     1       3.537   5.496  19.624  0.00  0.00    +0.000 C 
ATOM     22  C   UNL     1       2.475   6.330  18.908  0.00  0.00    +0.000 C 
ATOM     23  N   UNL     1       3.089   7.518  18.281  0.00  0.00    +0.000 NA
ATOM     24  C   UNL     1       4.103   7.104  17.293  0.00  0.00    +0.000 C 
ATOM     25  C   UNL     1       5.174   6.184  17.889  0.00  0.00    +0.000 C 
BRANCH  20  27
ATOM     26  C   UNL     1       3.739   2.767  18.230  0.00  0.00    +0.000 C 
ATOM     27  O   UNL     1       3.871   4.091  17.744  0.00  0.00    +0.000 OA
ENDBRANCH  20  27
ENDBRANCH  19  23
ENDBRANCH   1  19
TORSDOF 6
ENDMDL
MODEL 8
REMARK VINA RESULT:      -7.0      4.992      8.388
REMARK  Name = 
REMARK  9 active torsions:
REMARK  status: ('A' for Active; 'I' for Inactive)
REMARK    1  A    between atoms: C_1  and  O_2
REMARK    2  A    between atoms: O_2  and  C_3
REMARK    3  A    between atoms: N_6  and  C_7
REMARK    4  A    between atoms: C_7  and  C_8
REMARK    5  A    between atoms: C_10  and  C_11
REMARK    6  A    between atoms: C_14  and  C_15
REMARK    7  A    between atoms: N_21  and  C_22
REMARK    8  A    between atoms: C_22  and  C_23
REMARK    9  A    between atoms: C_22  and  C_24
REMARK                            x       y       z     vdW  Elec       q    Type
REMARK                         _______ _______ _______ _____ _____    ______ ____
ROOT
ATOM      1  C   UNL     1       4.517   4.916  18.846  0.00  0.00    +0.000 A 
ATOM      2  C   UNL     1       4.015   6.232  18.765  0.00  0.00    +0.000 A 
ATOM      3  C   UNL     1       2.872   6.258  19.548  0.00  0.00    +0.000 A 
ATOM      4  N   UNL     1       2.679   4.940  19.922  0.00  0.00    +0.000 N 
ATOM      5  N   UNL     1       3.688   4.123  19.534  0.00  0.00    +0.000 NA
ENDROOT
BRANCH   3   6
ATOM      6  C   UNL     1       2.054   7.417  19.922  0.00  0.00    +0.000 A 
ATOM      7  C   UNL     1       1.489   7.494  21.201  0.00  0.00    +0.000 A 
ATOM      8  C   UNL     1       0.669   8.573  21.561  0.00  0.00    +0.000 A 
ATOM      9  C   UNL     1       0.405   9.601  20.647  0.00  0.00    +0.000 A 
ATOM     10  C   UNL     1       0.958   9.522  19.366  0.00  0.00    +0.000 A 
ATOM     11  C   UNL     1       1.750   8.430  19.003  0.00  0.00    +0.000 A 
BRANCH   9  12
ATOM     12  C   UNL     1      -0.466  10.778  21.013  0.00  0.00    +0.000 C 
ATOM     13  F   UNL     1       0.218  11.948  21.145  0.00  0.00    +0.000 F 
ATOM     14  F   UNL     1      -1.436  11.014  20.086  0.00  0.00    +0.000 F 
ATOM     15  F   UNL     1      -1.120  10.593  22.195  0.00  0.00    +0.000 F 
ENDBRANCH   9  12
ENDBRANCH   3   6
BRANCH   4  16
ATOM     16  C   UNL     1       1.553   4.353  20.648  0.00  0.00    +0.000 C 
ATOM     17  C   UNL     1       0.619   3.570  19.724  0.00  0.00    +0.000 C 
ATOM     18  C   UNL     1       2.026   3.486  21.817  0.00  0.00    +0.000 C 
ENDBRANCH   4  16
BRANCH   1  19
ATOM     19  C   UNL     1       5.835   4.403  18.327  0.00  0.00    +0.000 C 
BRANCH  19  23
ATOM     20  C   UNL     1       6.493   4.929  14.094  0.00  0.00    +0.000 C 
ATOM     21  C   UNL     1       7.675   4.967  15.057  0.00  0.00    +0.000 C 
ATOM     22  C   UNL     1       7.295   4.301  16.379  0.00  0.00    +0.000 C 
ATOM     23  N   UNL     1       6.188   5.033  17.027  0.00  0.00    +0.000 NA
ATOM     24  C   UNL     1       5.002   5.041  16.151  0.00  0.00    +0.000 C 
ATOM     25  C   UNL     1       5.295   5.611  14.758  0.00  0.00    +0.000 C 
BRANCH  20  27
ATOM     26  C   UNL     1       5.946   3.276  12.442  0.00  0.00    +0.000 C 
ATOM     27  O   UNL     1       6.255   3.547  13.798  0.00  0.00    +0.000 OA
ENDBRANCH  20  27
ENDBRANCH  19  23
ENDBRANCH   1  19
TORSDOF 6
ENDMDL
MODEL 9
REMARK VINA RESULT:      -7.0      3.362      6.076
REMARK  Name = 
REMARK  9 active torsions:
REMARK  status: ('A' for Active; 'I' for Inactive)
REMARK    1  A    between atoms: C_1  and  O_2
REMARK    2  A    between atoms: O_2  and  C_3
REMARK    3  A    between atoms: N_6  and  C_7
REMARK    4  A    between atoms: C_7  and  C_8
REMARK    5  A    between atoms: C_10  and  C_11
REMARK    6  A    between atoms: C_14  and  C_15
REMARK    7  A    between atoms: N_21  and  C_22
REMARK    8  A    between atoms: C_22  and  C_23
REMARK    9  A    between atoms: C_22  and  C_24
REMARK                            x       y       z     vdW  Elec       q    Type
REMARK                         _______ _______ _______ _____ _____    ______ ____
ROOT
ATOM      1  C   UNL     1      -1.649  12.106  19.499  0.00  0.00    +0.000 A 
ATOM      2  C   UNL     1      -1.269  10.798  19.131  0.00  0.00    +0.000 A 
ATOM      3  C   UNL     1       0.112  10.752  19.233  0.00  0.00    +0.000 A 
ATOM      4  N   UNL     1       0.480  12.058  19.505  0.00  0.00    +0.000 N 
ATOM      5  N   UNL     1      -0.577  12.880  19.705  0.00  0.00    +0.000 NA
ENDROOT
BRANCH   3   6
ATOM      6  C   UNL     1       0.994   9.587  19.105  0.00  0.00    +0.000 A 
ATOM      7  C   UNL     1       1.594   9.293  17.874  0.00  0.00    +0.000 A 
ATOM      8  C   UNL     1       2.404   8.159  17.723  0.00  0.00    +0.000 A 
ATOM      9  C   UNL     1       2.636   7.300  18.805  0.00  0.00    +0.000 A 
ATOM     10  C   UNL     1       2.029   7.585  20.032  0.00  0.00    +0.000 A 
ATOM     11  C   UNL     1       1.198   8.700  20.169  0.00  0.00    +0.000 A 
BRANCH   9  12
ATOM     12  C   UNL     1       3.512   6.079  18.670  0.00  0.00    +0.000 C 
ATOM     13  F   UNL     1       2.956   5.083  17.927  0.00  0.00    +0.000 F 
ATOM     14  F   UNL     1       4.708   6.362  18.082  0.00  0.00    +0.000 F 
ATOM     15  F   UNL     1       3.815   5.521  19.876  0.00  0.00    +0.000 F 
ENDBRANCH   9  12
ENDBRANCH   3   6
BRANCH   4  16
ATOM     16  C   UNL     1       1.826  12.628  19.587  0.00  0.00    +0.000 C 
ATOM     17  C   UNL     1       2.376  13.001  18.210  0.00  0.00    +0.000 C 
ATOM     18  C   UNL     1       1.875  13.822  20.543  0.00  0.00    +0.000 C 
ENDBRANCH   4  16
BRANCH   1  19
ATOM     19  C   UNL     1      -3.044  12.626  19.730  0.00  0.00    +0.000 C 
BRANCH  19  23
ATOM     20  C   UNL     1      -4.448  13.345  23.747  0.00  0.00    +0.000 C 
ATOM     21  C   UNL     1      -4.680  14.391  22.663  0.00  0.00    +0.000 C 
ATOM     22  C   UNL     1      -4.547  13.752  21.280  0.00  0.00    +0.000 C 
ATOM     23  N   UNL     1      -3.183  13.225  21.084  0.00  0.00    +0.000 NA
ATOM     24  C   UNL     1      -2.881  12.201  22.102  0.00  0.00    +0.000 C 
ATOM     25  C   UNL     1      -3.070  12.713  23.535  0.00  0.00    +0.000 C 
BRANCH  20  27
ATOM     26  C   UNL     1      -6.784  12.883  24.047  0.00  0.00    +0.000 C 
ATOM     27  O   UNL     1      -5.518  12.399  23.634  0.00  0.00    +0.000 OA
ENDBRANCH  20  27
ENDBRANCH  19  23
ENDBRANCH   1  19
TORSDOF 6
ENDMDL
