MODEL 1
REMARK VINA RESULT:      -7.1      0.000      0.000
REMARK  Name = 
REMARK  4 active torsions:
REMARK  status: ('A' for Active; 'I' for Inactive)
REMARK    1  A    between atoms: C_6  and  O_7
REMARK    2  A    between atoms: C_11  and  C_12
REMARK    3  A    between atoms: C_15  and  O_16
REMARK    4  A    between atoms: C_19  and  O_20
REMARK                            x       y       z     vdW  Elec       q    Type
REMARK                         _______ _______ _______ _____ _____    ______ ____
ROOT
ATOM      1  O   UNL     1       7.863   5.956  17.664  0.00  0.00    +0.000 OA
ATOM      2  C   UNL     1       6.796   5.461  17.308  0.00  0.00    +0.000 C 
ATOM      3  C   UNL     1       6.626   4.929  15.945  0.00  0.00    +0.000 A 
ATOM      4  C   UNL     1       7.521   5.277  14.927  0.00  0.00    +0.000 A 
ATOM      5  C   UNL     1       7.316   4.788  13.633  0.00  0.00    +0.000 A 
ATOM      6  C   UNL     1       6.230   3.958  13.383  0.00  0.00    +0.000 A 
ATOM      7  C   UNL     1       5.345   3.599  14.396  0.00  0.00    +0.000 A 
ATOM      8  C   UNL     1       5.551   4.077  15.692  0.00  0.00    +0.000 A 
ATOM      9  O   UNL     1       4.648   3.682  16.644  0.00  0.00    +0.000 OA
ATOM     10  C   UNL     1       5.077   3.891  18.006  0.00  0.00    +0.000 C 
ATOM     11  C   UNL     1       5.588   5.322  18.218  0.00  0.00    +0.000 C 
ENDROOT
BRANCH  10  12
ATOM     12  C   UNL     1       3.900   3.544  18.902  0.00  0.00    +0.000 A 
ATOM     13  C   UNL     1       2.623   4.058  18.619  0.00  0.00    +0.000 A 
ATOM     14  C   UNL     1       1.548   3.811  19.476  0.00  0.00    +0.000 A 
ATOM     15  C   UNL     1       1.745   3.037  20.613  0.00  0.00    +0.000 A 
ATOM     16  C   UNL     1       2.985   2.474  20.885  0.00  0.00    +0.000 A 
ATOM     17  C   UNL     1       4.062   2.726  20.033  0.00  0.00    +0.000 A 
BRANCH  15  18
ATOM     18  O   UNL     1       0.738   2.817  21.505  0.00  0.00    +0.000 OA
ATOM     19  H   UNL     1       0.394   3.677  21.796  0.00  0.00    +0.000 HD
ENDBRANCH  15  18
ENDBRANCH  10  12
BRANCH   6  20
ATOM     20  O   UNL     1       5.995   3.464  12.131  0.00  0.00    +0.000 OA
ATOM     21  H   UNL     1       6.355   2.563  12.073  0.00  0.00    +0.000 HD
ENDBRANCH   6  20
BRANCH  11  22
ATOM     22  O   UNL     1       5.931   5.588  19.576  0.00  0.00    +0.000 OA
ATOM     23  H   UNL     1       6.838   5.262  19.720  0.00  0.00    +0.000 HD
ENDBRANCH  11  22
TORSDOF 4
ENDMDL
MODEL 2
REMARK VINA RESULT:      -7.0      0.879      1.407
REMARK  Name = 
REMARK  4 active torsions:
REMARK  status: ('A' for Active; 'I' for Inactive)
REMARK    1  A    between atoms: C_6  and  O_7
REMARK    2  A    between atoms: C_11  and  C_12
REMARK    3  A    between atoms: C_15  and  O_16
REMARK    4  A    between atoms: C_19  and  O_20
REMARK                            x       y       z     vdW  Elec       q    Type
REMARK                         _______ _______ _______ _____ _____    ______ ____
ROOT
ATOM      1  O   UNL     1       7.624   6.478  16.629  0.00  0.00    +0.000 OA
ATOM      2  C   UNL     1       6.622   5.829  16.336  0.00  0.00    +0.000 C 
ATOM      3  C   UNL     1       6.558   5.058  15.083  0.00  0.00    +0.000 A 
ATOM      4  C   UNL     1       7.461   5.312  14.044  0.00  0.00    +0.000 A 
ATOM      5  C   UNL     1       7.356   4.592  12.850  0.00  0.00    +0.000 A 
ATOM      6  C   UNL     1       6.360   3.631  12.719  0.00  0.00    +0.000 A 
ATOM      7  C   UNL     1       5.469   3.367  13.756  0.00  0.00    +0.000 A 
ATOM      8  C   UNL     1       5.576   4.077  14.953  0.00  0.00    +0.000 A 
ATOM      9  O   UNL     1       4.673   3.766  15.935  0.00  0.00    +0.000 OA
ATOM     10  C   UNL     1       5.022   4.244  17.251  0.00  0.00    +0.000 C 
ATOM     11  C   UNL     1       5.393   5.733  17.225  0.00  0.00    +0.000 C 
ENDROOT
BRANCH  10  12
ATOM     12  C   UNL     1       3.844   3.944  18.162  0.00  0.00    +0.000 A 
ATOM     13  C   UNL     1       4.039   3.228  19.355  0.00  0.00    +0.000 A 
ATOM     14  C   UNL     1       2.954   2.878  20.163  0.00  0.00    +0.000 A 
ATOM     15  C   UNL     1       1.671   3.253  19.784  0.00  0.00    +0.000 A 
ATOM     16  C   UNL     1       1.460   4.006  18.637  0.00  0.00    +0.000 A 
ATOM     17  C   UNL     1       2.542   4.351  17.825  0.00  0.00    +0.000 A 
BRANCH  15  18
ATOM     18  O   UNL     1       0.580   2.885  20.514  0.00  0.00    +0.000 OA
ATOM     19  H   UNL     1       0.663   1.943  20.734  0.00  0.00    +0.000 HD
ENDBRANCH  15  18
ENDBRANCH  10  12
BRANCH   6  20
ATOM     20  O   UNL     1       6.225   2.910  11.567  0.00  0.00    +0.000 OA
ATOM     21  H   UNL     1       6.647   2.043  11.683  0.00  0.00    +0.000 HD
ENDBRANCH   6  20
BRANCH  11  22
ATOM     22  O   UNL     1       5.652   6.258  18.524  0.00  0.00    +0.000 OA
ATOM     23  H   UNL     1       5.959   7.177  18.415  0.00  0.00    +0.000 HD
ENDBRANCH  11  22
TORSDOF 4
ENDMDL
MODEL 3
REMARK VINA RESULT:      -6.9      3.455      4.534
REMARK  Name = 
REMARK  4 active torsions:
REMARK  status: ('A' for Active; 'I' for Inactive)
REMARK    1  A    between atoms: C_6  and  O_7
REMARK    2  A    between atoms: C_11  and  C_12
REMARK    3  A    between atoms: C_15  and  O_16
REMARK    4  A    between atoms: C_19  and  O_20
REMARK                            x       y       z     vdW  Elec       q    Type
REMARK                         _______ _______ _______ _____ _____    ______ ____
ROOT
ATOM      1  O   UNL     1       2.758   2.837  17.352  0.00  0.00    +0.000 OA
ATOM      2  C   UNL     1       3.281   3.933  17.544  0.00  0.00    +0.000 C 
ATOM      3  C   UNL     1       4.459   4.356  16.768  0.00  0.00    +0.000 A 
ATOM      4  C   UNL     1       5.221   3.419  16.060  0.00  0.00    +0.000 A 
ATOM      5  C   UNL     1       6.356   3.841  15.361  0.00  0.00    +0.000 A 
ATOM      6  C   UNL     1       6.705   5.186  15.377  0.00  0.00    +0.000 A 
ATOM      7  C   UNL     1       5.942   6.123  16.070  0.00  0.00    +0.000 A 
ATOM      8  C   UNL     1       4.802   5.708  16.761  0.00  0.00    +0.000 A 
ATOM      9  O   UNL     1       4.093   6.679  17.418  0.00  0.00    +0.000 OA
ATOM     10  C   UNL     1       2.760   6.291  17.811  0.00  0.00    +0.000 C 
ATOM     11  C   UNL     1       2.764   4.946  18.550  0.00  0.00    +0.000 C 
ENDROOT
BRANCH  10  12
ATOM     12  C   UNL     1       2.196   7.426  18.650  0.00  0.00    +0.000 A 
ATOM     13  C   UNL     1       2.074   7.280  20.042  0.00  0.00    +0.000 A 
ATOM     14  C   UNL     1       1.487   8.284  20.817  0.00  0.00    +0.000 A 
ATOM     15  C   UNL     1       1.029   9.442  20.200  0.00  0.00    +0.000 A 
ATOM     16  C   UNL     1       1.187   9.630  18.833  0.00  0.00    +0.000 A 
ATOM     17  C   UNL     1       1.768   8.626  18.058  0.00  0.00    +0.000 A 
BRANCH  15  18
ATOM     18  O   UNL     1       0.400  10.422  20.909  0.00  0.00    +0.000 OA
ATOM     19  H   UNL     1       0.145  10.058  21.772  0.00  0.00    +0.000 HD
ENDBRANCH  15  18
ENDBRANCH  10  12
BRANCH   6  20
ATOM     20  O   UNL     1       7.809   5.635  14.710  0.00  0.00    +0.000 OA
ATOM     21  H   UNL     1       7.745   6.598  14.602  0.00  0.00    +0.000 HD
ENDBRANCH   6  20
BRANCH  11  22
ATOM     22  O   UNL     1       1.474   4.582  19.034  0.00  0.00    +0.000 OA
ATOM     23  H   UNL     1       0.834   4.739  18.316  0.00  0.00    +0.000 HD
ENDBRANCH  11  22
TORSDOF 4
ENDMDL
MODEL 4
REMARK VINA RESULT:      -6.8      3.484      4.499
REMARK  Name = 
REMARK  4 active torsions:
REMARK  status: ('A' for Active; 'I' for Inactive)
REMARK    1  A    between atoms: C_6  and  O_7
REMARK    2  A    between atoms: C_11  and  C_12
REMARK    3  A    between atoms: C_15  and  O_16
REMARK    4  A    between atoms: C_19  and  O_20
REMARK                            x       y       z     vdW  Elec       q    Type
REMARK                         _______ _______ _______ _____ _____    ______ ____
ROOT
ATOM      1  O   UNL     1       2.836   2.828  17.598  0.00  0.00    +0.000 OA
ATOM      2  C   UNL     1       3.320   3.952  17.725  0.00  0.00    +0.000 C 
ATOM      3  C   UNL     1       4.472   4.376  16.912  0.00  0.00    +0.000 A 
ATOM      4  C   UNL     1       5.260   3.431  16.244  0.00  0.00    +0.000 A 
ATOM      5  C   UNL     1       6.371   3.857  15.509  0.00  0.00    +0.000 A 
ATOM      6  C   UNL     1       6.669   5.213  15.450  0.00  0.00    +0.000 A 
ATOM      7  C   UNL     1       5.880   6.157  16.102  0.00  0.00    +0.000 A 
ATOM      8  C   UNL     1       4.764   5.737  16.829  0.00  0.00    +0.000 A 
ATOM      9  O   UNL     1       4.027   6.715  17.443  0.00  0.00    +0.000 OA
ATOM     10  C   UNL     1       2.713   6.300  17.875  0.00  0.00    +0.000 C 
ATOM     11  C   UNL     1       2.776   4.998  18.683  0.00  0.00    +0.000 C 
ENDROOT
BRANCH  10  12
ATOM     12  C   UNL     1       2.117   7.456  18.660  0.00  0.00    +0.000 A 
ATOM     13  C   UNL     1       1.723   8.630  17.997  0.00  0.00    +0.000 A 
ATOM     14  C   UNL     1       1.245   9.730  18.714  0.00  0.00    +0.000 A 
ATOM     15  C   UNL     1       1.149   9.652  20.098  0.00  0.00    +0.000 A 
ATOM     16  C   UNL     1       1.483   8.484  20.770  0.00  0.00    +0.000 A 
ATOM     17  C   UNL     1       1.967   7.387  20.055  0.00  0.00    +0.000 A 
BRANCH  15  18
ATOM     18  O   UNL     1       0.741  10.720  20.842  0.00  0.00    +0.000 OA
ATOM     19  H   UNL     1       1.525  11.239  21.087  0.00  0.00    +0.000 HD
ENDBRANCH  15  18
ENDBRANCH  10  12
BRANCH   6  20
ATOM     20  O   UNL     1       7.747   5.666  14.744  0.00  0.00    +0.000 OA
ATOM     21  H   UNL     1       8.516   5.718  15.337  0.00  0.00    +0.000 HD
ENDBRANCH   6  20
BRANCH  11  22
ATOM     22  O   UNL     1       1.506   4.612  19.203  0.00  0.00    +0.000 OA
ATOM     23  H   UNL     1       1.666   4.058  19.990  0.00  0.00    +0.000 HD
ENDBRANCH  11  22
TORSDOF 4
ENDMDL
MODEL 5
REMARK VINA RESULT:      -6.7      2.265      6.746
REMARK  Name = 
REMARK  4 active torsions:
REMARK  status: ('A' for Active; 'I' for Inactive)
REMARK    1  A    between atoms: C_6  and  O_7
REMARK    2  A    between atoms: C_11  and  C_12
REMARK    3  A    between atoms: C_15  and  O_16
REMARK    4  A    between atoms: C_19  and  O_20
REMARK                            x       y       z     vdW  Elec       q    Type
REMARK                         _______ _______ _______ _____ _____    ______ ____
ROOT
ATOM      1  O   UNL     1       2.925   2.664  20.014  0.00  0.00    +0.000 OA
ATOM      2  C   UNL     1       3.053   3.590  19.217  0.00  0.00    +0.000 C 
ATOM      3  C   UNL     1       2.611   4.952  19.560  0.00  0.00    +0.000 A 
ATOM      4  C   UNL     1       1.732   5.168  20.628  0.00  0.00    +0.000 A 
ATOM      5  C   UNL     1       1.298   6.467  20.911  0.00  0.00    +0.000 A 
ATOM      6  C   UNL     1       1.754   7.522  20.129  0.00  0.00    +0.000 A 
ATOM      7  C   UNL     1       2.638   7.313  19.075  0.00  0.00    +0.000 A 
ATOM      8  C   UNL     1       3.082   6.019  18.795  0.00  0.00    +0.000 A 
ATOM      9  O   UNL     1       3.955   5.880  17.748  0.00  0.00    +0.000 OA
ATOM     10  C   UNL     1       4.658   4.621  17.709  0.00  0.00    +0.000 C 
ATOM     11  C   UNL     1       3.691   3.437  17.846  0.00  0.00    +0.000 C 
ENDROOT
BRANCH  10  12
ATOM     12  C   UNL     1       5.449   4.592  16.413  0.00  0.00    +0.000 A 
ATOM     13  C   UNL     1       6.813   4.932  16.411  0.00  0.00    +0.000 A 
ATOM     14  C   UNL     1       7.534   4.985  15.216  0.00  0.00    +0.000 A 
ATOM     15  C   UNL     1       6.895   4.685  14.019  0.00  0.00    +0.000 A 
ATOM     16  C   UNL     1       5.562   4.295  14.002  0.00  0.00    +0.000 A 
ATOM     17  C   UNL     1       4.839   4.249  15.195  0.00  0.00    +0.000 A 
BRANCH  15  18
ATOM     18  O   UNL     1       7.546   4.778  12.825  0.00  0.00    +0.000 OA
ATOM     19  H   UNL     1       8.331   4.207  12.859  0.00  0.00    +0.000 HD
ENDBRANCH  15  18
ENDBRANCH  10  12
BRANCH   6  20
ATOM     20  O   UNL     1       1.349   8.804  20.373  0.00  0.00    +0.000 OA
ATOM     21  H   UNL     1       1.303   8.946  21.333  0.00  0.00    +0.000 HD
ENDBRANCH   6  20
BRANCH  11  22
ATOM     22  O   UNL     1       4.344   2.176  17.717  0.00  0.00    +0.000 OA
ATOM     23  H   UNL     1       3.846   1.531  18.252  0.00  0.00    +0.000 HD
ENDBRANCH  11  22
TORSDOF 4
ENDMDL
MODEL 6
REMARK VINA RESULT:      -6.7      4.136      6.871
REMARK  Name = 
REMARK  4 active torsions:
REMARK  status: ('A' for Active; 'I' for Inactive)
REMARK    1  A    between atoms: C_6  and  O_7
REMARK    2  A    between atoms: C_11  and  C_12
REMARK    3  A    between atoms: C_15  and  O_16
REMARK    4  A    between atoms: C_19  and  O_20
REMARK                            x       y       z     vdW  Elec       q    Type
REMARK                         _______ _______ _______ _____ _____    ______ ____
ROOT
ATOM      1  O   UNL     1       2.249   9.402  17.408  0.00  0.00    +0.000 OA
ATOM      2  C   UNL     1       2.305   8.567  18.308  0.00  0.00    +0.000 C 
ATOM      3  C   UNL     1       1.562   8.759  19.566  0.00  0.00    +0.000 A 
ATOM      4  C   UNL     1       1.069  10.021  19.917  0.00  0.00    +0.000 A 
ATOM      5  C   UNL     1       0.400  10.185  21.133  0.00  0.00    +0.000 A 
ATOM      6  C   UNL     1       0.230   9.088  21.970  0.00  0.00    +0.000 A 
ATOM      7  C   UNL     1       0.707   7.829  21.618  0.00  0.00    +0.000 A 
ATOM      8  C   UNL     1       1.368   7.658  20.400  0.00  0.00    +0.000 A 
ATOM      9  O   UNL     1       1.809   6.394  20.110  0.00  0.00    +0.000 OA
ATOM     10  C   UNL     1       2.158   6.177  18.727  0.00  0.00    +0.000 C 
ATOM     11  C   UNL     1       3.097   7.275  18.209  0.00  0.00    +0.000 C 
ENDROOT
BRANCH  10  12
ATOM     12  C   UNL     1       2.763   4.787  18.632  0.00  0.00    +0.000 A 
ATOM     13  C   UNL     1       2.224   3.842  17.743  0.00  0.00    +0.000 A 
ATOM     14  C   UNL     1       2.721   2.537  17.701  0.00  0.00    +0.000 A 
ATOM     15  C   UNL     1       3.767   2.177  18.542  0.00  0.00    +0.000 A 
ATOM     16  C   UNL     1       4.350   3.108  19.391  0.00  0.00    +0.000 A 
ATOM     17  C   UNL     1       3.850   4.410  19.439  0.00  0.00    +0.000 A 
BRANCH  15  18
ATOM     18  O   UNL     1       4.244   0.900  18.574  0.00  0.00    +0.000 OA
ATOM     19  H   UNL     1       4.347   0.589  17.659  0.00  0.00    +0.000 HD
ENDBRANCH  15  18
ENDBRANCH  10  12
BRANCH   6  20
ATOM     20  O   UNL     1      -0.416   9.210  23.167  0.00  0.00    +0.000 OA
ATOM     21  H   UNL     1      -0.462  10.150  23.410  0.00  0.00    +0.000 HD
ENDBRANCH   6  20
BRANCH  11  22
ATOM     22  O   UNL     1       3.535   7.038  16.873  0.00  0.00    +0.000 OA
ATOM     23  H   UNL     1       2.742   6.971  16.311  0.00  0.00    +0.000 HD
ENDBRANCH  11  22
TORSDOF 4
ENDMDL
MODEL 7
REMARK VINA RESULT:      -6.6      4.680      7.317
REMARK  Name = 
REMARK  4 active torsions:
REMARK  status: ('A' for Active; 'I' for Inactive)
REMARK    1  A    between atoms: C_6  and  O_7
REMARK    2  A    between atoms: C_11  and  C_12
REMARK    3  A    between atoms: C_15  and  O_16
REMARK    4  A    between atoms: C_19  and  O_20
REMARK                            x       y       z     vdW  Elec       q    Type
REMARK                         _______ _______ _______ _____ _____    ______ ____
ROOT
ATOM      1  O   UNL     1       1.562   9.404  17.377  0.00  0.00    +0.000 OA
ATOM      2  C   UNL     1       1.853   8.847  18.433  0.00  0.00    +0.000 C 
ATOM      3  C   UNL     1       1.255   9.279  19.707  0.00  0.00    +0.000 A 
ATOM      4  C   UNL     1       0.628  10.526  19.814  0.00  0.00    +0.000 A 
ATOM      5  C   UNL     1       0.100  10.929  21.044  0.00  0.00    +0.000 A 
ATOM      6  C   UNL     1       0.202  10.080  22.140  0.00  0.00    +0.000 A 
ATOM      7  C   UNL     1       0.813   8.833  22.034  0.00  0.00    +0.000 A 
ATOM      8  C   UNL     1       1.333   8.423  20.805  0.00  0.00    +0.000 A 
ATOM      9  O   UNL     1       1.917   7.184  20.767  0.00  0.00    +0.000 OA
ATOM     10  C   UNL     1       2.117   6.651  19.441  0.00  0.00    +0.000 C 
ATOM     11  C   UNL     1       2.811   7.671  18.527  0.00  0.00    +0.000 C 
ENDROOT
BRANCH  10  12
ATOM     12  C   UNL     1       2.906   5.361  19.593  0.00  0.00    +0.000 A 
ATOM     13  C   UNL     1       4.288   5.346  19.341  0.00  0.00    +0.000 A 
ATOM     14  C   UNL     1       5.012   4.152  19.402  0.00  0.00    +0.000 A 
ATOM     15  C   UNL     1       4.355   2.972  19.728  0.00  0.00    +0.000 A 
ATOM     16  C   UNL     1       3.000   2.972  20.033  0.00  0.00    +0.000 A 
ATOM     17  C   UNL     1       2.275   4.162  19.966  0.00  0.00    +0.000 A 
BRANCH  15  18
ATOM     18  O   UNL     1       5.011   1.776  19.745  0.00  0.00    +0.000 OA
ATOM     19  H   UNL     1       5.735   1.835  20.389  0.00  0.00    +0.000 HD
ENDBRANCH  15  18
ENDBRANCH  10  12
BRANCH   6  20
ATOM     20  O   UNL     1      -0.299  10.440  23.358  0.00  0.00    +0.000 OA
ATOM     21  H   UNL     1      -0.732   9.671  23.764  0.00  0.00    +0.000 HD
ENDBRANCH   6  20
BRANCH  11  22
ATOM     22  O   UNL     1       3.107   7.141  17.238  0.00  0.00    +0.000 OA
ATOM     23  H   UNL     1       3.058   7.876  16.599  0.00  0.00    +0.000 HD
ENDBRANCH  11  22
TORSDOF 4
ENDMDL
MODEL 8
REMARK VINA RESULT:      -6.6      3.996      6.813
REMARK  Name = 
REMARK  4 active torsions:
REMARK  status: ('A' for Active; 'I' for Inactive)
REMARK    1  A    between atoms: C_6  and  O_7
REMARK    2  A    between atoms: C_11  and  C_12
REMARK    3  A    between atoms: C_15  and  O_16
REMARK    4  A    between atoms: C_19  and  O_20
REMARK                            x       y       z     vdW  Elec       q    Type
REMARK                         _______ _______ _______ _____ _____    ______ ____
ROOT
ATOM      1  O   UNL     1       2.432   9.044  17.383  0.00  0.00    +0.000 OA
ATOM      2  C   UNL     1       2.420   8.247  18.319  0.00  0.00    +0.000 C 
ATOM      3  C   UNL     1       1.650   8.527  19.543  0.00  0.00    +0.000 A 
ATOM      4  C   UNL     1       1.207   9.824  19.825  0.00  0.00    +0.000 A 
ATOM      5  C   UNL     1       0.509  10.070  21.012  0.00  0.00    +0.000 A 
ATOM      6  C   UNL     1       0.262   9.019  21.887  0.00  0.00    +0.000 A 
ATOM      7  C   UNL     1       0.691   7.725  21.603  0.00  0.00    +0.000 A 
ATOM      8  C   UNL     1       1.379   7.473  20.415  0.00  0.00    +0.000 A 
ATOM      9  O   UNL     1       1.768   6.178  20.192  0.00  0.00    +0.000 OA
ATOM     10  C   UNL     1       2.148   5.887  18.831  0.00  0.00    +0.000 C 
ATOM     11  C   UNL     1       3.154   6.917  18.299  0.00  0.00    +0.000 C 
ENDROOT
BRANCH  10  12
ATOM     12  C   UNL     1       2.690   4.468  18.814  0.00  0.00    +0.000 A 
ATOM     13  C   UNL     1       3.770   4.115  19.640  0.00  0.00    +0.000 A 
ATOM     14  C   UNL     1       4.328   2.836  19.578  0.00  0.00    +0.000 A 
ATOM     15  C   UNL     1       3.798   1.901  18.697  0.00  0.00    +0.000 A 
ATOM     16  C   UNL     1       2.697   2.210  17.910  0.00  0.00    +0.000 A 
ATOM     17  C   UNL     1       2.143   3.490  17.965  0.00  0.00    +0.000 A 
BRANCH  15  18
ATOM     18  O   UNL     1       4.346   0.660  18.565  0.00  0.00    +0.000 OA
ATOM     19  H   UNL     1       4.438   0.270  19.450  0.00  0.00    +0.000 HD
ENDBRANCH  15  18
ENDBRANCH  10  12
BRANCH   6  20
ATOM     20  O   UNL     1      -0.413   9.222  23.057  0.00  0.00    +0.000 OA
ATOM     21  H   UNL     1      -1.031   8.486  23.199  0.00  0.00    +0.000 HD
ENDBRANCH   6  20
BRANCH  11  22
ATOM     22  O   UNL     1       3.620   6.604  16.989  0.00  0.00    +0.000 OA
ATOM     23  H   UNL     1       3.605   5.633  16.895  0.00  0.00    +0.000 HD
ENDBRANCH  11  22
TORSDOF 4
ENDMDL
MODEL 9
REMARK VINA RESULT:      -6.6      3.794      4.633
REMARK  Name = 
REMARK  4 active torsions:
REMARK  status: ('A' for Active; 'I' for Inactive)
REMARK    1  A    between atoms: C_6  and  O_7
REMARK    2  A    between atoms: C_11  and  C_12
REMARK    3  A    between atoms: C_15  and  O_16
REMARK    4  A    between atoms: C_19  and  O_20
REMARK                            x       y       z     vdW  Elec       q    Type
REMARK                         _______ _______ _______ _____ _____    ______ ____
ROOT
ATOM      1  O   UNL     1       3.998   3.384  19.307  0.00  0.00    +0.000 OA
ATOM      2  C   UNL     1       4.126   4.513  18.837  0.00  0.00    +0.000 C 
ATOM      3  C   UNL     1       4.829   4.727  17.561  0.00  0.00    +0.000 A 
ATOM      4  C   UNL     1       5.660   3.735  17.030  0.00  0.00    +0.000 A 
ATOM      5  C   UNL     1       6.345   3.977  15.834  0.00  0.00    +0.000 A 
ATOM      6  C   UNL     1       6.182   5.198  15.192  0.00  0.00    +0.000 A 
ATOM      7  C   UNL     1       5.345   6.183  15.711  0.00  0.00    +0.000 A 
ATOM      8  C   UNL     1       4.652   5.941  16.898  0.00  0.00    +0.000 A 
ATOM      9  O   UNL     1       3.841   6.948  17.353  0.00  0.00    +0.000 OA
ATOM     10  C   UNL     1       2.887   6.548  18.359  0.00  0.00    +0.000 C 
ATOM     11  C   UNL     1       3.564   5.764  19.491  0.00  0.00    +0.000 C 
ENDROOT
BRANCH  10  12
ATOM     12  C   UNL     1       2.196   7.811  18.845  0.00  0.00    +0.000 A 
ATOM     13  C   UNL     1       1.748   7.903  20.173  0.00  0.00    +0.000 A 
ATOM     14  C   UNL     1       1.043   9.027  20.613  0.00  0.00    +0.000 A 
ATOM     15  C   UNL     1       0.795  10.067  19.726  0.00  0.00    +0.000 A 
ATOM     16  C   UNL     1       1.273  10.021  18.423  0.00  0.00    +0.000 A 
ATOM     17  C   UNL     1       1.972   8.896  17.981  0.00  0.00    +0.000 A 
BRANCH  15  18
ATOM     18  O   UNL     1       0.063  11.156  20.097  0.00  0.00    +0.000 OA
ATOM     19  H   UNL     1       0.593  11.683  20.717  0.00  0.00    +0.000 HD
ENDBRANCH  15  18
ENDBRANCH  10  12
BRANCH   6  20
ATOM     20  O   UNL     1       6.836   5.472  14.025  0.00  0.00    +0.000 OA
ATOM     21  H   UNL     1       6.599   4.803  13.362  0.00  0.00    +0.000 HD
ENDBRANCH   6  20
BRANCH  11  22
ATOM     22  O   UNL     1       2.664   5.435  20.547  0.00  0.00    +0.000 OA
ATOM     23  H   UNL     1       3.182   5.008  21.253  0.00  0.00    +0.000 HD
ENDBRANCH  11  22
TORSDOF 4
ENDMDL
