MODEL 1
REMARK VINA RESULT:      -8.2      0.000      0.000
REMARK  Name = 
REMARK  12 active torsions:
REMARK  status: ('A' for Active; 'I' for Inactive)
REMARK    1  A    between atoms: C_1  and  C_2
REMARK    2  A    between atoms: C_2  and  C_3
REMARK    3  A    between atoms: C_2  and  C_4
REMARK    4  A    between atoms: C_8  and  C_9
REMARK    5  A    between atoms: C_9  and  C_10
REMARK    6  A    between atoms: C_10  and  C_11
REMARK    7  A    between atoms: C_11  and  C_12
REMARK    8  A    between atoms: C_12  and  S_13
REMARK    9  A    between atoms: S_13  and  N_16
REMARK   10  A    between atoms: N_16  and  C_17
REMARK   11  A    between atoms: C_24  and  S_25
REMARK   12  A    between atoms: S_25  and  O_28
REMARK                            x       y       z     vdW  Elec       q    Type
REMARK                         _______ _______ _______ _____ _____    ______ ____
ROOT
ATOM      1  C   UNL     1       4.817   5.159  16.337  0.00  0.00    +0.000 A 
ATOM      2  C   UNL     1       4.494   6.504  16.800  0.00  0.00    +0.000 A 
ATOM      3  C   UNL     1       3.735   6.914  17.825  0.00  0.00    +0.000 A 
ATOM      4  C   UNL     1       2.995   6.100  18.757  0.00  0.00    +0.000 A 
ATOM      5  C   UNL     1       2.278   6.562  19.820  0.00  0.00    +0.000 A 
ATOM      6  C   UNL     1       1.613   5.437  20.475  0.00  0.00    +0.000 A 
ATOM      7  C   UNL     1       1.900   4.297  19.824  0.00  0.00    +0.000 A 
ATOM      8  C   UNL     1       2.783   4.641  18.719  0.00  0.00    +0.000 A 
ATOM      9  C   UNL     1       3.312   3.774  17.843  0.00  0.00    +0.000 A 
ATOM     10  C   UNL     1       4.272   4.016  16.793  0.00  0.00    +0.000 A 
ENDROOT
BRANCH   1  12
ATOM     11  C   UNL     1       7.282   4.978  15.847  0.00  0.00    +0.000 C 
ATOM     12  C   UNL     1       5.889   5.140  15.228  0.00  0.00    +0.000 C 
ATOM     13  C   UNL     1       5.683   4.091  14.123  0.00  0.00    +0.000 C 
ENDBRANCH   1  12
BRANCH   7  14
ATOM     14  S   UNL     1       1.394   2.770  20.396  0.00  0.00    +0.000 S 
ATOM     15  O   UNL     1       2.103   1.697  19.730  0.00  0.00    +0.000 OA
ATOM     16  O   UNL     1       1.246   2.795  21.834  0.00  0.00    +0.000 OA
BRANCH  14  17
ATOM     17  O   UNL     1      -0.095   2.706  19.768  0.00  0.00    +0.000 OA
ATOM     18  H   UNL     1      -0.188   3.471  19.161  0.00  0.00    +0.000 HD
ENDBRANCH  14  17
ENDBRANCH   7  14
BRANCH   5  19
ATOM     19  C   UNL     1       2.067   7.953  20.362  0.00  0.00    +0.000 C 
BRANCH  19  20
ATOM     20  C   UNL     1       0.587   8.230  20.682  0.00  0.00    +0.000 C 
BRANCH  20  21
ATOM     21  C   UNL     1       0.375   9.211  21.843  0.00  0.00    +0.000 C 
BRANCH  21  22
ATOM     22  C   UNL     1      -0.635  10.288  21.436  0.00  0.00    +0.000 C 
BRANCH  22  23
ATOM     23  S   UNL     1       0.118  11.909  21.268  0.00  0.00    +0.000 S 
ATOM     24  O   UNL     1      -0.581  12.812  22.159  0.00  0.00    +0.000 OA
ATOM     25  O   UNL     1       1.553  11.764  21.317  0.00  0.00    +0.000 OA
BRANCH  23  26
ATOM     26  N   UNL     1      -0.330  12.389  19.719  0.00  0.00    +0.000 N 
ATOM     27  H   UNL     1      -0.315  13.392  19.548  0.00  0.00    +0.000 HD
BRANCH  26  28
ATOM     28  C   UNL     1      -1.200  11.578  18.947  0.00  0.00    +0.000 A 
ATOM     29  C   UNL     1      -0.684  10.528  18.186  0.00  0.00    +0.000 A 
ATOM     30  C   UNL     1      -1.538   9.762  17.391  0.00  0.00    +0.000 A 
ATOM     31  C   UNL     1      -2.906  10.030  17.378  0.00  0.00    +0.000 A 
ATOM     32  C   UNL     1      -3.422  11.065  18.159  0.00  0.00    +0.000 A 
ATOM     33  C   UNL     1      -2.566  11.847  18.938  0.00  0.00    +0.000 A 
ENDBRANCH  26  28
ENDBRANCH  23  26
ENDBRANCH  22  23
ENDBRANCH  21  22
ENDBRANCH  20  21
ENDBRANCH  19  20
ENDBRANCH   5  19
TORSDOF 10
ENDMDL
MODEL 2
REMARK VINA RESULT:      -8.2      3.170      4.558
REMARK  Name = 
REMARK  12 active torsions:
REMARK  status: ('A' for Active; 'I' for Inactive)
REMARK    1  A    between atoms: C_1  and  C_2
REMARK    2  A    between atoms: C_2  and  C_3
REMARK    3  A    between atoms: C_2  and  C_4
REMARK    4  A    between atoms: C_8  and  C_9
REMARK    5  A    between atoms: C_9  and  C_10
REMARK    6  A    between atoms: C_10  and  C_11
REMARK    7  A    between atoms: C_11  and  C_12
REMARK    8  A    between atoms: C_12  and  S_13
REMARK    9  A    between atoms: S_13  and  N_16
REMARK   10  A    between atoms: N_16  and  C_17
REMARK   11  A    between atoms: C_24  and  S_25
REMARK   12  A    between atoms: S_25  and  O_28
REMARK                            x       y       z     vdW  Elec       q    Type
REMARK                         _______ _______ _______ _____ _____    ______ ____
ROOT
ATOM      1  C   UNL     1       2.609   3.257  19.433  0.00  0.00    +0.000 A 
ATOM      2  C   UNL     1       2.136   4.634  19.529  0.00  0.00    +0.000 A 
ATOM      3  C   UNL     1       2.593   5.754  18.955  0.00  0.00    +0.000 A 
ATOM      4  C   UNL     1       3.728   5.897  18.077  0.00  0.00    +0.000 A 
ATOM      5  C   UNL     1       4.124   7.052  17.472  0.00  0.00    +0.000 A 
ATOM      6  C   UNL     1       5.356   6.805  16.725  0.00  0.00    +0.000 A 
ATOM      7  C   UNL     1       5.728   5.523  16.873  0.00  0.00    +0.000 A 
ATOM      8  C   UNL     1       4.734   4.879  17.719  0.00  0.00    +0.000 A 
ATOM      9  C   UNL     1       4.736   3.589  18.084  0.00  0.00    +0.000 A 
ATOM     10  C   UNL     1       3.740   2.852  18.826  0.00  0.00    +0.000 A 
ENDROOT
BRANCH   1  12
ATOM     11  C   UNL     1       1.343   2.701  21.540  0.00  0.00    +0.000 C 
ATOM     12  C   UNL     1       1.667   2.242  20.113  0.00  0.00    +0.000 C 
ATOM     13  C   UNL     1       0.366   1.932  19.355  0.00  0.00    +0.000 C 
ENDBRANCH   1  12
BRANCH   7  14
ATOM     14  S   UNL     1       7.054   4.857  16.030  0.00  0.00    +0.000 S 
ATOM     15  O   UNL     1       7.498   5.736  14.968  0.00  0.00    +0.000 OA
ATOM     16  O   UNL     1       7.993   4.263  16.956  0.00  0.00    +0.000 OA
BRANCH  14  17
ATOM     17  O   UNL     1       6.323   3.641  15.253  0.00  0.00    +0.000 OA
ATOM     18  H   UNL     1       6.122   2.949  15.919  0.00  0.00    +0.000 HD
ENDBRANCH  14  17
ENDBRANCH   7  14
BRANCH   5  19
ATOM     19  C   UNL     1       3.538   8.441  17.478  0.00  0.00    +0.000 C 
BRANCH  19  20
ATOM     20  C   UNL     1       2.000   8.419  17.543  0.00  0.00    +0.000 C 
BRANCH  20  21
ATOM     21  C   UNL     1       1.416   9.200  18.727  0.00  0.00    +0.000 C 
BRANCH  21  22
ATOM     22  C   UNL     1       1.576  10.705  18.488  0.00  0.00    +0.000 C 
BRANCH  22  23
ATOM     23  S   UNL     1       0.236  11.661  19.205  0.00  0.00    +0.000 S 
ATOM     24  O   UNL     1       0.549  11.874  20.603  0.00  0.00    +0.000 OA
ATOM     25  O   UNL     1      -0.072  12.764  18.326  0.00  0.00    +0.000 OA
BRANCH  23  26
ATOM     26  N   UNL     1      -1.056  10.585  19.204  0.00  0.00    +0.000 N 
ATOM     27  H   UNL     1      -0.888   9.696  19.672  0.00  0.00    +0.000 HD
BRANCH  26  28
ATOM     28  C   UNL     1      -2.027  10.640  18.173  0.00  0.00    +0.000 A 
ATOM     29  C   UNL     1      -1.831   9.926  16.990  0.00  0.00    +0.000 A 
ATOM     30  C   UNL     1      -2.766  10.021  15.958  0.00  0.00    +0.000 A 
ATOM     31  C   UNL     1      -3.906  10.807  16.121  0.00  0.00    +0.000 A 
ATOM     32  C   UNL     1      -4.111  11.500  17.314  0.00  0.00    +0.000 A 
ATOM     33  C   UNL     1      -3.165  11.425  18.338  0.00  0.00    +0.000 A 
ENDBRANCH  26  28
ENDBRANCH  23  26
ENDBRANCH  22  23
ENDBRANCH  21  22
ENDBRANCH  20  21
ENDBRANCH  19  20
ENDBRANCH   5  19
TORSDOF 10
ENDMDL
MODEL 3
REMARK VINA RESULT:      -8.2      2.167      2.815
REMARK  Name = 
REMARK  12 active torsions:
REMARK  status: ('A' for Active; 'I' for Inactive)
REMARK    1  A    between atoms: C_1  and  C_2
REMARK    2  A    between atoms: C_2  and  C_3
REMARK    3  A    between atoms: C_2  and  C_4
REMARK    4  A    between atoms: C_8  and  C_9
REMARK    5  A    between atoms: C_9  and  C_10
REMARK    6  A    between atoms: C_10  and  C_11
REMARK    7  A    between atoms: C_11  and  C_12
REMARK    8  A    between atoms: C_12  and  S_13
REMARK    9  A    between atoms: S_13  and  N_16
REMARK   10  A    between atoms: N_16  and  C_17
REMARK   11  A    between atoms: C_24  and  S_25
REMARK   12  A    between atoms: S_25  and  O_28
REMARK                            x       y       z     vdW  Elec       q    Type
REMARK                         _______ _______ _______ _____ _____    ______ ____
ROOT
ATOM      1  C   UNL     1       4.915   5.141  16.223  0.00  0.00    +0.000 A 
ATOM      2  C   UNL     1       4.572   6.485  16.676  0.00  0.00    +0.000 A 
ATOM      3  C   UNL     1       3.790   6.892  17.684  0.00  0.00    +0.000 A 
ATOM      4  C   UNL     1       3.039   6.075  18.605  0.00  0.00    +0.000 A 
ATOM      5  C   UNL     1       2.298   6.535  19.652  0.00  0.00    +0.000 A 
ATOM      6  C   UNL     1       1.630   5.407  20.298  0.00  0.00    +0.000 A 
ATOM      7  C   UNL     1       1.939   4.267  19.658  0.00  0.00    +0.000 A 
ATOM      8  C   UNL     1       2.839   4.614  18.568  0.00  0.00    +0.000 A 
ATOM      9  C   UNL     1       3.393   3.749  17.706  0.00  0.00    +0.000 A 
ATOM     10  C   UNL     1       4.371   3.995  16.673  0.00  0.00    +0.000 A 
ENDROOT
BRANCH   1  12
ATOM     11  C   UNL     1       7.382   4.891  15.774  0.00  0.00    +0.000 C 
ATOM     12  C   UNL     1       6.008   5.127  15.135  0.00  0.00    +0.000 C 
ATOM     13  C   UNL     1       5.788   4.130  13.986  0.00  0.00    +0.000 C 
ENDBRANCH   1  12
BRANCH   7  14
ATOM     14  S   UNL     1       1.434   2.738  20.225  0.00  0.00    +0.000 S 
ATOM     15  O   UNL     1       2.108   1.667  19.521  0.00  0.00    +0.000 OA
ATOM     16  O   UNL     1       1.334   2.745  21.668  0.00  0.00    +0.000 OA
BRANCH  14  17
ATOM     17  O   UNL     1      -0.076   2.699  19.647  0.00  0.00    +0.000 OA
ATOM     18  H   UNL     1      -0.420   3.618  19.670  0.00  0.00    +0.000 HD
ENDBRANCH  14  17
ENDBRANCH   7  14
BRANCH   5  19
ATOM     19  C   UNL     1       2.066   7.926  20.185  0.00  0.00    +0.000 C 
BRANCH  19  20
ATOM     20  C   UNL     1       0.968   7.955  21.264  0.00  0.00    +0.000 C 
BRANCH  20  21
ATOM     21  C   UNL     1      -0.010   9.129  21.124  0.00  0.00    +0.000 C 
BRANCH  21  22
ATOM     22  C   UNL     1       0.350   9.963  19.891  0.00  0.00    +0.000 C 
BRANCH  22  23
ATOM     23  S   UNL     1       0.205  11.728  20.187  0.00  0.00    +0.000 S 
ATOM     24  O   UNL     1      -1.185  12.011  20.475  0.00  0.00    +0.000 OA
ATOM     25  O   UNL     1       1.259  12.138  21.084  0.00  0.00    +0.000 OA
BRANCH  23  26
ATOM     26  N   UNL     1       0.485  12.402  18.672  0.00  0.00    +0.000 N 
ATOM     27  H   UNL     1       0.526  11.742  17.898  0.00  0.00    +0.000 HD
BRANCH  26  28
ATOM     28  C   UNL     1       1.181  13.631  18.558  0.00  0.00    +0.000 A 
ATOM     29  C   UNL     1       0.537  14.830  18.865  0.00  0.00    +0.000 A 
ATOM     30  C   UNL     1       1.211  16.042  18.706  0.00  0.00    +0.000 A 
ATOM     31  C   UNL     1       2.535  16.051  18.267  0.00  0.00    +0.000 A 
ATOM     32  C   UNL     1       3.184  14.849  17.985  0.00  0.00    +0.000 A 
ATOM     33  C   UNL     1       2.503  13.637  18.121  0.00  0.00    +0.000 A 
ENDBRANCH  26  28
ENDBRANCH  23  26
ENDBRANCH  22  23
ENDBRANCH  21  22
ENDBRANCH  20  21
ENDBRANCH  19  20
ENDBRANCH   5  19
TORSDOF 10
ENDMDL
MODEL 4
REMARK VINA RESULT:      -8.2      2.119      3.023
REMARK  Name = 
REMARK  12 active torsions:
REMARK  status: ('A' for Active; 'I' for Inactive)
REMARK    1  A    between atoms: C_1  and  C_2
REMARK    2  A    between atoms: C_2  and  C_3
REMARK    3  A    between atoms: C_2  and  C_4
REMARK    4  A    between atoms: C_8  and  C_9
REMARK    5  A    between atoms: C_9  and  C_10
REMARK    6  A    between atoms: C_10  and  C_11
REMARK    7  A    between atoms: C_11  and  C_12
REMARK    8  A    between atoms: C_12  and  S_13
REMARK    9  A    between atoms: S_13  and  N_16
REMARK   10  A    between atoms: N_16  and  C_17
REMARK   11  A    between atoms: C_24  and  S_25
REMARK   12  A    between atoms: S_25  and  O_28
REMARK                            x       y       z     vdW  Elec       q    Type
REMARK                         _______ _______ _______ _____ _____    ______ ____
ROOT
ATOM      1  C   UNL     1       5.042   5.216  16.232  0.00  0.00    +0.000 A 
ATOM      2  C   UNL     1       4.478   6.530  16.522  0.00  0.00    +0.000 A 
ATOM      3  C   UNL     1       3.670   6.932  17.512  0.00  0.00    +0.000 A 
ATOM      4  C   UNL     1       3.111   6.134  18.575  0.00  0.00    +0.000 A 
ATOM      5  C   UNL     1       2.335   6.600  19.594  0.00  0.00    +0.000 A 
ATOM      6  C   UNL     1       1.904   5.474  20.421  0.00  0.00    +0.000 A 
ATOM      7  C   UNL     1       2.391   4.328  19.919  0.00  0.00    +0.000 A 
ATOM      8  C   UNL     1       3.176   4.670  18.742  0.00  0.00    +0.000 A 
ATOM      9  C   UNL     1       3.846   3.802  17.971  0.00  0.00    +0.000 A 
ATOM     10  C   UNL     1       4.729   4.068  16.859  0.00  0.00    +0.000 A 
ENDROOT
BRANCH   1  12
ATOM     11  C   UNL     1       7.493   5.382  15.674  0.00  0.00    +0.000 C 
ATOM     12  C   UNL     1       6.082   5.239  15.093  0.00  0.00    +0.000 C 
ATOM     13  C   UNL     1       6.033   4.047  14.124  0.00  0.00    +0.000 C 
ENDBRANCH   1  12
BRANCH   7  14
ATOM     14  S   UNL     1       2.189   2.829  20.712  0.00  0.00    +0.000 S 
ATOM     15  O   UNL     1       3.467   2.246  21.068  0.00  0.00    +0.000 OA
ATOM     16  O   UNL     1       1.105   2.906  21.666  0.00  0.00    +0.000 OA
BRANCH  14  17
ATOM     17  O   UNL     1       1.672   1.918  19.480  0.00  0.00    +0.000 OA
ATOM     18  H   UNL     1       2.029   1.014  19.617  0.00  0.00    +0.000 HD
ENDBRANCH  14  17
ENDBRANCH   7  14
BRANCH   5  19
ATOM     19  C   UNL     1       1.874   7.990  19.951  0.00  0.00    +0.000 C 
BRANCH  19  20
ATOM     20  C   UNL     1       1.296   8.058  21.376  0.00  0.00    +0.000 C 
BRANCH  20  21
ATOM     21  C   UNL     1      -0.037   8.814  21.472  0.00  0.00    +0.000 C 
BRANCH  21  22
ATOM     22  C   UNL     1      -0.122   9.861  20.357  0.00  0.00    +0.000 C 
BRANCH  22  23
ATOM     23  S   UNL     1      -0.147  11.540  20.992  0.00  0.00    +0.000 S 
ATOM     24  O   UNL     1       1.227  11.969  21.150  0.00  0.00    +0.000 OA
ATOM     25  O   UNL     1      -1.094  12.314  20.225  0.00  0.00    +0.000 OA
BRANCH  23  26
ATOM     26  N   UNL     1      -0.732  11.357  22.558  0.00  0.00    +0.000 N 
ATOM     27  H   UNL     1      -0.799  10.398  22.893  0.00  0.00    +0.000 HD
BRANCH  26  28
ATOM     28  C   UNL     1      -1.593  12.336  23.114  0.00  0.00    +0.000 A 
ATOM     29  C   UNL     1      -2.930  12.026  23.370  0.00  0.00    +0.000 A 
ATOM     30  C   UNL     1      -3.786  13.006  23.874  0.00  0.00    +0.000 A 
ATOM     31  C   UNL     1      -3.299  14.285  24.145  0.00  0.00    +0.000 A 
ATOM     32  C   UNL     1      -1.957  14.584  23.910  0.00  0.00    +0.000 A 
ATOM     33  C   UNL     1      -1.104  13.611  23.385  0.00  0.00    +0.000 A 
ENDBRANCH  26  28
ENDBRANCH  23  26
ENDBRANCH  22  23
ENDBRANCH  21  22
ENDBRANCH  20  21
ENDBRANCH  19  20
ENDBRANCH   5  19
TORSDOF 10
ENDMDL
MODEL 5
REMARK VINA RESULT:      -8.1      3.227      8.595
REMARK  Name = 
REMARK  12 active torsions:
REMARK  status: ('A' for Active; 'I' for Inactive)
REMARK    1  A    between atoms: C_1  and  C_2
REMARK    2  A    between atoms: C_2  and  C_3
REMARK    3  A    between atoms: C_2  and  C_4
REMARK    4  A    between atoms: C_8  and  C_9
REMARK    5  A    between atoms: C_9  and  C_10
REMARK    6  A    between atoms: C_10  and  C_11
REMARK    7  A    between atoms: C_11  and  C_12
REMARK    8  A    between atoms: C_12  and  S_13
REMARK    9  A    between atoms: S_13  and  N_16
REMARK   10  A    between atoms: N_16  and  C_17
REMARK   11  A    between atoms: C_24  and  S_25
REMARK   12  A    between atoms: S_25  and  O_28
REMARK                            x       y       z     vdW  Elec       q    Type
REMARK                         _______ _______ _______ _____ _____    ______ ____
ROOT
ATOM      1  C   UNL     1      -2.679  11.083  17.814  0.00  0.00    +0.000 A 
ATOM      2  C   UNL     1      -1.609  10.476  17.029  0.00  0.00    +0.000 A 
ATOM      3  C   UNL     1      -0.476   9.877  17.417  0.00  0.00    +0.000 A 
ATOM      4  C   UNL     1       0.008   9.689  18.762  0.00  0.00    +0.000 A 
ATOM      5  C   UNL     1       1.145   9.023  19.111  0.00  0.00    +0.000 A 
ATOM      6  C   UNL     1       1.330   9.116  20.559  0.00  0.00    +0.000 A 
ATOM      7  C   UNL     1       0.334   9.838  21.099  0.00  0.00    +0.000 A 
ATOM      8  C   UNL     1      -0.552  10.233  20.013  0.00  0.00    +0.000 A 
ATOM      9  C   UNL     1      -1.678  10.948  20.145  0.00  0.00    +0.000 A 
ATOM     10  C   UNL     1      -2.661  11.289  19.144  0.00  0.00    +0.000 A 
ENDROOT
BRANCH   1  12
ATOM     11  C   UNL     1      -3.843  10.799  15.598  0.00  0.00    +0.000 C 
ATOM     12  C   UNL     1      -3.899  11.492  16.964  0.00  0.00    +0.000 C 
ATOM     13  C   UNL     1      -5.271  11.255  17.615  0.00  0.00    +0.000 C 
ENDBRANCH   1  12
BRANCH   7  14
ATOM     14  S   UNL     1       0.165  10.036  22.786  0.00  0.00    +0.000 S 
ATOM     15  O   UNL     1       1.336   9.558  23.491  0.00  0.00    +0.000 OA
ATOM     16  O   UNL     1      -0.420  11.325  23.085  0.00  0.00    +0.000 OA
BRANCH  14  17
ATOM     17  O   UNL     1      -0.963   8.921  23.098  0.00  0.00    +0.000 OA
ATOM     18  H   UNL     1      -0.605   8.055  22.805  0.00  0.00    +0.000 HD
ENDBRANCH  14  17
ENDBRANCH   7  14
BRANCH   5  19
ATOM     19  C   UNL     1       2.170   8.284  18.289  0.00  0.00    +0.000 C 
BRANCH  19  20
ATOM     20  C   UNL     1       2.276   6.803  18.694  0.00  0.00    +0.000 C 
BRANCH  20  21
ATOM     21  C   UNL     1       3.719   6.291  18.809  0.00  0.00    +0.000 C 
BRANCH  21  22
ATOM     22  C   UNL     1       4.113   5.554  17.526  0.00  0.00    +0.000 C 
BRANCH  22  23
ATOM     23  S   UNL     1       5.260   4.207  17.832  0.00  0.00    +0.000 S 
ATOM     24  O   UNL     1       5.976   3.953  16.600  0.00  0.00    +0.000 OA
ATOM     25  O   UNL     1       5.958   4.461  19.070  0.00  0.00    +0.000 OA
BRANCH  23  26
ATOM     26  N   UNL     1       4.253   2.875  18.036  0.00  0.00    +0.000 N 
ATOM     27  H   UNL     1       4.148   2.275  17.221  0.00  0.00    +0.000 HD
BRANCH  26  28
ATOM     28  C   UNL     1       3.209   2.914  18.995  0.00  0.00    +0.000 A 
ATOM     29  C   UNL     1       3.507   2.832  20.355  0.00  0.00    +0.000 A 
ATOM     30  C   UNL     1       2.473   2.823  21.293  0.00  0.00    +0.000 A 
ATOM     31  C   UNL     1       1.148   2.921  20.871  0.00  0.00    +0.000 A 
ATOM     32  C   UNL     1       0.855   3.027  19.511  0.00  0.00    +0.000 A 
ATOM     33  C   UNL     1       1.887   3.013  18.570  0.00  0.00    +0.000 A 
ENDBRANCH  26  28
ENDBRANCH  23  26
ENDBRANCH  22  23
ENDBRANCH  21  22
ENDBRANCH  20  21
ENDBRANCH  19  20
ENDBRANCH   5  19
TORSDOF 10
ENDMDL
MODEL 6
REMARK VINA RESULT:      -8.1      3.403      9.289
REMARK  Name = 
REMARK  12 active torsions:
REMARK  status: ('A' for Active; 'I' for Inactive)
REMARK    1  A    between atoms: C_1  and  C_2
REMARK    2  A    between atoms: C_2  and  C_3
REMARK    3  A    between atoms: C_2  and  C_4
REMARK    4  A    between atoms: C_8  and  C_9
REMARK    5  A    between atoms: C_9  and  C_10
REMARK    6  A    between atoms: C_10  and  C_11
REMARK    7  A    between atoms: C_11  and  C_12
REMARK    8  A    between atoms: C_12  and  S_13
REMARK    9  A    between atoms: S_13  and  N_16
REMARK   10  A    between atoms: N_16  and  C_17
REMARK   11  A    between atoms: C_24  and  S_25
REMARK   12  A    between atoms: S_25  and  O_28
REMARK                            x       y       z     vdW  Elec       q    Type
REMARK                         _______ _______ _______ _____ _____    ______ ____
ROOT
ATOM      1  C   UNL     1      -3.649  11.118  17.904  0.00  0.00    +0.000 A 
ATOM      2  C   UNL     1      -2.828  10.153  17.180  0.00  0.00    +0.000 A 
ATOM      3  C   UNL     1      -1.533   9.836  17.314  0.00  0.00    +0.000 A 
ATOM      4  C   UNL     1      -0.575  10.405  18.229  0.00  0.00    +0.000 A 
ATOM      5  C   UNL     1       0.723  10.012  18.366  0.00  0.00    +0.000 A 
ATOM      6  C   UNL     1       1.387  10.878  19.337  0.00  0.00    +0.000 A 
ATOM      7  C   UNL     1       0.522  11.803  19.787  0.00  0.00    +0.000 A 
ATOM      8  C   UNL     1      -0.753  11.561  19.128  0.00  0.00    +0.000 A 
ATOM      9  C   UNL     1      -1.880  12.259  19.326  0.00  0.00    +0.000 A 
ATOM     10  C   UNL     1      -3.202  12.019  18.798  0.00  0.00    +0.000 A 
ENDROOT
BRANCH   1  12
ATOM     11  C   UNL     1      -5.920  10.387  18.715  0.00  0.00    +0.000 C 
ATOM     12  C   UNL     1      -5.148  11.024  17.554  0.00  0.00    +0.000 C 
ATOM     13  C   UNL     1      -5.818  12.346  17.143  0.00  0.00    +0.000 C 
ENDBRANCH   1  12
BRANCH   7  14
ATOM     14  S   UNL     1       0.928  12.899  21.032  0.00  0.00    +0.000 S 
ATOM     15  O   UNL     1       0.033  12.767  22.162  0.00  0.00    +0.000 OA
ATOM     16  O   UNL     1       2.363  12.950  21.210  0.00  0.00    +0.000 OA
BRANCH  14  17
ATOM     17  O   UNL     1       0.488  14.295  20.343  0.00  0.00    +0.000 OA
ATOM     18  H   UNL     1      -0.141  14.078  19.622  0.00  0.00    +0.000 HD
ENDBRANCH  14  17
ENDBRANCH   7  14
BRANCH   5  19
ATOM     19  C   UNL     1       1.516   8.917  17.699  0.00  0.00    +0.000 C 
BRANCH  19  20
ATOM     20  C   UNL     1       2.146   7.955  18.723  0.00  0.00    +0.000 C 
BRANCH  20  21
ATOM     21  C   UNL     1       2.616   6.624  18.119  0.00  0.00    +0.000 C 
BRANCH  21  22
ATOM     22  C   UNL     1       3.811   6.087  18.912  0.00  0.00    +0.000 C 
BRANCH  22  23
ATOM     23  S   UNL     1       4.741   4.851  18.001  0.00  0.00    +0.000 S 
ATOM     24  O   UNL     1       4.814   5.286  16.621  0.00  0.00    +0.000 OA
ATOM     25  O   UNL     1       5.930   4.516  18.748  0.00  0.00    +0.000 OA
BRANCH  23  26
ATOM     26  N   UNL     1       3.712   3.520  17.986  0.00  0.00    +0.000 N 
ATOM     27  H   UNL     1       3.410   3.209  17.065  0.00  0.00    +0.000 HD
BRANCH  26  28
ATOM     28  C   UNL     1       2.884   3.250  19.104  0.00  0.00    +0.000 A 
ATOM     29  C   UNL     1       1.498   3.366  18.990  0.00  0.00    +0.000 A 
ATOM     30  C   UNL     1       0.688   3.145  20.106  0.00  0.00    +0.000 A 
ATOM     31  C   UNL     1       1.264   2.784  21.324  0.00  0.00    +0.000 A 
ATOM     32  C   UNL     1       2.648   2.646  21.428  0.00  0.00    +0.000 A 
ATOM     33  C   UNL     1       3.461   2.889  20.319  0.00  0.00    +0.000 A 
ENDBRANCH  26  28
ENDBRANCH  23  26
ENDBRANCH  22  23
ENDBRANCH  21  22
ENDBRANCH  20  21
ENDBRANCH  19  20
ENDBRANCH   5  19
TORSDOF 10
ENDMDL
MODEL 7
REMARK VINA RESULT:      -8.1      1.328      1.815
REMARK  Name = 
REMARK  12 active torsions:
REMARK  status: ('A' for Active; 'I' for Inactive)
REMARK    1  A    between atoms: C_1  and  C_2
REMARK    2  A    between atoms: C_2  and  C_3
REMARK    3  A    between atoms: C_2  and  C_4
REMARK    4  A    between atoms: C_8  and  C_9
REMARK    5  A    between atoms: C_9  and  C_10
REMARK    6  A    between atoms: C_10  and  C_11
REMARK    7  A    between atoms: C_11  and  C_12
REMARK    8  A    between atoms: C_12  and  S_13
REMARK    9  A    between atoms: S_13  and  N_16
REMARK   10  A    between atoms: N_16  and  C_17
REMARK   11  A    between atoms: C_24  and  S_25
REMARK   12  A    between atoms: S_25  and  O_28
REMARK                            x       y       z     vdW  Elec       q    Type
REMARK                         _______ _______ _______ _____ _____    ______ ____
ROOT
ATOM      1  C   UNL     1       4.968   5.180  16.356  0.00  0.00    +0.000 A 
ATOM      2  C   UNL     1       4.546   6.521  16.749  0.00  0.00    +0.000 A 
ATOM      3  C   UNL     1       3.788   6.931  17.774  0.00  0.00    +0.000 A 
ATOM      4  C   UNL     1       3.151   6.119  18.781  0.00  0.00    +0.000 A 
ATOM      5  C   UNL     1       2.431   6.586  19.839  0.00  0.00    +0.000 A 
ATOM      6  C   UNL     1       1.886   5.454  20.586  0.00  0.00    +0.000 A 
ATOM      7  C   UNL     1       2.248   4.303  19.995  0.00  0.00    +0.000 A 
ATOM      8  C   UNL     1       3.062   4.648  18.839  0.00  0.00    +0.000 A 
ATOM      9  C   UNL     1       3.635   3.774  17.999  0.00  0.00    +0.000 A 
ATOM     10  C   UNL     1       4.537   4.028  16.900  0.00  0.00    +0.000 A 
ENDROOT
BRANCH   1  12
ATOM     11  C   UNL     1       7.388   4.819  15.756  0.00  0.00    +0.000 C 
ATOM     12  C   UNL     1       6.002   5.180  15.211  0.00  0.00    +0.000 C 
ATOM     13  C   UNL     1       5.662   4.282  14.010  0.00  0.00    +0.000 C 
ENDBRANCH   1  12
BRANCH   7  14
ATOM     14  S   UNL     1       1.892   2.779  20.677  0.00  0.00    +0.000 S 
ATOM     15  O   UNL     1       1.009   2.907  21.819  0.00  0.00    +0.000 OA
ATOM     16  O   UNL     1       1.639   1.808  19.636  0.00  0.00    +0.000 OA
BRANCH  14  17
ATOM     17  O   UNL     1       3.326   2.411  21.329  0.00  0.00    +0.000 OA
ATOM     18  H   UNL     1       3.986   3.029  20.947  0.00  0.00    +0.000 HD
ENDBRANCH  14  17
ENDBRANCH   7  14
BRANCH   5  19
ATOM     19  C   UNL     1       2.120   7.987  20.303  0.00  0.00    +0.000 C 
BRANCH  19  20
ATOM     20  C   UNL     1       0.815   8.523  19.686  0.00  0.00    +0.000 C 
BRANCH  20  21
ATOM     21  C   UNL     1       1.018   9.289  18.371  0.00  0.00    +0.000 C 
BRANCH  21  22
ATOM     22  C   UNL     1       1.301  10.765  18.667  0.00  0.00    +0.000 C 
BRANCH  22  23
ATOM     23  S   UNL     1      -0.168  11.655  19.189  0.00  0.00    +0.000 S 
ATOM     24  O   UNL     1      -0.069  11.865  20.618  0.00  0.00    +0.000 OA
ATOM     25  O   UNL     1      -0.395  12.754  18.281  0.00  0.00    +0.000 OA
BRANCH  23  26
ATOM     26  N   UNL     1      -1.399  10.525  18.997  0.00  0.00    +0.000 N 
ATOM     27  H   UNL     1      -1.222   9.609  19.407  0.00  0.00    +0.000 HD
BRANCH  26  28
ATOM     28  C   UNL     1      -2.287  10.621  17.897  0.00  0.00    +0.000 A 
ATOM     29  C   UNL     1      -1.968  10.004  16.686  0.00  0.00    +0.000 A 
ATOM     30  C   UNL     1      -2.823  10.140  15.591  0.00  0.00    +0.000 A 
ATOM     31  C   UNL     1      -4.005  10.869  15.715  0.00  0.00    +0.000 A 
ATOM     32  C   UNL     1      -4.332  11.465  16.934  0.00  0.00    +0.000 A 
ATOM     33  C   UNL     1      -3.467  11.348  18.024  0.00  0.00    +0.000 A 
ENDBRANCH  26  28
ENDBRANCH  23  26
ENDBRANCH  22  23
ENDBRANCH  21  22
ENDBRANCH  20  21
ENDBRANCH  19  20
ENDBRANCH   5  19
TORSDOF 10
ENDMDL
MODEL 8
REMARK VINA RESULT:      -8.0      1.864      2.407
REMARK  Name = 
REMARK  12 active torsions:
REMARK  status: ('A' for Active; 'I' for Inactive)
REMARK    1  A    between atoms: C_1  and  C_2
REMARK    2  A    between atoms: C_2  and  C_3
REMARK    3  A    between atoms: C_2  and  C_4
REMARK    4  A    between atoms: C_8  and  C_9
REMARK    5  A    between atoms: C_9  and  C_10
REMARK    6  A    between atoms: C_10  and  C_11
REMARK    7  A    between atoms: C_11  and  C_12
REMARK    8  A    between atoms: C_12  and  S_13
REMARK    9  A    between atoms: S_13  and  N_16
REMARK   10  A    between atoms: N_16  and  C_17
REMARK   11  A    between atoms: C_24  and  S_25
REMARK   12  A    between atoms: S_25  and  O_28
REMARK                            x       y       z     vdW  Elec       q    Type
REMARK                         _______ _______ _______ _____ _____    ______ ____
ROOT
ATOM      1  C   UNL     1       5.182   5.104  15.954  0.00  0.00    +0.000 A 
ATOM      2  C   UNL     1       4.706   6.441  16.291  0.00  0.00    +0.000 A 
ATOM      3  C   UNL     1       3.890   6.856  17.269  0.00  0.00    +0.000 A 
ATOM      4  C   UNL     1       3.228   6.052  18.266  0.00  0.00    +0.000 A 
ATOM      5  C   UNL     1       2.446   6.525  19.277  0.00  0.00    +0.000 A 
ATOM      6  C   UNL     1       1.898   5.398  20.028  0.00  0.00    +0.000 A 
ATOM      7  C   UNL     1       2.318   4.243  19.486  0.00  0.00    +0.000 A 
ATOM      8  C   UNL     1       3.176   4.580  18.359  0.00  0.00    +0.000 A 
ATOM      9  C   UNL     1       3.811   3.703  17.571  0.00  0.00    +0.000 A 
ATOM     10  C   UNL     1       4.757   3.954  16.509  0.00  0.00    +0.000 A 
ENDROOT
BRANCH   1  12
ATOM     11  C   UNL     1       7.660   5.056  15.500  0.00  0.00    +0.000 C 
ATOM     12  C   UNL     1       6.268   5.103  14.859  0.00  0.00    +0.000 C 
ATOM     13  C   UNL     1       6.142   3.996  13.800  0.00  0.00    +0.000 C 
ENDBRANCH   1  12
BRANCH   7  14
ATOM     14  S   UNL     1       1.972   2.727  20.191  0.00  0.00    +0.000 S 
ATOM     15  O   UNL     1       1.291   1.855  19.256  0.00  0.00    +0.000 OA
ATOM     16  O   UNL     1       3.100   2.263  20.967  0.00  0.00    +0.000 OA
BRANCH  14  17
ATOM     17  O   UNL     1       0.818   3.153  21.241  0.00  0.00    +0.000 OA
ATOM     18  H   UNL     1       0.945   2.610  22.049  0.00  0.00    +0.000 HD
ENDBRANCH  14  17
ENDBRANCH   7  14
BRANCH   5  19
ATOM     19  C   UNL     1       2.076   7.928  19.689  0.00  0.00    +0.000 C 
BRANCH  19  20
ATOM     20  C   UNL     1       1.343   7.958  21.042  0.00  0.00    +0.000 C 
BRANCH  20  21
ATOM     21  C   UNL     1       1.001   9.372  21.533  0.00  0.00    +0.000 C 
BRANCH  21  22
ATOM     22  C   UNL     1      -0.274   9.867  20.844  0.00  0.00    +0.000 C 
BRANCH  22  23
ATOM     23  S   UNL     1      -0.540  11.628  21.074  0.00  0.00    +0.000 S 
ATOM     24  O   UNL     1      -1.905  11.810  21.521  0.00  0.00    +0.000 OA
ATOM     25  O   UNL     1       0.573  12.175  21.812  0.00  0.00    +0.000 OA
BRANCH  23  26
ATOM     26  N   UNL     1      -0.508  12.235  19.506  0.00  0.00    +0.000 N 
ATOM     27  H   UNL     1      -1.016  11.690  18.813  0.00  0.00    +0.000 HD
BRANCH  26  28
ATOM     28  C   UNL     1       0.576  13.042  19.078  0.00  0.00    +0.000 A 
ATOM     29  C   UNL     1       1.735  12.446  18.577  0.00  0.00    +0.000 A 
ATOM     30  C   UNL     1       2.818  13.243  18.201  0.00  0.00    +0.000 A 
ATOM     31  C   UNL     1       2.731  14.631  18.302  0.00  0.00    +0.000 A 
ATOM     32  C   UNL     1       1.563  15.224  18.781  0.00  0.00    +0.000 A 
ATOM     33  C   UNL     1       0.487  14.428  19.179  0.00  0.00    +0.000 A 
ENDBRANCH  26  28
ENDBRANCH  23  26
ENDBRANCH  22  23
ENDBRANCH  21  22
ENDBRANCH  20  21
ENDBRANCH  19  20
ENDBRANCH   5  19
TORSDOF 10
ENDMDL
MODEL 9
REMARK VINA RESULT:      -8.0      0.876      1.153
REMARK  Name = 
REMARK  12 active torsions:
REMARK  status: ('A' for Active; 'I' for Inactive)
REMARK    1  A    between atoms: C_1  and  C_2
REMARK    2  A    between atoms: C_2  and  C_3
REMARK    3  A    between atoms: C_2  and  C_4
REMARK    4  A    between atoms: C_8  and  C_9
REMARK    5  A    between atoms: C_9  and  C_10
REMARK    6  A    between atoms: C_10  and  C_11
REMARK    7  A    between atoms: C_11  and  C_12
REMARK    8  A    between atoms: C_12  and  S_13
REMARK    9  A    between atoms: S_13  and  N_16
REMARK   10  A    between atoms: N_16  and  C_17
REMARK   11  A    between atoms: C_24  and  S_25
REMARK   12  A    between atoms: S_25  and  O_28
REMARK                            x       y       z     vdW  Elec       q    Type
REMARK                         _______ _______ _______ _____ _____    ______ ____
ROOT
ATOM      1  C   UNL     1       4.958   5.297  16.262  0.00  0.00    +0.000 A 
ATOM      2  C   UNL     1       4.462   6.633  16.574  0.00  0.00    +0.000 A 
ATOM      3  C   UNL     1       3.689   7.063  17.579  0.00  0.00    +0.000 A 
ATOM      4  C   UNL     1       3.107   6.281  18.642  0.00  0.00    +0.000 A 
ATOM      5  C   UNL     1       2.369   6.772  19.677  0.00  0.00    +0.000 A 
ATOM      6  C   UNL     1       1.896   5.660  20.500  0.00  0.00    +0.000 A 
ATOM      7  C   UNL     1       2.321   4.497  19.979  0.00  0.00    +0.000 A 
ATOM      8  C   UNL     1       3.105   4.814  18.794  0.00  0.00    +0.000 A 
ATOM      9  C   UNL     1       3.722   3.923  18.004  0.00  0.00    +0.000 A 
ATOM     10  C   UNL     1       4.599   4.159  16.882  0.00  0.00    +0.000 A 
ENDROOT
BRANCH   1  12
ATOM     11  C   UNL     1       7.403   5.426  15.665  0.00  0.00    +0.000 C 
ATOM     12  C   UNL     1       5.982   5.284  15.108  0.00  0.00    +0.000 C 
ATOM     13  C   UNL     1       5.908   4.069  14.169  0.00  0.00    +0.000 C 
ENDBRANCH   1  12
BRANCH   7  14
ATOM     14  S   UNL     1       2.059   3.001  20.759  0.00  0.00    +0.000 S 
ATOM     15  O   UNL     1       0.676   2.585  20.649  0.00  0.00    +0.000 OA
ATOM     16  O   UNL     1       3.144   2.089  20.475  0.00  0.00    +0.000 OA
BRANCH  14  17
ATOM     17  O   UNL     1       2.212   3.451  22.305  0.00  0.00    +0.000 OA
ATOM     18  H   UNL     1       1.333   3.771  22.603  0.00  0.00    +0.000 HD
ENDBRANCH  14  17
ENDBRANCH   7  14
BRANCH   5  19
ATOM     19  C   UNL     1       1.980   8.179  20.055  0.00  0.00    +0.000 C 
BRANCH  19  20
ATOM     20  C   UNL     1       0.865   8.205  21.117  0.00  0.00    +0.000 C 
BRANCH  20  21
ATOM     21  C   UNL     1       0.629   9.588  21.737  0.00  0.00    +0.000 C 
BRANCH  21  22
ATOM     22  C   UNL     1       1.272  10.668  20.861  0.00  0.00    +0.000 C 
BRANCH  22  23
ATOM     23  S   UNL     1       0.204  12.093  20.631  0.00  0.00    +0.000 S 
ATOM     24  O   UNL     1       0.176  12.826  21.880  0.00  0.00    +0.000 OA
ATOM     25  O   UNL     1       0.549  12.738  19.387  0.00  0.00    +0.000 OA
BRANCH  23  26
ATOM     26  N   UNL     1      -1.328  11.414  20.488  0.00  0.00    +0.000 N 
ATOM     27  H   UNL     1      -1.645  10.872  21.290  0.00  0.00    +0.000 HD
BRANCH  26  28
ATOM     28  C   UNL     1      -1.854  11.109  19.208  0.00  0.00    +0.000 A 
ATOM     29  C   UNL     1      -1.244  10.134  18.417  0.00  0.00    +0.000 A 
ATOM     30  C   UNL     1      -1.736   9.870  17.137  0.00  0.00    +0.000 A 
ATOM     31  C   UNL     1      -2.851  10.561  16.663  0.00  0.00    +0.000 A 
ATOM     32  C   UNL     1      -3.473  11.518  17.466  0.00  0.00    +0.000 A 
ATOM     33  C   UNL     1      -2.967  11.799  18.737  0.00  0.00    +0.000 A 
ENDBRANCH  26  28
ENDBRANCH  23  26
ENDBRANCH  22  23
ENDBRANCH  21  22
ENDBRANCH  20  21
ENDBRANCH  19  20
ENDBRANCH   5  19
TORSDOF 10
ENDMDL
