MODEL 1
REMARK VINA RESULT:      -7.9      0.000      0.000
REMARK  Name = 
REMARK  11 active torsions:
REMARK  status: ('A' for Active; 'I' for Inactive)
REMARK    1  A    between atoms: C_1  and  O_2
REMARK    2  A    between atoms: O_2  and  C_3
REMARK    3  A    between atoms: C_6  and  C_7
REMARK    4  A    between atoms: C_8  and  C_9
REMARK    5  A    between atoms: N_12  and  C_13
REMARK    6  A    between atoms: C_13  and  C_14
REMARK    7  A    between atoms: C_14  and  C_15
REMARK    8  A    between atoms: C_15  and  C_16
REMARK    9  A    between atoms: C_16  and  N_17
REMARK   10  A    between atoms: C_26  and  O_27
REMARK   11  A    between atoms: O_27  and  C_28
REMARK                            x       y       z     vdW  Elec       q    Type
REMARK                         _______ _______ _______ _____ _____    ______ ____
ROOT
ATOM      1  C   UNL     1       2.928   6.756  17.992  0.00  0.00    +0.000 A 
ATOM      2  N   UNL     1       2.502   5.496  18.073  0.00  0.00    +0.000 NA
ATOM      3  C   UNL     1       3.278   4.530  17.570  0.00  0.00    +0.000 A 
ATOM      4  N   UNL     1       2.904   3.180  17.818  0.00  0.00    +0.000 N 
ATOM      5  C   UNL     1       4.485   4.805  16.939  0.00  0.00    +0.000 A 
ATOM      6  C   UNL     1       5.258   3.816  16.279  0.00  0.00    +0.000 A 
ATOM      7  C   UNL     1       6.493   4.131  15.732  0.00  0.00    +0.000 A 
ATOM      8  C   UNL     1       6.972   5.426  15.874  0.00  0.00    +0.000 A 
ATOM      9  C   UNL     1       6.175   6.413  16.482  0.00  0.00    +0.000 A 
ATOM     10  C   UNL     1       4.898   6.142  16.983  0.00  0.00    +0.000 A 
ATOM     11  N   UNL     1       4.121   7.128  17.497  0.00  0.00    +0.000 NA
ATOM     12  H   UNL     1       3.539   2.843  18.541  0.00  0.00    +0.000 HD
ENDROOT
BRANCH   1  14
ATOM     13  C   UNL     1       1.605   8.904  18.150  0.00  0.00    +0.000 C 
ATOM     14  C   UNL     1       2.007   7.712  18.620  0.00  0.00    +0.000 C 
BRANCH  13  18
ATOM     15  C   UNL     1      -1.007  11.402  20.513  0.00  0.00    +0.000 A 
ATOM     16  C   UNL     1      -1.130  11.398  19.113  0.00  0.00    +0.000 A 
ATOM     17  C   UNL     1      -0.277  10.623  18.308  0.00  0.00    +0.000 A 
ATOM     18  C   UNL     1       0.727   9.837  18.885  0.00  0.00    +0.000 A 
ATOM     19  C   UNL     1       0.906   9.940  20.268  0.00  0.00    +0.000 A 
ATOM     20  C   UNL     1       0.058  10.700  21.092  0.00  0.00    +0.000 A 
BRANCH  15  22
ATOM     21  C   UNL     1      -1.567  13.480  21.506  0.00  0.00    +0.000 C 
ATOM     22  O   UNL     1      -1.874  12.101  21.310  0.00  0.00    +0.000 OA
ENDBRANCH  15  22
BRANCH  20  23
ATOM     23  O   UNL     1       0.431  10.609  22.407  0.00  0.00    +0.000 OA
ATOM     24  C   UNL     1      -0.117   9.590  23.221  0.00  0.00    +0.000 C 
ENDBRANCH  20  23
ENDBRANCH  13  18
ENDBRANCH   1  14
BRANCH   4  25
ATOM     25  C   UNL     1       1.504   3.083  18.211  0.00  0.00    +0.000 C 
BRANCH  25  26
ATOM     26  C   UNL     1       1.356   2.316  19.514  0.00  0.00    +0.000 C 
BRANCH  26  27
ATOM     27  C   UNL     1       0.982   3.327  20.600  0.00  0.00    +0.000 C 
BRANCH  27  28
ATOM     28  C   UNL     1       2.178   3.765  21.414  0.00  0.00    +0.000 C 
BRANCH  28  29
ATOM     29  N   UNL     1       2.384   5.192  21.208  0.00  0.00    +0.000 NA
ATOM     30  H   UNL     1       3.105   5.341  20.504  0.00  0.00    +0.000 HD
ATOM     31  H   UNL     1       2.731   5.615  22.069  0.00  0.00    +0.000 HD
ENDBRANCH  28  29
ENDBRANCH  27  28
ENDBRANCH  26  27
ENDBRANCH  25  26
ENDBRANCH   4  25
TORSDOF 9
ENDMDL
MODEL 2
REMARK VINA RESULT:      -7.8      0.968      1.202
REMARK  Name = 
REMARK  11 active torsions:
REMARK  status: ('A' for Active; 'I' for Inactive)
REMARK    1  A    between atoms: C_1  and  O_2
REMARK    2  A    between atoms: O_2  and  C_3
REMARK    3  A    between atoms: C_6  and  C_7
REMARK    4  A    between atoms: C_8  and  C_9
REMARK    5  A    between atoms: N_12  and  C_13
REMARK    6  A    between atoms: C_13  and  C_14
REMARK    7  A    between atoms: C_14  and  C_15
REMARK    8  A    between atoms: C_15  and  C_16
REMARK    9  A    between atoms: C_16  and  N_17
REMARK   10  A    between atoms: C_26  and  O_27
REMARK   11  A    between atoms: O_27  and  C_28
REMARK                            x       y       z     vdW  Elec       q    Type
REMARK                         _______ _______ _______ _____ _____    ______ ____
ROOT
ATOM      1  C   UNL     1       3.027   6.979  17.906  0.00  0.00    +0.000 A 
ATOM      2  N   UNL     1       2.511   5.754  17.999  0.00  0.00    +0.000 NA
ATOM      3  C   UNL     1       3.234   4.724  17.543  0.00  0.00    +0.000 A 
ATOM      4  N   UNL     1       2.758   3.410  17.807  0.00  0.00    +0.000 N 
ATOM      5  C   UNL     1       4.476   4.901  16.947  0.00  0.00    +0.000 A 
ATOM      6  C   UNL     1       5.200   3.845  16.335  0.00  0.00    +0.000 A 
ATOM      7  C   UNL     1       6.470   4.062  15.823  0.00  0.00    +0.000 A 
ATOM      8  C   UNL     1       7.035   5.323  15.954  0.00  0.00    +0.000 A 
ATOM      9  C   UNL     1       6.289   6.376  16.514  0.00  0.00    +0.000 A 
ATOM     10  C   UNL     1       4.980   6.206  16.977  0.00  0.00    +0.000 A 
ATOM     11  N   UNL     1       4.258   7.256  17.444  0.00  0.00    +0.000 NA
ATOM     12  H   UNL     1       3.345   3.047  18.557  0.00  0.00    +0.000 HD
ENDROOT
BRANCH   1  14
ATOM     13  C   UNL     1       1.400   8.911  17.833  0.00  0.00    +0.000 C 
ATOM     14  C   UNL     1       2.155   8.011  18.482  0.00  0.00    +0.000 C 
BRANCH  13  18
ATOM     15  C   UNL     1      -0.805  11.891  20.048  0.00  0.00    +0.000 A 
ATOM     16  C   UNL     1      -1.439  11.189  19.009  0.00  0.00    +0.000 A 
ATOM     17  C   UNL     1      -0.745  10.235  18.245  0.00  0.00    +0.000 A 
ATOM     18  C   UNL     1       0.604   9.965  18.496  0.00  0.00    +0.000 A 
ATOM     19  C   UNL     1       1.247  10.752  19.458  0.00  0.00    +0.000 A 
ATOM     20  C   UNL     1       0.569  11.703  20.241  0.00  0.00    +0.000 A 
BRANCH  15  22
ATOM     21  C   UNL     1      -2.017  12.243  22.055  0.00  0.00    +0.000 C 
ATOM     22  O   UNL     1      -1.488  12.775  20.842  0.00  0.00    +0.000 OA
ENDBRANCH  15  22
BRANCH  20  23
ATOM     23  O   UNL     1       1.418  12.313  21.125  0.00  0.00    +0.000 OA
ATOM     24  C   UNL     1       2.196  13.416  20.702  0.00  0.00    +0.000 C 
ENDBRANCH  20  23
ENDBRANCH  13  18
ENDBRANCH   1  14
BRANCH   4  25
ATOM     25  C   UNL     1       1.343   3.419  18.154  0.00  0.00    +0.000 C 
BRANCH  25  26
ATOM     26  C   UNL     1       1.089   2.626  19.424  0.00  0.00    +0.000 C 
BRANCH  26  27
ATOM     27  C   UNL     1       0.881   3.632  20.559  0.00  0.00    +0.000 C 
BRANCH  27  28
ATOM     28  C   UNL     1       2.164   3.939  21.296  0.00  0.00    +0.000 C 
BRANCH  28  29
ATOM     29  N   UNL     1       2.488   5.346  21.099  0.00  0.00    +0.000 NA
ATOM     30  H   UNL     1       3.284   5.603  21.681  0.00  0.00    +0.000 HD
ATOM     31  H   UNL     1       1.707   5.924  21.409  0.00  0.00    +0.000 HD
ENDBRANCH  28  29
ENDBRANCH  27  28
ENDBRANCH  26  27
ENDBRANCH  25  26
ENDBRANCH   4  25
TORSDOF 9
ENDMDL
MODEL 3
REMARK VINA RESULT:      -7.7      1.563      2.515
REMARK  Name = 
REMARK  11 active torsions:
REMARK  status: ('A' for Active; 'I' for Inactive)
REMARK    1  A    between atoms: C_1  and  O_2
REMARK    2  A    between atoms: O_2  and  C_3
REMARK    3  A    between atoms: C_6  and  C_7
REMARK    4  A    between atoms: C_8  and  C_9
REMARK    5  A    between atoms: N_12  and  C_13
REMARK    6  A    between atoms: C_13  and  C_14
REMARK    7  A    between atoms: C_14  and  C_15
REMARK    8  A    between atoms: C_15  and  C_16
REMARK    9  A    between atoms: C_16  and  N_17
REMARK   10  A    between atoms: C_26  and  O_27
REMARK   11  A    between atoms: O_27  and  C_28
REMARK                            x       y       z     vdW  Elec       q    Type
REMARK                         _______ _______ _______ _____ _____    ______ ____
ROOT
ATOM      1  C   UNL     1       2.590   7.269  19.080  0.00  0.00    +0.000 A 
ATOM      2  N   UNL     1       2.618   6.131  19.774  0.00  0.00    +0.000 NA
ATOM      3  C   UNL     1       3.331   5.108  19.288  0.00  0.00    +0.000 A 
ATOM      4  N   UNL     1       3.503   3.965  20.117  0.00  0.00    +0.000 N 
ATOM      5  C   UNL     1       4.003   5.187  18.075  0.00  0.00    +0.000 A 
ATOM      6  C   UNL     1       4.651   4.078  17.473  0.00  0.00    +0.000 A 
ATOM      7  C   UNL     1       5.372   4.230  16.299  0.00  0.00    +0.000 A 
ATOM      8  C   UNL     1       5.478   5.498  15.743  0.00  0.00    +0.000 A 
ATOM      9  C   UNL     1       4.788   6.581  16.316  0.00  0.00    +0.000 A 
ATOM     10  C   UNL     1       3.997   6.446  17.462  0.00  0.00    +0.000 A 
ATOM     11  N   UNL     1       3.283   7.491  17.950  0.00  0.00    +0.000 NA
ATOM     12  H   UNL     1       4.457   4.017  20.470  0.00  0.00    +0.000 HD
ENDROOT
BRANCH   1  14
ATOM     13  C   UNL     1       1.329   8.330  20.995  0.00  0.00    +0.000 C 
ATOM     14  C   UNL     1       1.811   8.323  19.743  0.00  0.00    +0.000 C 
BRANCH  13  18
ATOM     15  C   UNL     1      -0.866  11.669  22.634  0.00  0.00    +0.000 A 
ATOM     16  C   UNL     1      -1.052  10.384  23.174  0.00  0.00    +0.000 A 
ATOM     17  C   UNL     1      -0.380   9.268  22.646  0.00  0.00    +0.000 A 
ATOM     18  C   UNL     1       0.490   9.409  21.559  0.00  0.00    +0.000 A 
ATOM     19  C   UNL     1       0.576  10.672  20.966  0.00  0.00    +0.000 A 
ATOM     20  C   UNL     1      -0.078  11.803  21.484  0.00  0.00    +0.000 A 
BRANCH  15  22
ATOM     21  C   UNL     1      -2.854  12.647  23.476  0.00  0.00    +0.000 C 
ATOM     22  O   UNL     1      -1.465  12.773  23.182  0.00  0.00    +0.000 OA
ENDBRANCH  15  22
BRANCH  20  23
ATOM     23  O   UNL     1       0.193  12.919  20.738  0.00  0.00    +0.000 OA
ATOM     24  C   UNL     1       1.385  12.981  19.979  0.00  0.00    +0.000 C 
ENDBRANCH  20  23
ENDBRANCH  13  18
ENDBRANCH   1  14
BRANCH   4  25
ATOM     25  C   UNL     1       2.510   3.931  21.183  0.00  0.00    +0.000 C 
BRANCH  25  26
ATOM     26  C   UNL     1       1.554   2.765  20.999  0.00  0.00    +0.000 C 
BRANCH  26  27
ATOM     27  C   UNL     1       0.624   3.115  19.835  0.00  0.00    +0.000 C 
BRANCH  27  28
ATOM     28  C   UNL     1       0.682   2.091  18.725  0.00  0.00    +0.000 C 
BRANCH  28  29
ATOM     29  N   UNL     1       2.076   1.737  18.491  0.00  0.00    +0.000 NA
ATOM     30  H   UNL     1       2.458   2.310  17.740  0.00  0.00    +0.000 HD
ATOM     31  H   UNL     1       2.134   0.770  18.173  0.00  0.00    +0.000 HD
ENDBRANCH  28  29
ENDBRANCH  27  28
ENDBRANCH  26  27
ENDBRANCH  25  26
ENDBRANCH   4  25
TORSDOF 9
ENDMDL
MODEL 4
REMARK VINA RESULT:      -7.7      1.235      1.901
REMARK  Name = 
REMARK  11 active torsions:
REMARK  status: ('A' for Active; 'I' for Inactive)
REMARK    1  A    between atoms: C_1  and  O_2
REMARK    2  A    between atoms: O_2  and  C_3
REMARK    3  A    between atoms: C_6  and  C_7
REMARK    4  A    between atoms: C_8  and  C_9
REMARK    5  A    between atoms: N_12  and  C_13
REMARK    6  A    between atoms: C_13  and  C_14
REMARK    7  A    between atoms: C_14  and  C_15
REMARK    8  A    between atoms: C_15  and  C_16
REMARK    9  A    between atoms: C_16  and  N_17
REMARK   10  A    between atoms: C_26  and  O_27
REMARK   11  A    between atoms: O_27  and  C_28
REMARK                            x       y       z     vdW  Elec       q    Type
REMARK                         _______ _______ _______ _____ _____    ______ ____
ROOT
ATOM      1  C   UNL     1       2.948   6.901  17.888  0.00  0.00    +0.000 A 
ATOM      2  N   UNL     1       2.478   5.659  18.013  0.00  0.00    +0.000 NA
ATOM      3  C   UNL     1       3.230   4.648  17.563  0.00  0.00    +0.000 A 
ATOM      4  N   UNL     1       2.807   3.323  17.860  0.00  0.00    +0.000 N 
ATOM      5  C   UNL     1       4.455   4.857  16.942  0.00  0.00    +0.000 A 
ATOM      6  C   UNL     1       5.205   3.817  16.337  0.00  0.00    +0.000 A 
ATOM      7  C   UNL     1       6.458   4.069  15.798  0.00  0.00    +0.000 A 
ATOM      8  C   UNL     1       6.978   5.353  15.896  0.00  0.00    +0.000 A 
ATOM      9  C   UNL     1       6.205   6.389  16.449  0.00  0.00    +0.000 A 
ATOM     10  C   UNL     1       4.911   6.181  16.939  0.00  0.00    +0.000 A 
ATOM     11  N   UNL     1       4.160   7.212  17.399  0.00  0.00    +0.000 NA
ATOM     12  H   UNL     1       3.419   2.995  18.606  0.00  0.00    +0.000 HD
ENDROOT
BRANCH   1  14
ATOM     13  C   UNL     1       1.510   8.979  17.850  0.00  0.00    +0.000 C 
ATOM     14  C   UNL     1       2.049   7.911  18.460  0.00  0.00    +0.000 C 
BRANCH  13  18
ATOM     15  C   UNL     1      -1.047  12.024  19.534  0.00  0.00    +0.000 A 
ATOM     16  C   UNL     1       0.245  11.835  20.056  0.00  0.00    +0.000 A 
ATOM     17  C   UNL     1       1.094  10.833  19.556  0.00  0.00    +0.000 A 
ATOM     18  C   UNL     1       0.669   9.989  18.525  0.00  0.00    +0.000 A 
ATOM     19  C   UNL     1      -0.656  10.118  18.095  0.00  0.00    +0.000 A 
ATOM     20  C   UNL     1      -1.518  11.120  18.573  0.00  0.00    +0.000 A 
BRANCH  15  22
ATOM     21  C   UNL     1      -2.343  12.921  21.304  0.00  0.00    +0.000 C 
ATOM     22  O   UNL     1      -1.858  13.039  19.968  0.00  0.00    +0.000 OA
ENDBRANCH  15  22
BRANCH  20  23
ATOM     23  O   UNL     1      -2.746  11.047  17.972  0.00  0.00    +0.000 OA
ATOM     24  C   UNL     1      -3.196   9.814  17.446  0.00  0.00    +0.000 C 
ENDBRANCH  20  23
ENDBRANCH  13  18
ENDBRANCH   1  14
BRANCH   4  25
ATOM     25  C   UNL     1       1.398   3.287  18.232  0.00  0.00    +0.000 C 
BRANCH  25  26
ATOM     26  C   UNL     1       1.195   2.512  19.522  0.00  0.00    +0.000 C 
BRANCH  26  27
ATOM     27  C   UNL     1       0.915   3.531  20.629  0.00  0.00    +0.000 C 
BRANCH  27  28
ATOM     28  C   UNL     1       2.169   3.936  21.369  0.00  0.00    +0.000 C 
BRANCH  28  29
ATOM     29  N   UNL     1       2.444   5.339  21.086  0.00  0.00    +0.000 NA
ATOM     30  H   UNL     1       2.729   5.815  21.940  0.00  0.00    +0.000 HD
ATOM     31  H   UNL     1       1.589   5.798  20.772  0.00  0.00    +0.000 HD
ENDBRANCH  28  29
ENDBRANCH  27  28
ENDBRANCH  26  27
ENDBRANCH  25  26
ENDBRANCH   4  25
TORSDOF 9
ENDMDL
MODEL 5
REMARK VINA RESULT:      -7.7      1.132      1.919
REMARK  Name = 
REMARK  11 active torsions:
REMARK  status: ('A' for Active; 'I' for Inactive)
REMARK    1  A    between atoms: C_1  and  O_2
REMARK    2  A    between atoms: O_2  and  C_3
REMARK    3  A    between atoms: C_6  and  C_7
REMARK    4  A    between atoms: C_8  and  C_9
REMARK    5  A    between atoms: N_12  and  C_13
REMARK    6  A    between atoms: C_13  and  C_14
REMARK    7  A    between atoms: C_14  and  C_15
REMARK    8  A    between atoms: C_15  and  C_16
REMARK    9  A    between atoms: C_16  and  N_17
REMARK   10  A    between atoms: C_26  and  O_27
REMARK   11  A    between atoms: O_27  and  C_28
REMARK                            x       y       z     vdW  Elec       q    Type
REMARK                         _______ _______ _______ _____ _____    ______ ____
ROOT
ATOM      1  C   UNL     1       2.926   6.959  18.240  0.00  0.00    +0.000 A 
ATOM      2  N   UNL     1       2.359   5.752  18.243  0.00  0.00    +0.000 NA
ATOM      3  C   UNL     1       3.006   4.745  17.645  0.00  0.00    +0.000 A 
ATOM      4  N   UNL     1       2.485   3.432  17.808  0.00  0.00    +0.000 N 
ATOM      5  C   UNL     1       4.220   4.930  16.996  0.00  0.00    +0.000 A 
ATOM      6  C   UNL     1       4.858   3.913  16.241  0.00  0.00    +0.000 A 
ATOM      7  C   UNL     1       6.107   4.127  15.676  0.00  0.00    +0.000 A 
ATOM      8  C   UNL     1       6.735   5.345  15.896  0.00  0.00    +0.000 A 
ATOM      9  C   UNL     1       6.073   6.366  16.600  0.00  0.00    +0.000 A 
ATOM     10  C   UNL     1       4.785   6.204  17.123  0.00  0.00    +0.000 A 
ATOM     11  N   UNL     1       4.140   7.230  17.733  0.00  0.00    +0.000 NA
ATOM     12  H   UNL     1       3.096   2.971  18.482  0.00  0.00    +0.000 HD
ENDROOT
BRANCH   1  14
ATOM     13  C   UNL     1       1.811   7.974  20.268  0.00  0.00    +0.000 C 
ATOM     14  C   UNL     1       2.137   7.963  18.966  0.00  0.00    +0.000 C 
BRANCH  13  18
ATOM     15  C   UNL     1      -0.491  11.166  22.047  0.00  0.00    +0.000 A 
ATOM     16  C   UNL     1      -0.385   9.932  22.712  0.00  0.00    +0.000 A 
ATOM     17  C   UNL     1       0.328   8.860  22.149  0.00  0.00    +0.000 A 
ATOM     18  C   UNL     1       0.948   8.992  20.903  0.00  0.00    +0.000 A 
ATOM     19  C   UNL     1       0.739  10.187  20.206  0.00  0.00    +0.000 A 
ATOM     20  C   UNL     1       0.039  11.276  20.755  0.00  0.00    +0.000 A 
BRANCH  15  22
ATOM     21  C   UNL     1      -2.439  11.991  23.115  0.00  0.00    +0.000 C 
ATOM     22  O   UNL     1      -1.127  12.238  22.615  0.00  0.00    +0.000 OA
ENDBRANCH  15  22
BRANCH  20  23
ATOM     23  O   UNL     1       0.003  12.332  19.884  0.00  0.00    +0.000 OA
ATOM     24  C   UNL     1      -1.093  12.475  19.001  0.00  0.00    +0.000 C 
ENDBRANCH  20  23
ENDBRANCH  13  18
ENDBRANCH   1  14
BRANCH   4  25
ATOM     25  C   UNL     1       1.094   3.464  18.239  0.00  0.00    +0.000 C 
BRANCH  25  26
ATOM     26  C   UNL     1       0.882   2.584  19.460  0.00  0.00    +0.000 C 
BRANCH  26  27
ATOM     27  C   UNL     1       1.206   3.428  20.694  0.00  0.00    +0.000 C 
BRANCH  27  28
ATOM     28  C   UNL     1       2.298   2.814  21.540  0.00  0.00    +0.000 C 
BRANCH  28  29
ATOM     29  N   UNL     1       3.460   2.570  20.695  0.00  0.00    +0.000 NA
ATOM     30  H   UNL     1       4.285   2.422  21.274  0.00  0.00    +0.000 HD
ATOM     31  H   UNL     1       3.650   3.396  20.128  0.00  0.00    +0.000 HD
ENDBRANCH  28  29
ENDBRANCH  27  28
ENDBRANCH  26  27
ENDBRANCH  25  26
ENDBRANCH   4  25
TORSDOF 9
ENDMDL
MODEL 6
REMARK VINA RESULT:      -7.5      1.126      1.774
REMARK  Name = 
REMARK  11 active torsions:
REMARK  status: ('A' for Active; 'I' for Inactive)
REMARK    1  A    between atoms: C_1  and  O_2
REMARK    2  A    between atoms: O_2  and  C_3
REMARK    3  A    between atoms: C_6  and  C_7
REMARK    4  A    between atoms: C_8  and  C_9
REMARK    5  A    between atoms: N_12  and  C_13
REMARK    6  A    between atoms: C_13  and  C_14
REMARK    7  A    between atoms: C_14  and  C_15
REMARK    8  A    between atoms: C_15  and  C_16
REMARK    9  A    between atoms: C_16  and  N_17
REMARK   10  A    between atoms: C_26  and  O_27
REMARK   11  A    between atoms: O_27  and  C_28
REMARK                            x       y       z     vdW  Elec       q    Type
REMARK                         _______ _______ _______ _____ _____    ______ ____
ROOT
ATOM      1  C   UNL     1       3.147   6.614  18.120  0.00  0.00    +0.000 A 
ATOM      2  N   UNL     1       2.641   5.382  18.160  0.00  0.00    +0.000 NA
ATOM      3  C   UNL     1       3.295   4.406  17.521  0.00  0.00    +0.000 A 
ATOM      4  N   UNL     1       2.850   3.069  17.717  0.00  0.00    +0.000 N 
ATOM      5  C   UNL     1       4.453   4.646  16.793  0.00  0.00    +0.000 A 
ATOM      6  C   UNL     1       5.089   3.659  15.997  0.00  0.00    +0.000 A 
ATOM      7  C   UNL     1       6.286   3.932  15.353  0.00  0.00    +0.000 A 
ATOM      8  C   UNL     1       6.868   5.179  15.531  0.00  0.00    +0.000 A 
ATOM      9  C   UNL     1       6.204   6.169  16.278  0.00  0.00    +0.000 A 
ATOM     10  C   UNL     1       4.963   5.947  16.884  0.00  0.00    +0.000 A 
ATOM     11  N   UNL     1       4.311   6.942  17.535  0.00  0.00    +0.000 NA
ATOM     12  H   UNL     1       3.524   2.640  18.349  0.00  0.00    +0.000 HD
ENDROOT
BRANCH   1  14
ATOM     13  C   UNL     1       1.838   8.745  18.481  0.00  0.00    +0.000 C 
ATOM     14  C   UNL     1       2.359   7.581  18.897  0.00  0.00    +0.000 C 
BRANCH  13  18
ATOM     15  C   UNL     1      -0.015  11.706  21.022  0.00  0.00    +0.000 A 
ATOM     16  C   UNL     1      -0.158  10.341  21.328  0.00  0.00    +0.000 A 
ATOM     17  C   UNL     1       0.403   9.348  20.507  0.00  0.00    +0.000 A 
ATOM     18  C   UNL     1       1.115   9.695  19.354  0.00  0.00    +0.000 A 
ATOM     19  C   UNL     1       1.153  11.049  19.006  0.00  0.00    +0.000 A 
ATOM     20  C   UNL     1       0.608  12.059  19.818  0.00  0.00    +0.000 A 
BRANCH  15  22
ATOM     21  C   UNL     1      -1.289  12.235  22.950  0.00  0.00    +0.000 C 
ATOM     22  O   UNL     1      -0.500  12.684  21.849  0.00  0.00    +0.000 OA
ENDBRANCH  15  22
BRANCH  20  23
ATOM     23  O   UNL     1       0.804  13.297  19.267  0.00  0.00    +0.000 OA
ATOM     24  C   UNL     1      -0.231  13.900  18.514  0.00  0.00    +0.000 C 
ENDBRANCH  20  23
ENDBRANCH  13  18
ENDBRANCH   1  14
BRANCH   4  25
ATOM     25  C   UNL     1       1.489   3.035  18.238  0.00  0.00    +0.000 C 
BRANCH  25  26
ATOM     26  C   UNL     1       1.413   2.201  19.506  0.00  0.00    +0.000 C 
BRANCH  26  27
ATOM     27  C   UNL     1       0.989   3.134  20.642  0.00  0.00    +0.000 C 
BRANCH  27  28
ATOM     28  C   UNL     1       2.151   3.533  21.522  0.00  0.00    +0.000 C 
BRANCH  28  29
ATOM     29  N   UNL     1       2.470   4.931  21.266  0.00  0.00    +0.000 NA
ATOM     30  H   UNL     1       1.683   5.521  21.531  0.00  0.00    +0.000 HD
ATOM     31  H   UNL     1       2.612   5.072  20.266  0.00  0.00    +0.000 HD
ENDBRANCH  28  29
ENDBRANCH  27  28
ENDBRANCH  26  27
ENDBRANCH  25  26
ENDBRANCH   4  25
TORSDOF 9
ENDMDL
MODEL 7
REMARK VINA RESULT:      -7.4      1.408      2.043
REMARK  Name = 
REMARK  11 active torsions:
REMARK  status: ('A' for Active; 'I' for Inactive)
REMARK    1  A    between atoms: C_1  and  O_2
REMARK    2  A    between atoms: O_2  and  C_3
REMARK    3  A    between atoms: C_6  and  C_7
REMARK    4  A    between atoms: C_8  and  C_9
REMARK    5  A    between atoms: N_12  and  C_13
REMARK    6  A    between atoms: C_13  and  C_14
REMARK    7  A    between atoms: C_14  and  C_15
REMARK    8  A    between atoms: C_15  and  C_16
REMARK    9  A    between atoms: C_16  and  N_17
REMARK   10  A    between atoms: C_26  and  O_27
REMARK   11  A    between atoms: O_27  and  C_28
REMARK                            x       y       z     vdW  Elec       q    Type
REMARK                         _______ _______ _______ _____ _____    ______ ____
ROOT
ATOM      1  C   UNL     1       3.559   6.096  18.079  0.00  0.00    +0.000 A 
ATOM      2  N   UNL     1       3.518   4.813  18.439  0.00  0.00    +0.000 NA
ATOM      3  C   UNL     1       4.211   3.928  17.713  0.00  0.00    +0.000 A 
ATOM      4  N   UNL     1       4.309   2.596  18.205  0.00  0.00    +0.000 N 
ATOM      5  C   UNL     1       4.933   4.300  16.586  0.00  0.00    +0.000 A 
ATOM      6  C   UNL     1       5.564   3.366  15.725  0.00  0.00    +0.000 A 
ATOM      7  C   UNL     1       6.336   3.797  14.657  0.00  0.00    +0.000 A 
ATOM      8  C   UNL     1       6.510   5.162  14.470  0.00  0.00    +0.000 A 
ATOM      9  C   UNL     1       5.838   6.080  15.296  0.00  0.00    +0.000 A 
ATOM     10  C   UNL     1       4.997   5.677  16.339  0.00  0.00    +0.000 A 
ATOM     11  N   UNL     1       4.303   6.583  17.072  0.00  0.00    +0.000 NA
ATOM     12  H   UNL     1       5.250   2.508  18.586  0.00  0.00    +0.000 HD
ENDROOT
BRANCH   1  14
ATOM     13  C   UNL     1       2.079   8.057  18.668  0.00  0.00    +0.000 C 
ATOM     14  C   UNL     1       2.793   6.966  18.982  0.00  0.00    +0.000 C 
BRANCH  13  18
ATOM     15  C   UNL     1       0.277  10.810  21.465  0.00  0.00    +0.000 A 
ATOM     16  C   UNL     1       0.537   9.488  21.863  0.00  0.00    +0.000 A 
ATOM     17  C   UNL     1       1.093   8.554  20.971  0.00  0.00    +0.000 A 
ATOM     18  C   UNL     1       1.395   8.919  19.655  0.00  0.00    +0.000 A 
ATOM     19  C   UNL     1       1.027  10.205  19.245  0.00  0.00    +0.000 A 
ATOM     20  C   UNL     1       0.481  11.157  20.123  0.00  0.00    +0.000 A 
BRANCH  15  22
ATOM     21  C   UNL     1      -1.398  11.394  23.038  0.00  0.00    +0.000 C 
ATOM     22  O   UNL     1      -0.203  11.745  22.344  0.00  0.00    +0.000 OA
ENDBRANCH  15  22
BRANCH  20  23
ATOM     23  O   UNL     1       0.238  12.342  19.481  0.00  0.00    +0.000 OA
ATOM     24  C   UNL     1       1.246  13.333  19.434  0.00  0.00    +0.000 C 
ENDBRANCH  20  23
ENDBRANCH  13  18
ENDBRANCH   1  14
BRANCH   4  25
ATOM     25  C   UNL     1       3.274   2.321  19.194  0.00  0.00    +0.000 C 
BRANCH  25  26
ATOM     26  C   UNL     1       1.996   1.846  18.525  0.00  0.00    +0.000 C 
BRANCH  26  27
ATOM     27  C   UNL     1       0.829   2.571  19.200  0.00  0.00    +0.000 C 
BRANCH  27  28
ATOM     28  C   UNL     1       1.183   3.064  20.584  0.00  0.00    +0.000 C 
BRANCH  28  29
ATOM     29  N   UNL     1       1.051   4.515  20.610  0.00  0.00    +0.000 NA
ATOM     30  H   UNL     1       0.970   4.838  21.572  0.00  0.00    +0.000 HD
ATOM     31  H   UNL     1       0.188   4.788  20.140  0.00  0.00    +0.000 HD
ENDBRANCH  28  29
ENDBRANCH  27  28
ENDBRANCH  26  27
ENDBRANCH  25  26
ENDBRANCH   4  25
TORSDOF 9
ENDMDL
MODEL 8
REMARK VINA RESULT:      -7.3      1.488      1.858
REMARK  Name = 
REMARK  11 active torsions:
REMARK  status: ('A' for Active; 'I' for Inactive)
REMARK    1  A    between atoms: C_1  and  O_2
REMARK    2  A    between atoms: O_2  and  C_3
REMARK    3  A    between atoms: C_6  and  C_7
REMARK    4  A    between atoms: C_8  and  C_9
REMARK    5  A    between atoms: N_12  and  C_13
REMARK    6  A    between atoms: C_13  and  C_14
REMARK    7  A    between atoms: C_14  and  C_15
REMARK    8  A    between atoms: C_15  and  C_16
REMARK    9  A    between atoms: C_16  and  N_17
REMARK   10  A    between atoms: C_26  and  O_27
REMARK   11  A    between atoms: O_27  and  C_28
REMARK                            x       y       z     vdW  Elec       q    Type
REMARK                         _______ _______ _______ _____ _____    ______ ____
ROOT
ATOM      1  C   UNL     1       3.006   7.004  18.005  0.00  0.00    +0.000 A 
ATOM      2  N   UNL     1       2.452   5.797  18.124  0.00  0.00    +0.000 NA
ATOM      3  C   UNL     1       3.118   4.742  17.640  0.00  0.00    +0.000 A 
ATOM      4  N   UNL     1       2.608   3.446  17.929  0.00  0.00    +0.000 N 
ATOM      5  C   UNL     1       4.339   4.874  16.991  0.00  0.00    +0.000 A 
ATOM      6  C   UNL     1       4.998   3.793  16.353  0.00  0.00    +0.000 A 
ATOM      7  C   UNL     1       6.253   3.963  15.786  0.00  0.00    +0.000 A 
ATOM      8  C   UNL     1       6.866   5.204  15.889  0.00  0.00    +0.000 A 
ATOM      9  C   UNL     1       6.182   6.284  16.477  0.00  0.00    +0.000 A 
ATOM     10  C   UNL     1       4.889   6.161  16.996  0.00  0.00    +0.000 A 
ATOM     11  N   UNL     1       4.225   7.236  17.489  0.00  0.00    +0.000 NA
ATOM     12  H   UNL     1       3.213   3.063  18.655  0.00  0.00    +0.000 HD
ENDROOT
BRANCH   1  14
ATOM     13  C   UNL     1       1.801   9.224  18.061  0.00  0.00    +0.000 C 
ATOM     14  C   UNL     1       2.196   8.067  18.614  0.00  0.00    +0.000 C 
BRANCH  13  18
ATOM     15  C   UNL     1      -0.133  12.404  20.251  0.00  0.00    +0.000 A 
ATOM     16  C   UNL     1      -0.675  11.108  20.287  0.00  0.00    +0.000 A 
ATOM     17  C   UNL     1      -0.092  10.054  19.562  0.00  0.00    +0.000 A 
ATOM     18  C   UNL     1       1.044  10.274  18.775  0.00  0.00    +0.000 A 
ATOM     19  C   UNL     1       1.502  11.591  18.663  0.00  0.00    +0.000 A 
ATOM     20  C   UNL     1       0.941  12.656  19.388  0.00  0.00    +0.000 A 
BRANCH  15  22
ATOM     21  C   UNL     1      -1.849  14.020  20.507  0.00  0.00    +0.000 C 
ATOM     22  O   UNL     1      -0.653  13.423  21.005  0.00  0.00    +0.000 OA
ENDBRANCH  15  22
BRANCH  20  23
ATOM     23  O   UNL     1       1.590  13.833  19.122  0.00  0.00    +0.000 OA
ATOM     24  C   UNL     1       2.970  13.818  18.815  0.00  0.00    +0.000 C 
ENDBRANCH  20  23
ENDBRANCH  13  18
ENDBRANCH   1  14
BRANCH   4  25
ATOM     25  C   UNL     1       1.210   3.505  18.336  0.00  0.00    +0.000 C 
BRANCH  25  26
ATOM     26  C   UNL     1       0.961   2.632  19.554  0.00  0.00    +0.000 C 
BRANCH  26  27
ATOM     27  C   UNL     1       2.224   2.676  20.416  0.00  0.00    +0.000 C 
BRANCH  27  28
ATOM     28  C   UNL     1       2.095   3.635  21.577  0.00  0.00    +0.000 C 
BRANCH  28  29
ATOM     29  N   UNL     1       2.466   4.969  21.122  0.00  0.00    +0.000 NA
ATOM     30  H   UNL     1       1.797   5.653  21.472  0.00  0.00    +0.000 HD
ATOM     31  H   UNL     1       2.414   5.010  20.104  0.00  0.00    +0.000 HD
ENDBRANCH  28  29
ENDBRANCH  27  28
ENDBRANCH  26  27
ENDBRANCH  25  26
ENDBRANCH   4  25
TORSDOF 9
ENDMDL
MODEL 9
REMARK VINA RESULT:      -7.3      1.153      1.753
REMARK  Name = 
REMARK  11 active torsions:
REMARK  status: ('A' for Active; 'I' for Inactive)
REMARK    1  A    between atoms: C_1  and  O_2
REMARK    2  A    between atoms: O_2  and  C_3
REMARK    3  A    between atoms: C_6  and  C_7
REMARK    4  A    between atoms: C_8  and  C_9
REMARK    5  A    between atoms: N_12  and  C_13
REMARK    6  A    between atoms: C_13  and  C_14
REMARK    7  A    between atoms: C_14  and  C_15
REMARK    8  A    between atoms: C_15  and  C_16
REMARK    9  A    between atoms: C_16  and  N_17
REMARK   10  A    between atoms: C_26  and  O_27
REMARK   11  A    between atoms: O_27  and  C_28
REMARK                            x       y       z     vdW  Elec       q    Type
REMARK                         _______ _______ _______ _____ _____    ______ ____
ROOT
ATOM      1  C   UNL     1       2.576   7.479  18.748  0.00  0.00    +0.000 A 
ATOM      2  N   UNL     1       2.563   6.394  19.521  0.00  0.00    +0.000 NA
ATOM      3  C   UNL     1       3.305   5.343  19.155  0.00  0.00    +0.000 A 
ATOM      4  N   UNL     1       3.427   4.263  20.072  0.00  0.00    +0.000 N 
ATOM      5  C   UNL     1       4.052   5.339  17.983  0.00  0.00    +0.000 A 
ATOM      6  C   UNL     1       4.737   4.193  17.504  0.00  0.00    +0.000 A 
ATOM      7  C   UNL     1       5.530   4.266  16.369  0.00  0.00    +0.000 A 
ATOM      8  C   UNL     1       5.669   5.491  15.732  0.00  0.00    +0.000 A 
ATOM      9  C   UNL     1       4.943   6.609  16.182  0.00  0.00    +0.000 A 
ATOM     10  C   UNL     1       4.082   6.551  17.283  0.00  0.00    +0.000 A 
ATOM     11  N   UNL     1       3.338   7.624  17.650  0.00  0.00    +0.000 NA
ATOM     12  H   UNL     1       4.357   4.345  20.479  0.00  0.00    +0.000 HD
ENDROOT
BRANCH   1  14
ATOM     13  C   UNL     1       1.301   9.658  18.638  0.00  0.00    +0.000 C 
ATOM     14  C   UNL     1       1.757   8.573  19.284  0.00  0.00    +0.000 C 
BRANCH  13  18
ATOM     15  C   UNL     1      -1.071  12.630  20.685  0.00  0.00    +0.000 A 
ATOM     16  C   UNL     1      -0.889  12.724  19.294  0.00  0.00    +0.000 A 
ATOM     17  C   UNL     1      -0.098  11.795  18.598  0.00  0.00    +0.000 A 
ATOM     18  C   UNL     1       0.538  10.751  19.278  0.00  0.00    +0.000 A 
ATOM     19  C   UNL     1       0.438  10.737  20.673  0.00  0.00    +0.000 A 
ATOM     20  C   UNL     1      -0.358  11.651  21.387  0.00  0.00    +0.000 A 
BRANCH  15  22
ATOM     21  C   UNL     1      -2.080  14.773  20.769  0.00  0.00    +0.000 C 
ATOM     22  O   UNL     1      -1.893  13.491  21.364  0.00  0.00    +0.000 OA
ENDBRANCH  15  22
BRANCH  20  23
ATOM     23  O   UNL     1      -0.308  11.404  22.733  0.00  0.00    +0.000 OA
ATOM     24  C   UNL     1      -0.724  10.147  23.231  0.00  0.00    +0.000 C 
ENDBRANCH  20  23
ENDBRANCH  13  18
ENDBRANCH   1  14
BRANCH   4  25
ATOM     25  C   UNL     1       2.370   4.299  21.075  0.00  0.00    +0.000 C 
BRANCH  25  26
ATOM     26  C   UNL     1       1.481   3.071  20.973  0.00  0.00    +0.000 C 
BRANCH  26  27
ATOM     27  C   UNL     1       0.643   3.216  19.700  0.00  0.00    +0.000 C 
BRANCH  27  28
ATOM     28  C   UNL     1       0.733   1.997  18.811  0.00  0.00    +0.000 C 
BRANCH  28  29
ATOM     29  N   UNL     1       2.074   1.930  18.246  0.00  0.00    +0.000 NA
ATOM     30  H   UNL     1       2.341   0.958  18.100  0.00  0.00    +0.000 HD
ATOM     31  H   UNL     1       2.745   2.316  18.911  0.00  0.00    +0.000 HD
ENDBRANCH  28  29
ENDBRANCH  27  28
ENDBRANCH  26  27
ENDBRANCH  25  26
ENDBRANCH   4  25
TORSDOF 9
ENDMDL
