MODEL 1
REMARK VINA RESULT:      -7.9      0.000      0.000
REMARK  Name = 
REMARK  4 active torsions:
REMARK  status: ('A' for Active; 'I' for Inactive)
REMARK    1  A    between atoms: C_1  and  O_2
REMARK    2  A    between atoms: O_2  and  C_3
REMARK    3  A    between atoms: C_7  and  C_8
REMARK    4  A    between atoms: N_13  and  N_14
REMARK                            x       y       z     vdW  Elec       q    Type
REMARK                         _______ _______ _______ _____ _____    ______ ____
ROOT
ATOM      1  C   UNL     1       2.776   5.146  20.662  0.00  0.00    +0.000 C 
ATOM      2  C   UNL     1       1.764   4.061  21.098  0.00  0.00    +0.000 C 
ATOM      3 CL   UNL     1       0.318   3.631  20.132  0.00  0.00    +0.000 Cl
ATOM      4  C   UNL     1       3.006   3.112  20.939  0.00  0.00    +0.000 C 
ATOM      5  O   UNL     1       3.361   2.043  21.375  0.00  0.00    +0.000 OA
ATOM      6  N   UNL     1       3.589   4.031  20.100  0.00  0.00    +0.000 N 
ENDROOT
BRANCH   6   7
ATOM      7  N   UNL     1       4.917   4.291  19.988  0.00  0.00    +0.000 NA
ATOM      8  C   UNL     1       5.315   4.091  18.770  0.00  0.00    +0.000 C 
ATOM      9  C   UNL     1       4.736   3.137  17.709  0.00  0.00    +0.000 C 
ATOM     10  O   UNL     1       3.841   2.337  17.857  0.00  0.00    +0.000 OA
ATOM     11  N   UNL     1       5.427   3.418  16.553  0.00  0.00    +0.000 N 
ATOM     12  C   UNL     1       6.234   4.531  16.721  0.00  0.00    +0.000 A 
ATOM     13  C   UNL     1       6.802   5.284  15.711  0.00  0.00    +0.000 A 
ATOM     14  C   UNL     1       7.383   6.502  16.080  0.00  0.00    +0.000 A 
ATOM     15  C   UNL     1       7.416   6.915  17.430  0.00  0.00    +0.000 A 
ATOM     16 CL   UNL     1       8.082   8.457  17.816  0.00  0.00    +0.000 Cl
ATOM     17  C   UNL     1       6.864   6.132  18.445  0.00  0.00    +0.000 A 
ATOM     18  C   UNL     1       6.272   4.943  18.059  0.00  0.00    +0.000 A 
ATOM     19  H   UNL     1       5.217   2.964  15.676  0.00  0.00    +0.000 HD
ENDBRANCH   6   7
BRANCH   1  24
ATOM     20  C   UNL     1       1.717   8.620  19.231  0.00  0.00    +0.000 A 
ATOM     21  C   UNL     1       2.155   8.547  17.914  0.00  0.00    +0.000 A 
ATOM     22  C   UNL     1       2.827   7.416  17.458  0.00  0.00    +0.000 A 
ATOM     23  C   UNL     1       3.033   6.334  18.314  0.00  0.00    +0.000 A 
ATOM     24  C   UNL     1       2.551   6.330  19.634  0.00  0.00    +0.000 A 
ATOM     25  C   UNL     1       1.926   7.525  20.073  0.00  0.00    +0.000 A 
BRANCH  20  27
ATOM     26  C   UNL     1       0.115  10.293  18.685  0.00  0.00    +0.000 C 
ATOM     27  O   UNL     1       1.106   9.793  19.576  0.00  0.00    +0.000 OA
ENDBRANCH  20  27
ENDBRANCH   1  24
TORSDOF 3
ENDMDL
MODEL 2
REMARK VINA RESULT:      -6.7      7.841     12.407
REMARK  Name = 
REMARK  4 active torsions:
REMARK  status: ('A' for Active; 'I' for Inactive)
REMARK    1  A    between atoms: C_1  and  O_2
REMARK    2  A    between atoms: O_2  and  C_3
REMARK    3  A    between atoms: C_7  and  C_8
REMARK    4  A    between atoms: N_13  and  N_14
REMARK                            x       y       z     vdW  Elec       q    Type
REMARK                         _______ _______ _______ _____ _____    ______ ____
ROOT
ATOM      1  C   UNL     1      -3.013  12.321  18.948  0.00  0.00    +0.000 C 
ATOM      2  C   UNL     1      -2.723  11.366  17.767  0.00  0.00    +0.000 C 
ATOM      3 CL   UNL     1      -2.209   9.665  17.990  0.00  0.00    +0.000 Cl
ATOM      4  C   UNL     1      -4.247  11.592  17.461  0.00  0.00    +0.000 C 
ATOM      5  O   UNL     1      -4.973  11.525  16.497  0.00  0.00    +0.000 OA
ATOM      6  N   UNL     1      -4.447  11.955  18.771  0.00  0.00    +0.000 N 
ENDROOT
BRANCH   6   7
ATOM      7  N   UNL     1      -5.333  12.879  19.225  0.00  0.00    +0.000 NA
ATOM      8  C   UNL     1      -6.226  12.315  19.978  0.00  0.00    +0.000 C 
ATOM      9  C   UNL     1      -6.739  10.864  19.946  0.00  0.00    +0.000 C 
ATOM     10  O   UNL     1      -6.450  10.003  19.146  0.00  0.00    +0.000 OA
ATOM     11  N   UNL     1      -7.565  10.747  21.041  0.00  0.00    +0.000 N 
ATOM     12  C   UNL     1      -7.492  11.881  21.834  0.00  0.00    +0.000 A 
ATOM     13  C   UNL     1      -7.912  11.984  23.146  0.00  0.00    +0.000 A 
ATOM     14  C   UNL     1      -7.536  13.137  23.843  0.00  0.00    +0.000 A 
ATOM     15  C   UNL     1      -6.794  14.160  23.212  0.00  0.00    +0.000 A 
ATOM     16 CL   UNL     1      -6.298  15.525  24.139  0.00  0.00    +0.000 Cl
ATOM     17  C   UNL     1      -6.400  14.057  21.876  0.00  0.00    +0.000 A 
ATOM     18  C   UNL     1      -6.759  12.898  21.212  0.00  0.00    +0.000 A 
ATOM     19  H   UNL     1      -8.007   9.875  21.291  0.00  0.00    +0.000 HD
ENDBRANCH   6   7
BRANCH   1  24
ATOM     20  C   UNL     1      -0.782  11.406  22.018  0.00  0.00    +0.000 A 
ATOM     21  C   UNL     1      -1.493  11.956  23.078  0.00  0.00    +0.000 A 
ATOM     22  C   UNL     1      -2.671  12.660  22.845  0.00  0.00    +0.000 A 
ATOM     23  C   UNL     1      -3.164  12.786  21.546  0.00  0.00    +0.000 A 
ATOM     24  C   UNL     1      -2.521  12.191  20.448  0.00  0.00    +0.000 A 
ATOM     25  C   UNL     1      -1.293  11.536  20.724  0.00  0.00    +0.000 A 
BRANCH  20  27
ATOM     26  C   UNL     1       0.809   9.706  21.525  0.00  0.00    +0.000 C 
ATOM     27  O   UNL     1       0.379  10.773  22.363  0.00  0.00    +0.000 OA
ENDBRANCH  20  27
ENDBRANCH   1  24
TORSDOF 3
ENDMDL
MODEL 3
REMARK VINA RESULT:      -6.5      8.115     11.180
REMARK  Name = 
REMARK  4 active torsions:
REMARK  status: ('A' for Active; 'I' for Inactive)
REMARK    1  A    between atoms: C_1  and  O_2
REMARK    2  A    between atoms: O_2  and  C_3
REMARK    3  A    between atoms: C_7  and  C_8
REMARK    4  A    between atoms: N_13  and  N_14
REMARK                            x       y       z     vdW  Elec       q    Type
REMARK                         _______ _______ _______ _____ _____    ______ ____
ROOT
ATOM      1  C   UNL     1      -3.440  10.109  17.854  0.00  0.00    +0.000 C 
ATOM      2  C   UNL     1      -2.622   9.691  16.610  0.00  0.00    +0.000 C 
ATOM      3 CL   UNL     1      -2.719  10.555  15.043  0.00  0.00    +0.000 Cl
ATOM      4  C   UNL     1      -1.402  10.062  17.527  0.00  0.00    +0.000 C 
ATOM      5  O   UNL     1      -0.231   9.772  17.598  0.00  0.00    +0.000 OA
ATOM      6  N   UNL     1      -2.226  10.855  18.288  0.00  0.00    +0.000 N 
ENDROOT
BRANCH   6   7
ATOM      7  N   UNL     1      -2.131  11.065  19.626  0.00  0.00    +0.000 NA
ATOM      8  C   UNL     1      -1.892  12.317  19.871  0.00  0.00    +0.000 C 
ATOM      9  C   UNL     1      -1.178  13.354  18.986  0.00  0.00    +0.000 C 
ATOM     10  O   UNL     1      -0.637  13.158  17.922  0.00  0.00    +0.000 OA
ATOM     11  N   UNL     1      -1.322  14.553  19.645  0.00  0.00    +0.000 N 
ATOM     12  C   UNL     1      -2.174  14.419  20.730  0.00  0.00    +0.000 A 
ATOM     13  C   UNL     1      -2.798  15.449  21.406  0.00  0.00    +0.000 A 
ATOM     14  C   UNL     1      -3.800  15.094  22.316  0.00  0.00    +0.000 A 
ATOM     15  C   UNL     1      -4.124  13.739  22.551  0.00  0.00    +0.000 A 
ATOM     16 CL   UNL     1      -5.415  13.364  23.629  0.00  0.00    +0.000 Cl
ATOM     17  C   UNL     1      -3.465  12.706  21.882  0.00  0.00    +0.000 A 
ATOM     18  C   UNL     1      -2.496  13.077  20.968  0.00  0.00    +0.000 A 
ATOM     19  H   UNL     1      -0.983  15.423  19.261  0.00  0.00    +0.000 HD
ENDBRANCH   6   7
BRANCH   1  24
ATOM     20  C   UNL     1      -6.814  11.607  19.124  0.00  0.00    +0.000 A 
ATOM     21  C   UNL     1      -7.111  12.546  18.143  0.00  0.00    +0.000 A 
ATOM     22  C   UNL     1      -6.237  12.754  17.080  0.00  0.00    +0.000 A 
ATOM     23  C   UNL     1      -5.072  11.994  16.975  0.00  0.00    +0.000 A 
ATOM     24  C   UNL     1      -4.758  10.986  17.902  0.00  0.00    +0.000 A 
ATOM     25  C   UNL     1      -5.646  10.851  19.000  0.00  0.00    +0.000 A 
BRANCH  20  27
ATOM     26  C   UNL     1      -7.886  10.247  20.755  0.00  0.00    +0.000 C 
ATOM     27  O   UNL     1      -7.724  11.519  20.139  0.00  0.00    +0.000 OA
ENDBRANCH  20  27
ENDBRANCH   1  24
TORSDOF 3
ENDMDL
MODEL 4
REMARK VINA RESULT:      -6.4      5.755      8.619
REMARK  Name = 
REMARK  4 active torsions:
REMARK  status: ('A' for Active; 'I' for Inactive)
REMARK    1  A    between atoms: C_1  and  O_2
REMARK    2  A    between atoms: O_2  and  C_3
REMARK    3  A    between atoms: C_7  and  C_8
REMARK    4  A    between atoms: N_13  and  N_14
REMARK                            x       y       z     vdW  Elec       q    Type
REMARK                         _______ _______ _______ _____ _____    ______ ____
ROOT
ATOM      1  C   UNL     1      -1.843  13.123  19.959  0.00  0.00    +0.000 C 
ATOM      2  C   UNL     1      -2.668  13.979  20.948  0.00  0.00    +0.000 C 
ATOM      3 CL   UNL     1      -4.253  13.460  21.601  0.00  0.00    +0.000 Cl
ATOM      4  C   UNL     1      -1.427  13.746  21.883  0.00  0.00    +0.000 C 
ATOM      5  O   UNL     1      -0.919  14.301  22.829  0.00  0.00    +0.000 OA
ATOM      6  N   UNL     1      -1.095  12.633  21.150  0.00  0.00    +0.000 N 
ENDROOT
BRANCH   6   7
ATOM      7  N   UNL     1       0.160  12.183  20.893  0.00  0.00    +0.000 NA
ATOM      8  C   UNL     1       0.347  11.025  21.446  0.00  0.00    +0.000 C 
ATOM      9  C   UNL     1      -0.323  10.435  22.700  0.00  0.00    +0.000 C 
ATOM     10  O   UNL     1      -1.098  10.990  23.445  0.00  0.00    +0.000 OA
ATOM     11  N   UNL     1       0.117   9.133  22.767  0.00  0.00    +0.000 N 
ATOM     12  C   UNL     1       0.832   8.796  21.629  0.00  0.00    +0.000 A 
ATOM     13  C   UNL     1       1.134   7.516  21.207  0.00  0.00    +0.000 A 
ATOM     14  C   UNL     1       1.655   7.381  19.915  0.00  0.00    +0.000 A 
ATOM     15  C   UNL     1       1.894   8.513  19.105  0.00  0.00    +0.000 A 
ATOM     16 CL   UNL     1       2.471   8.282  17.497  0.00  0.00    +0.000 Cl
ATOM     17  C   UNL     1       1.612   9.804  19.554  0.00  0.00    +0.000 A 
ATOM     18  C   UNL     1       1.074   9.915  20.823  0.00  0.00    +0.000 A 
ATOM     19  H   UNL     1      -0.206   8.491  23.476  0.00  0.00    +0.000 HD
ENDBRANCH   6   7
BRANCH   1  24
ATOM     20  C   UNL     1      -4.259  10.871  17.878  0.00  0.00    +0.000 A 
ATOM     21  C   UNL     1      -3.390   9.950  17.305  0.00  0.00    +0.000 A 
ATOM     22  C   UNL     1      -2.020  10.041  17.532  0.00  0.00    +0.000 A 
ATOM     23  C   UNL     1      -1.514  11.038  18.366  0.00  0.00    +0.000 A 
ATOM     24  C   UNL     1      -2.356  11.952  19.023  0.00  0.00    +0.000 A 
ATOM     25  C   UNL     1      -3.737  11.860  18.715  0.00  0.00    +0.000 A 
BRANCH  20  27
ATOM     26  C   UNL     1      -6.512  10.699  18.625  0.00  0.00    +0.000 C 
ATOM     27  O   UNL     1      -5.576  10.707  17.553  0.00  0.00    +0.000 OA
ENDBRANCH  20  27
ENDBRANCH   1  24
TORSDOF 3
ENDMDL
MODEL 5
REMARK VINA RESULT:      -6.4      8.252     11.288
REMARK  Name = 
REMARK  4 active torsions:
REMARK  status: ('A' for Active; 'I' for Inactive)
REMARK    1  A    between atoms: C_1  and  O_2
REMARK    2  A    between atoms: O_2  and  C_3
REMARK    3  A    between atoms: C_7  and  C_8
REMARK    4  A    between atoms: N_13  and  N_14
REMARK                            x       y       z     vdW  Elec       q    Type
REMARK                         _______ _______ _______ _____ _____    ______ ____
ROOT
ATOM      1  C   UNL     1      -3.617  10.128  17.816  0.00  0.00    +0.000 C 
ATOM      2  C   UNL     1      -2.817   9.736  16.551  0.00  0.00    +0.000 C 
ATOM      3 CL   UNL     1      -2.928  10.637  15.008  0.00  0.00    +0.000 Cl
ATOM      4  C   UNL     1      -1.583  10.076  17.462  0.00  0.00    +0.000 C 
ATOM      5  O   UNL     1      -0.413   9.777  17.511  0.00  0.00    +0.000 OA
ATOM      6  N   UNL     1      -2.392  10.856  18.252  0.00  0.00    +0.000 N 
ENDROOT
BRANCH   6   7
ATOM      7  N   UNL     1      -2.279  11.033  19.594  0.00  0.00    +0.000 NA
ATOM      8  C   UNL     1      -1.996  12.270  19.863  0.00  0.00    +0.000 C 
ATOM      9  C   UNL     1      -1.254  13.302  18.995  0.00  0.00    +0.000 C 
ATOM     10  O   UNL     1      -0.728  13.111  17.922  0.00  0.00    +0.000 OA
ATOM     11  N   UNL     1      -1.352  14.490  19.681  0.00  0.00    +0.000 N 
ATOM     12  C   UNL     1      -2.198  14.361  20.770  0.00  0.00    +0.000 A 
ATOM     13  C   UNL     1      -2.782  15.397  21.475  0.00  0.00    +0.000 A 
ATOM     14  C   UNL     1      -3.787  15.055  22.385  0.00  0.00    +0.000 A 
ATOM     15  C   UNL     1      -4.155  13.708  22.594  0.00  0.00    +0.000 A 
ATOM     16 CL   UNL     1      -5.449  13.353  23.676  0.00  0.00    +0.000 Cl
ATOM     17  C   UNL     1      -3.537  12.668  21.897  0.00  0.00    +0.000 A 
ATOM     18  C   UNL     1      -2.564  13.026  20.983  0.00  0.00    +0.000 A 
ATOM     19  H   UNL     1      -0.986  15.357  19.313  0.00  0.00    +0.000 HD
ENDBRANCH   6   7
BRANCH   1  24
ATOM     20  C   UNL     1      -6.210  12.941  17.042  0.00  0.00    +0.000 A 
ATOM     21  C   UNL     1      -7.255  12.630  17.906  0.00  0.00    +0.000 A 
ATOM     22  C   UNL     1      -7.180  11.506  18.723  0.00  0.00    +0.000 A 
ATOM     23  C   UNL     1      -6.039  10.704  18.706  0.00  0.00    +0.000 A 
ATOM     24  C   UNL     1      -4.928  11.012  17.902  0.00  0.00    +0.000 A 
ATOM     25  C   UNL     1      -5.073  12.131  17.042  0.00  0.00    +0.000 A 
BRANCH  20  27
ATOM     26  C   UNL     1      -7.056  15.159  16.866  0.00  0.00    +0.000 C 
ATOM     27  O   UNL     1      -6.412  14.044  16.260  0.00  0.00    +0.000 OA
ENDBRANCH  20  27
ENDBRANCH   1  24
TORSDOF 3
ENDMDL
MODEL 6
REMARK VINA RESULT:      -6.2      9.175     11.356
REMARK  Name = 
REMARK  4 active torsions:
REMARK  status: ('A' for Active; 'I' for Inactive)
REMARK    1  A    between atoms: C_1  and  O_2
REMARK    2  A    between atoms: O_2  and  C_3
REMARK    3  A    between atoms: C_7  and  C_8
REMARK    4  A    between atoms: N_13  and  N_14
REMARK                            x       y       z     vdW  Elec       q    Type
REMARK                         _______ _______ _______ _____ _____    ______ ____
ROOT
ATOM      1  C   UNL     1      -5.594  12.293  18.603  0.00  0.00    +0.000 C 
ATOM      2  C   UNL     1      -6.922  11.616  19.014  0.00  0.00    +0.000 C 
ATOM      3 CL   UNL     1      -7.035   9.891  19.484  0.00  0.00    +0.000 Cl
ATOM      4  C   UNL     1      -6.859  12.650  20.196  0.00  0.00    +0.000 C 
ATOM      5  O   UNL     1      -7.643  13.180  20.947  0.00  0.00    +0.000 OA
ATOM      6  N   UNL     1      -5.502  12.760  20.014  0.00  0.00    +0.000 N 
ENDROOT
BRANCH   6   7
ATOM      7  N   UNL     1      -4.752  13.877  20.200  0.00  0.00    +0.000 NA
ATOM      8  C   UNL     1      -3.966  13.729  21.222  0.00  0.00    +0.000 C 
ATOM      9  C   UNL     1      -4.160  12.848  22.468  0.00  0.00    +0.000 C 
ATOM     10  O   UNL     1      -5.133  12.188  22.754  0.00  0.00    +0.000 OA
ATOM     11  N   UNL     1      -2.978  12.942  23.166  0.00  0.00    +0.000 N 
ATOM     12  C   UNL     1      -2.026  13.627  22.429  0.00  0.00    +0.000 A 
ATOM     13  C   UNL     1      -0.663  13.627  22.659  0.00  0.00    +0.000 A 
ATOM     14  C   UNL     1       0.147  14.185  21.665  0.00  0.00    +0.000 A 
ATOM     15  C   UNL     1      -0.415  14.755  20.501  0.00  0.00    +0.000 A 
ATOM     16 CL   UNL     1       0.636  15.365  19.279  0.00  0.00    +0.000 Cl
ATOM     17  C   UNL     1      -1.795  14.776  20.294  0.00  0.00    +0.000 A 
ATOM     18  C   UNL     1      -2.579  14.196  21.275  0.00  0.00    +0.000 A 
ATOM     19  H   UNL     1      -2.810  12.421  24.014  0.00  0.00    +0.000 HD
ENDBRANCH   6   7
BRANCH   1  24
ATOM     20  C   UNL     1      -2.903  10.849  16.171  0.00  0.00    +0.000 A 
ATOM     21  C   UNL     1      -1.903  10.436  17.044  0.00  0.00    +0.000 A 
ATOM     22  C   UNL     1      -2.038  10.637  18.414  0.00  0.00    +0.000 A 
ATOM     23  C   UNL     1      -3.197  11.224  18.923  0.00  0.00    +0.000 A 
ATOM     24  C   UNL     1      -4.266  11.598  18.091  0.00  0.00    +0.000 A 
ATOM     25  C   UNL     1      -4.059  11.429  16.698  0.00  0.00    +0.000 A 
BRANCH  20  27
ATOM     26  C   UNL     1      -3.642   9.959  14.091  0.00  0.00    +0.000 C 
ATOM     27  O   UNL     1      -2.643  10.635  14.847  0.00  0.00    +0.000 OA
ENDBRANCH  20  27
ENDBRANCH   1  24
TORSDOF 3
ENDMDL
MODEL 7
REMARK VINA RESULT:      -6.1      8.299      9.926
REMARK  Name = 
REMARK  4 active torsions:
REMARK  status: ('A' for Active; 'I' for Inactive)
REMARK    1  A    between atoms: C_1  and  O_2
REMARK    2  A    between atoms: O_2  and  C_3
REMARK    3  A    between atoms: C_7  and  C_8
REMARK    4  A    between atoms: N_13  and  N_14
REMARK                            x       y       z     vdW  Elec       q    Type
REMARK                         _______ _______ _______ _____ _____    ______ ____
ROOT
ATOM      1  C   UNL     1       7.824  15.881  21.848  0.00  0.00    +0.000 C 
ATOM      2  C   UNL     1       7.106  16.082  23.203  0.00  0.00    +0.000 C 
ATOM      3 CL   UNL     1       5.483  15.411  23.556  0.00  0.00    +0.000 Cl
ATOM      4  C   UNL     1       8.327  15.259  23.752  0.00  0.00    +0.000 C 
ATOM      5  O   UNL     1       8.901  15.132  24.808  0.00  0.00    +0.000 OA
ATOM      6  N   UNL     1       8.531  14.741  22.497  0.00  0.00    +0.000 N 
ENDROOT
BRANCH   6   7
ATOM      7  N   UNL     1       9.729  14.421  21.942  0.00  0.00    +0.000 NA
ATOM      8  C   UNL     1       9.721  13.190  21.531  0.00  0.00    +0.000 C 
ATOM      9  C   UNL     1       8.895  12.002  22.057  0.00  0.00    +0.000 C 
ATOM     10  O   UNL     1       8.155  11.992  23.014  0.00  0.00    +0.000 OA
ATOM     11  N   UNL     1       9.151  10.969  21.184  0.00  0.00    +0.000 N 
ATOM     12  C   UNL     1       9.889  11.414  20.099  0.00  0.00    +0.000 A 
ATOM     13  C   UNL     1      10.043  10.754  18.894  0.00  0.00    +0.000 A 
ATOM     14  C   UNL     1      10.626  11.476  17.847  0.00  0.00    +0.000 A 
ATOM     15  C   UNL     1      11.068  12.804  18.035  0.00  0.00    +0.000 A 
ATOM     16 CL   UNL     1      11.714  13.668  16.691  0.00  0.00    +0.000 Cl
ATOM     17  C   UNL     1      10.934  13.450  19.266  0.00  0.00    +0.000 A 
ATOM     18  C   UNL     1      10.332  12.730  20.282  0.00  0.00    +0.000 A 
ATOM     19  H   UNL     1       8.699  10.071  21.266  0.00  0.00    +0.000 HD
ENDBRANCH   6   7
BRANCH   1  24
ATOM     20  C   UNL     1       5.144  14.927  19.175  0.00  0.00    +0.000 A 
ATOM     21  C   UNL     1       5.893  14.878  18.005  0.00  0.00    +0.000 A 
ATOM     22  C   UNL     1       7.252  15.180  18.027  0.00  0.00    +0.000 A 
ATOM     23  C   UNL     1       7.877  15.501  19.232  0.00  0.00    +0.000 A 
ATOM     24  C   UNL     1       7.180  15.500  20.453  0.00  0.00    +0.000 A 
ATOM     25  C   UNL     1       5.787  15.244  20.374  0.00  0.00    +0.000 A 
BRANCH  20  27
ATOM     26  C   UNL     1       3.085  14.318  20.201  0.00  0.00    +0.000 C 
ATOM     27  O   UNL     1       3.814  14.651  19.025  0.00  0.00    +0.000 OA
ENDBRANCH  20  27
ENDBRANCH   1  24
TORSDOF 3
ENDMDL
MODEL 8
REMARK VINA RESULT:      -6.1      9.063     11.157
REMARK  Name = 
REMARK  4 active torsions:
REMARK  status: ('A' for Active; 'I' for Inactive)
REMARK    1  A    between atoms: C_1  and  O_2
REMARK    2  A    between atoms: O_2  and  C_3
REMARK    3  A    between atoms: C_7  and  C_8
REMARK    4  A    between atoms: N_13  and  N_14
REMARK                            x       y       z     vdW  Elec       q    Type
REMARK                         _______ _______ _______ _____ _____    ______ ____
ROOT
ATOM      1  C   UNL     1       5.566  15.521  20.461  0.00  0.00    +0.000 C 
ATOM      2  C   UNL     1       4.580  16.696  20.659  0.00  0.00    +0.000 C 
ATOM      3 CL   UNL     1       5.026  18.213  21.499  0.00  0.00    +0.000 Cl
ATOM      4  C   UNL     1       4.618  16.740  19.089  0.00  0.00    +0.000 C 
ATOM      5  O   UNL     1       3.900  17.131  18.200  0.00  0.00    +0.000 OA
ATOM      6  N   UNL     1       5.829  16.091  19.109  0.00  0.00    +0.000 N 
ENDROOT
BRANCH   6   7
ATOM      7  N   UNL     1       6.280  15.199  18.190  0.00  0.00    +0.000 NA
ATOM      8  C   UNL     1       7.551  15.363  17.988  0.00  0.00    +0.000 C 
ATOM      9  C   UNL     1       8.395  16.642  18.140  0.00  0.00    +0.000 C 
ATOM     10  O   UNL     1       7.998  17.753  18.404  0.00  0.00    +0.000 OA
ATOM     11  N   UNL     1       9.698  16.240  17.950  0.00  0.00    +0.000 N 
ATOM     12  C   UNL     1       9.780  14.860  17.869  0.00  0.00    +0.000 A 
ATOM     13  C   UNL     1      10.928  14.104  18.010  0.00  0.00    +0.000 A 
ATOM     14  C   UNL     1      10.763  12.720  18.132  0.00  0.00    +0.000 A 
ATOM     15  C   UNL     1       9.481  12.130  18.075  0.00  0.00    +0.000 A 
ATOM     16 CL   UNL     1       9.333  10.428  18.302  0.00  0.00    +0.000 Cl
ATOM     17  C   UNL     1       8.331  12.903  17.903  0.00  0.00    +0.000 A 
ATOM     18  C   UNL     1       8.511  14.271  17.809  0.00  0.00    +0.000 A 
ATOM     19  H   UNL     1      10.476  16.877  18.040  0.00  0.00    +0.000 HD
ENDBRANCH   6   7
BRANCH   1  24
ATOM     20  C   UNL     1       8.390  13.521  22.267  0.00  0.00    +0.000 A 
ATOM     21  C   UNL     1       9.266  14.528  22.658  0.00  0.00    +0.000 A 
ATOM     22  C   UNL     1       9.004  15.855  22.328  0.00  0.00    +0.000 A 
ATOM     23  C   UNL     1       7.841  16.185  21.632  0.00  0.00    +0.000 A 
ATOM     24  C   UNL     1       6.890  15.214  21.273  0.00  0.00    +0.000 A 
ATOM     25  C   UNL     1       7.227  13.870  21.577  0.00  0.00    +0.000 A 
BRANCH  20  27
ATOM     26  C   UNL     1       8.208  11.711  23.801  0.00  0.00    +0.000 C 
ATOM     27  O   UNL     1       8.770  12.255  22.612  0.00  0.00    +0.000 OA
ENDBRANCH  20  27
ENDBRANCH   1  24
TORSDOF 3
ENDMDL
MODEL 9
REMARK VINA RESULT:      -6.1      8.472     10.056
REMARK  Name = 
REMARK  4 active torsions:
REMARK  status: ('A' for Active; 'I' for Inactive)
REMARK    1  A    between atoms: C_1  and  O_2
REMARK    2  A    between atoms: O_2  and  C_3
REMARK    3  A    between atoms: C_7  and  C_8
REMARK    4  A    between atoms: N_13  and  N_14
REMARK                            x       y       z     vdW  Elec       q    Type
REMARK                         _______ _______ _______ _____ _____    ______ ____
ROOT
ATOM      1  C   UNL     1       7.658  15.449  22.525  0.00  0.00    +0.000 C 
ATOM      2  C   UNL     1       6.850  15.329  23.838  0.00  0.00    +0.000 C 
ATOM      3 CL   UNL     1       5.206  14.621  23.910  0.00  0.00    +0.000 Cl
ATOM      4  C   UNL     1       8.030  14.376  24.249  0.00  0.00    +0.000 C 
ATOM      5  O   UNL     1       8.531  13.987  25.278  0.00  0.00    +0.000 OA
ATOM      6  N   UNL     1       8.318  14.174  22.922  0.00  0.00    +0.000 N 
ENDROOT
BRANCH   6   7
ATOM      7  N   UNL     1       9.550  13.976  22.386  0.00  0.00    +0.000 NA
ATOM      8  C   UNL     1       9.606  12.821  21.797  0.00  0.00    +0.000 C 
ATOM      9  C   UNL     1       8.803  11.543  22.100  0.00  0.00    +0.000 C 
ATOM     10  O   UNL     1       8.022  11.368  23.007  0.00  0.00    +0.000 OA
ATOM     11  N   UNL     1       9.135  10.661  21.098  0.00  0.00    +0.000 N 
ATOM     12  C   UNL     1       9.903  11.285  20.129  0.00  0.00    +0.000 A 
ATOM     13  C   UNL     1      10.135  10.817  18.849  0.00  0.00    +0.000 A 
ATOM     14  C   UNL     1      10.737  11.705  17.950  0.00  0.00    +0.000 A 
ATOM     15  C   UNL     1      11.121  13.002  18.354  0.00  0.00    +0.000 A 
ATOM     16 CL   UNL     1      11.794  14.076  17.186  0.00  0.00    +0.000 Cl
ATOM     17  C   UNL     1      10.908  13.453  19.658  0.00  0.00    +0.000 A 
ATOM     18  C   UNL     1      10.288  12.571  20.525  0.00  0.00    +0.000 A 
ATOM     19  H   UNL     1       8.713   9.747  21.023  0.00  0.00    +0.000 HD
ENDBRANCH   6   7
BRANCH   1  24
ATOM     20  C   UNL     1       7.600  15.620  18.625  0.00  0.00    +0.000 A 
ATOM     21  C   UNL     1       6.268  15.344  18.334  0.00  0.00    +0.000 A 
ATOM     22  C   UNL     1       5.369  15.060  19.358  0.00  0.00    +0.000 A 
ATOM     23  C   UNL     1       5.792  15.088  20.687  0.00  0.00    +0.000 A 
ATOM     24  C   UNL     1       7.110  15.428  21.039  0.00  0.00    +0.000 A 
ATOM     25  C   UNL     1       8.005  15.649  19.961  0.00  0.00    +0.000 A 
BRANCH  20  27
ATOM     26  C   UNL     1       9.439  16.801  17.685  0.00  0.00    +0.000 C 
ATOM     27  O   UNL     1       8.397  15.843  17.538  0.00  0.00    +0.000 OA
ENDBRANCH  20  27
ENDBRANCH   1  24
TORSDOF 3
ENDMDL
