MODEL 1
REMARK VINA RESULT:      -8.6      0.000      0.000
REMARK  Name = 
REMARK  4 active torsions:
REMARK  status: ('A' for Active; 'I' for Inactive)
REMARK    1  A    between atoms: C_1  and  C_2
REMARK    2  A    between atoms: C_5  and  C_6
REMARK    3  A    between atoms: C_13  and  C_15
REMARK    4  A    between atoms: C_15  and  C_16
REMARK                            x       y       z     vdW  Elec       q    Type
REMARK                         _______ _______ _______ _____ _____    ______ ____
ROOT
ATOM      1  C   UNL     1       2.597   5.666  20.047  0.00  0.00    +0.000 C 
ATOM      2  C   UNL     1       1.666   4.616  19.445  0.00  0.00    +0.000 C 
ATOM      3  O   UNL     1       2.244   3.313  19.593  0.00  0.00    +0.000 OA
ATOM      4  C   UNL     1       3.455   3.160  18.851  0.00  0.00    +0.000 C 
ATOM      5  C   UNL     1       4.527   4.149  19.326  0.00  0.00    +0.000 C 
ATOM      6  C   UNL     1       5.667   4.285  18.309  0.00  0.00    +0.000 C 
ATOM      7  N   UNL     1       5.246   5.379  17.438  0.00  0.00    +0.000 N 
ATOM      8  C   UNL     1       5.791   5.795  16.248  0.00  0.00    +0.000 C 
ATOM      9  O   UNL     1       5.311   6.736  15.608  0.00  0.00    +0.000 OA
ATOM     10  C   UNL     1       4.053   6.032  17.947  0.00  0.00    +0.000 C 
ATOM     11  C   UNL     1       3.984   5.586  19.409  0.00  0.00    +0.000 C 
ENDROOT
BRANCH   1  16
ATOM     12  C   UNL     1       1.184  10.198  18.689  0.00  0.00    +0.000 C 
ATOM     13  C   UNL     1       1.421   8.976  19.481  0.00  0.00    +0.000 A 
ATOM     14  N   UNL     1       1.006   8.831  20.745  0.00  0.00    +0.000 NA
ATOM     15  O   UNL     1       1.423   7.536  21.069  0.00  0.00    +0.000 OA
ATOM     16  C   UNL     1       2.032   7.037  19.952  0.00  0.00    +0.000 A 
ATOM     17  N   UNL     1       2.066   7.888  18.957  0.00  0.00    +0.000 NA
ENDBRANCH   1  16
BRANCH   8  18
ATOM     18  C   UNL     1       7.016   5.058  15.733  0.00  0.00    +0.000 C 
BRANCH  18  19
ATOM     19  C   UNL     1       6.960   4.740  14.257  0.00  0.00    +0.000 A 
ATOM     20  C   UNL     1       7.775   5.425  13.341  0.00  0.00    +0.000 A 
ATOM     21  C   UNL     1       7.767   5.088  11.984  0.00  0.00    +0.000 A 
ATOM     22  C   UNL     1       6.951   4.056  11.527  0.00  0.00    +0.000 A 
ATOM     23  C   UNL     1       6.137   3.383  12.428  0.00  0.00    +0.000 A 
ATOM     24  F   UNL     1       5.349   2.392  11.991  0.00  0.00    +0.000 F 
ATOM     25  C   UNL     1       6.132   3.715  13.780  0.00  0.00    +0.000 A 
ENDBRANCH  18  19
ENDBRANCH   8  18
TORSDOF 3
ENDMDL
MODEL 2
REMARK VINA RESULT:      -8.0      3.458      7.858
REMARK  Name = 
REMARK  4 active torsions:
REMARK  status: ('A' for Active; 'I' for Inactive)
REMARK    1  A    between atoms: C_1  and  C_2
REMARK    2  A    between atoms: C_5  and  C_6
REMARK    3  A    between atoms: C_13  and  C_15
REMARK    4  A    between atoms: C_15  and  C_16
REMARK                            x       y       z     vdW  Elec       q    Type
REMARK                         _______ _______ _______ _____ _____    ______ ____
ROOT
ATOM      1  C   UNL     1       6.483   4.249  17.015  0.00  0.00    +0.000 C 
ATOM      2  C   UNL     1       7.623   5.003  17.697  0.00  0.00    +0.000 C 
ATOM      3  O   UNL     1       7.527   4.845  19.118  0.00  0.00    +0.000 OA
ATOM      4  C   UNL     1       6.350   5.445  19.661  0.00  0.00    +0.000 C 
ATOM      5  C   UNL     1       5.082   4.803  19.082  0.00  0.00    +0.000 C 
ATOM      6  C   UNL     1       3.842   5.671  19.328  0.00  0.00    +0.000 C 
ATOM      7  N   UNL     1       3.767   6.537  18.154  0.00  0.00    +0.000 N 
ATOM      8  C   UNL     1       2.970   7.635  17.940  0.00  0.00    +0.000 C 
ATOM      9  O   UNL     1       3.030   8.284  16.891  0.00  0.00    +0.000 OA
ATOM     10  C   UNL     1       4.735   6.144  17.145  0.00  0.00    +0.000 C 
ATOM     11  C   UNL     1       5.130   4.722  17.547  0.00  0.00    +0.000 C 
ENDROOT
BRANCH   1  16
ATOM     12  C   UNL     1       6.037   3.658  12.133  0.00  0.00    +0.000 C 
ATOM     13  C   UNL     1       6.448   4.161  13.458  0.00  0.00    +0.000 A 
ATOM     14  N   UNL     1       7.273   5.201  13.623  0.00  0.00    +0.000 NA
ATOM     15  O   UNL     1       7.353   5.325  15.014  0.00  0.00    +0.000 OA
ATOM     16  C   UNL     1       6.550   4.349  15.534  0.00  0.00    +0.000 A 
ATOM     17  N   UNL     1       5.983   3.603  14.619  0.00  0.00    +0.000 NA
ENDBRANCH   1  16
BRANCH   8  18
ATOM     18  C   UNL     1       1.999   8.033  19.038  0.00  0.00    +0.000 C 
BRANCH  18  19
ATOM     19  C   UNL     1       1.205   9.280  18.726  0.00  0.00    +0.000 A 
ATOM     20  C   UNL     1      -0.043   9.197  18.087  0.00  0.00    +0.000 A 
ATOM     21  C   UNL     1      -0.805  10.346  17.854  0.00  0.00    +0.000 A 
ATOM     22  C   UNL     1      -0.334  11.591  18.265  0.00  0.00    +0.000 A 
ATOM     23  C   UNL     1       0.904  11.677  18.887  0.00  0.00    +0.000 A 
ATOM     24  F   UNL     1       1.361  12.873  19.281  0.00  0.00    +0.000 F 
ATOM     25  C   UNL     1       1.674  10.540  19.118  0.00  0.00    +0.000 A 
ENDBRANCH  18  19
ENDBRANCH   8  18
TORSDOF 3
ENDMDL
MODEL 3
REMARK VINA RESULT:      -7.8      3.541      7.864
REMARK  Name = 
REMARK  4 active torsions:
REMARK  status: ('A' for Active; 'I' for Inactive)
REMARK    1  A    between atoms: C_1  and  C_2
REMARK    2  A    between atoms: C_5  and  C_6
REMARK    3  A    between atoms: C_13  and  C_15
REMARK    4  A    between atoms: C_15  and  C_16
REMARK                            x       y       z     vdW  Elec       q    Type
REMARK                         _______ _______ _______ _____ _____    ______ ____
ROOT
ATOM      1  C   UNL     1       6.535   4.238  17.006  0.00  0.00    +0.000 C 
ATOM      2  C   UNL     1       7.653   5.048  17.657  0.00  0.00    +0.000 C 
ATOM      3  O   UNL     1       7.590   4.903  19.082  0.00  0.00    +0.000 OA
ATOM      4  C   UNL     1       6.398   5.457  19.640  0.00  0.00    +0.000 C 
ATOM      5  C   UNL     1       5.148   4.755  19.093  0.00  0.00    +0.000 C 
ATOM      6  C   UNL     1       3.876   5.571  19.352  0.00  0.00    +0.000 C 
ATOM      7  N   UNL     1       3.743   6.419  18.170  0.00  0.00    +0.000 N 
ATOM      8  C   UNL     1       2.896   7.479  17.958  0.00  0.00    +0.000 C 
ATOM      9  O   UNL     1       2.909   8.118  16.901  0.00  0.00    +0.000 OA
ATOM     10  C   UNL     1       4.709   6.056  17.148  0.00  0.00    +0.000 C 
ATOM     11  C   UNL     1       5.172   4.658  17.558  0.00  0.00    +0.000 C 
ENDROOT
BRANCH   1  16
ATOM     12  C   UNL     1       5.936   3.636  12.141  0.00  0.00    +0.000 C 
ATOM     13  C   UNL     1       6.407   4.125  13.452  0.00  0.00    +0.000 A 
ATOM     14  N   UNL     1       7.292   5.119  13.587  0.00  0.00    +0.000 NA
ATOM     15  O   UNL     1       7.413   5.249  14.974  0.00  0.00    +0.000 OA
ATOM     16  C   UNL     1       6.570   4.323  15.522  0.00  0.00    +0.000 A 
ATOM     17  N   UNL     1       5.941   3.602  14.629  0.00  0.00    +0.000 NA
ENDBRANCH   1  16
BRANCH   8  18
ATOM     18  C   UNL     1       1.929   7.848  19.070  0.00  0.00    +0.000 C 
BRANCH  18  19
ATOM     19  C   UNL     1       1.493   9.295  19.043  0.00  0.00    +0.000 A 
ATOM     20  C   UNL     1       2.212  10.249  18.303  0.00  0.00    +0.000 A 
ATOM     21  C   UNL     1       1.774  11.575  18.230  0.00  0.00    +0.000 A 
ATOM     22  C   UNL     1       0.608  11.962  18.886  0.00  0.00    +0.000 A 
ATOM     23  C   UNL     1      -0.098  11.023  19.626  0.00  0.00    +0.000 A 
ATOM     24  F   UNL     1      -1.219  11.393  20.261  0.00  0.00    +0.000 F 
ATOM     25  C   UNL     1       0.332   9.702  19.712  0.00  0.00    +0.000 A 
ENDBRANCH  18  19
ENDBRANCH   8  18
TORSDOF 3
ENDMDL
MODEL 4
REMARK VINA RESULT:      -7.8      1.222      1.538
REMARK  Name = 
REMARK  4 active torsions:
REMARK  status: ('A' for Active; 'I' for Inactive)
REMARK    1  A    between atoms: C_1  and  C_2
REMARK    2  A    between atoms: C_5  and  C_6
REMARK    3  A    between atoms: C_13  and  C_15
REMARK    4  A    between atoms: C_15  and  C_16
REMARK                            x       y       z     vdW  Elec       q    Type
REMARK                         _______ _______ _______ _____ _____    ______ ____
ROOT
ATOM      1  C   UNL     1       2.211   5.704  20.390  0.00  0.00    +0.000 C 
ATOM      2  C   UNL     1       1.146   4.705  19.944  0.00  0.00    +0.000 C 
ATOM      3  O   UNL     1       1.583   3.370  20.230  0.00  0.00    +0.000 OA
ATOM      4  C   UNL     1       2.737   2.996  19.476  0.00  0.00    +0.000 C 
ATOM      5  C   UNL     1       3.931   3.904  19.797  0.00  0.00    +0.000 C 
ATOM      6  C   UNL     1       5.034   3.792  18.739  0.00  0.00    +0.000 C 
ATOM      7  N   UNL     1       4.700   4.819  17.756  0.00  0.00    +0.000 N 
ATOM      8  C   UNL     1       5.235   5.030  16.509  0.00  0.00    +0.000 C 
ATOM      9  O   UNL     1       4.835   5.940  15.777  0.00  0.00    +0.000 OA
ATOM     10  C   UNL     1       3.607   5.658  18.219  0.00  0.00    +0.000 C 
ATOM     11  C   UNL     1       3.553   5.393  19.725  0.00  0.00    +0.000 C 
ENDROOT
BRANCH   1  16
ATOM     12  C   UNL     1       1.285  10.194  18.556  0.00  0.00    +0.000 C 
ATOM     13  C   UNL     1       1.395   9.044  19.474  0.00  0.00    +0.000 A 
ATOM     14  N   UNL     1       0.977   9.078  20.744  0.00  0.00    +0.000 NA
ATOM     15  O   UNL     1       1.254   7.787  21.205  0.00  0.00    +0.000 OA
ATOM     16  C   UNL     1       1.797   7.111  20.149  0.00  0.00    +0.000 A 
ATOM     17  N   UNL     1       1.914   7.843  19.070  0.00  0.00    +0.000 NA
ENDBRANCH   1  16
BRANCH   8  18
ATOM     18  C   UNL     1       6.349   4.104  16.050  0.00  0.00    +0.000 C 
BRANCH  18  19
ATOM     19  C   UNL     1       6.669   4.220  14.578  0.00  0.00    +0.000 A 
ATOM     20  C   UNL     1       6.009   3.418  13.633  0.00  0.00    +0.000 A 
ATOM     21  C   UNL     1       6.261   3.568  12.265  0.00  0.00    +0.000 A 
ATOM     22  C   UNL     1       7.169   4.529  11.825  0.00  0.00    +0.000 A 
ATOM     23  C   UNL     1       7.830   5.316  12.758  0.00  0.00    +0.000 A 
ATOM     24  F   UNL     1       8.706   6.239  12.338  0.00  0.00    +0.000 F 
ATOM     25  C   UNL     1       7.592   5.170  14.122  0.00  0.00    +0.000 A 
ENDBRANCH  18  19
ENDBRANCH   8  18
TORSDOF 3
ENDMDL
MODEL 5
REMARK VINA RESULT:      -7.8      1.204      1.626
REMARK  Name = 
REMARK  4 active torsions:
REMARK  status: ('A' for Active; 'I' for Inactive)
REMARK    1  A    between atoms: C_1  and  C_2
REMARK    2  A    between atoms: C_5  and  C_6
REMARK    3  A    between atoms: C_13  and  C_15
REMARK    4  A    between atoms: C_15  and  C_16
REMARK                            x       y       z     vdW  Elec       q    Type
REMARK                         _______ _______ _______ _____ _____    ______ ____
ROOT
ATOM      1  C   UNL     1       2.486   5.342  20.100  0.00  0.00    +0.000 C 
ATOM      2  C   UNL     1       1.563   4.463  19.259  0.00  0.00    +0.000 C 
ATOM      3  O   UNL     1       2.090   3.132  19.192  0.00  0.00    +0.000 OA
ATOM      4  C   UNL     1       3.340   3.069  18.504  0.00  0.00    +0.000 C 
ATOM      5  C   UNL     1       4.410   3.906  19.216  0.00  0.00    +0.000 C 
ATOM      6  C   UNL     1       5.616   4.181  18.309  0.00  0.00    +0.000 C 
ATOM      7  N   UNL     1       5.286   5.435  17.638  0.00  0.00    +0.000 N 
ATOM      8  C   UNL     1       5.918   6.041  16.580  0.00  0.00    +0.000 C 
ATOM      9  O   UNL     1       5.508   7.105  16.103  0.00  0.00    +0.000 OA
ATOM     10  C   UNL     1       4.083   6.031  18.193  0.00  0.00    +0.000 C 
ATOM     11  C   UNL     1       3.908   5.324  19.537  0.00  0.00    +0.000 C 
ENDROOT
BRANCH   1  16
ATOM     12  C   UNL     1       0.413   9.579  21.560  0.00  0.00    +0.000 C 
ATOM     13  C   UNL     1       1.095   8.552  20.749  0.00  0.00    +0.000 A 
ATOM     14  N   UNL     1       1.547   8.778  19.511  0.00  0.00    +0.000 NA
ATOM     15  O   UNL     1       2.127   7.556  19.157  0.00  0.00    +0.000 OA
ATOM     16  C   UNL     1       1.972   6.730  20.234  0.00  0.00    +0.000 A 
ATOM     17  N   UNL     1       1.334   7.293  21.230  0.00  0.00    +0.000 NA
ENDBRANCH   1  16
BRANCH   8  18
ATOM     18  C   UNL     1       7.149   5.363  16.005  0.00  0.00    +0.000 C 
BRANCH  18  19
ATOM     19  C   UNL     1       6.936   4.779  14.628  0.00  0.00    +0.000 A 
ATOM     20  C   UNL     1       6.068   3.692  14.434  0.00  0.00    +0.000 A 
ATOM     21  C   UNL     1       5.824   3.191  13.151  0.00  0.00    +0.000 A 
ATOM     22  C   UNL     1       6.438   3.775  12.046  0.00  0.00    +0.000 A 
ATOM     23  C   UNL     1       7.305   4.843  12.236  0.00  0.00    +0.000 A 
ATOM     24  F   UNL     1       7.899   5.406  11.175  0.00  0.00    +0.000 F 
ATOM     25  C   UNL     1       7.560   5.346  13.509  0.00  0.00    +0.000 A 
ENDBRANCH  18  19
ENDBRANCH   8  18
TORSDOF 3
ENDMDL
MODEL 6
REMARK VINA RESULT:      -7.7      1.405      1.782
REMARK  Name = 
REMARK  4 active torsions:
REMARK  status: ('A' for Active; 'I' for Inactive)
REMARK    1  A    between atoms: C_1  and  C_2
REMARK    2  A    between atoms: C_5  and  C_6
REMARK    3  A    between atoms: C_13  and  C_15
REMARK    4  A    between atoms: C_15  and  C_16
REMARK                            x       y       z     vdW  Elec       q    Type
REMARK                         _______ _______ _______ _____ _____    ______ ____
ROOT
ATOM      1  C   UNL     1       2.564   4.884  19.354  0.00  0.00    +0.000 C 
ATOM      2  C   UNL     1       1.489   4.168  18.539  0.00  0.00    +0.000 C 
ATOM      3  O   UNL     1       1.887   2.812  18.297  0.00  0.00    +0.000 OA
ATOM      4  C   UNL     1       3.054   2.719  17.478  0.00  0.00    +0.000 C 
ATOM      5  C   UNL     1       4.258   3.395  18.146  0.00  0.00    +0.000 C 
ATOM      6  C   UNL     1       5.389   3.661  17.147  0.00  0.00    +0.000 C 
ATOM      7  N   UNL     1       5.108   4.998  16.629  0.00  0.00    +0.000 N 
ATOM      8  C   UNL     1       5.685   5.653  15.569  0.00  0.00    +0.000 C 
ATOM      9  O   UNL     1       5.328   6.788  15.236  0.00  0.00    +0.000 OA
ATOM     10  C   UNL     1       4.022   5.629  17.359  0.00  0.00    +0.000 C 
ATOM     11  C   UNL     1       3.917   4.809  18.645  0.00  0.00    +0.000 C 
ENDROOT
BRANCH   1  16
ATOM     12  C   UNL     1       1.038   9.109  21.403  0.00  0.00    +0.000 C 
ATOM     13  C   UNL     1       1.536   8.114  20.433  0.00  0.00    +0.000 A 
ATOM     14  N   UNL     1       1.868   8.422  19.175  0.00  0.00    +0.000 NA
ATOM     15  O   UNL     1       2.298   7.198  18.652  0.00  0.00    +0.000 OA
ATOM     16  C   UNL     1       2.190   6.288  19.665  0.00  0.00    +0.000 A 
ATOM     17  N   UNL     1       1.716   6.800  20.773  0.00  0.00    +0.000 NA
ENDBRANCH   1  16
BRANCH   8  18
ATOM     18  C   UNL     1       6.790   4.940  14.810  0.00  0.00    +0.000 C 
BRANCH  18  19
ATOM     19  C   UNL     1       6.295   4.119  13.642  0.00  0.00    +0.000 A 
ATOM     20  C   UNL     1       4.924   4.049  13.342  0.00  0.00    +0.000 A 
ATOM     21  C   UNL     1       4.472   3.339  12.225  0.00  0.00    +0.000 A 
ATOM     22  C   UNL     1       5.384   2.699  11.389  0.00  0.00    +0.000 A 
ATOM     23  C   UNL     1       6.738   2.760  11.689  0.00  0.00    +0.000 A 
ATOM     24  F   UNL     1       7.618   2.143  10.888  0.00  0.00    +0.000 F 
ATOM     25  C   UNL     1       7.199   3.457  12.802  0.00  0.00    +0.000 A 
ENDBRANCH  18  19
ENDBRANCH   8  18
TORSDOF 3
ENDMDL
MODEL 7
REMARK VINA RESULT:      -7.6      4.997      7.915
REMARK  Name = 
REMARK  4 active torsions:
REMARK  status: ('A' for Active; 'I' for Inactive)
REMARK    1  A    between atoms: C_1  and  C_2
REMARK    2  A    between atoms: C_5  and  C_6
REMARK    3  A    between atoms: C_13  and  C_15
REMARK    4  A    between atoms: C_15  and  C_16
REMARK                            x       y       z     vdW  Elec       q    Type
REMARK                         _______ _______ _______ _____ _____    ______ ____
ROOT
ATOM      1  C   UNL     1      -1.360  12.136  18.239  0.00  0.00    +0.000 C 
ATOM      2  C   UNL     1      -0.727  13.270  19.043  0.00  0.00    +0.000 C 
ATOM      3  O   UNL     1       0.647  13.424  18.664  0.00  0.00    +0.000 OA
ATOM      4  C   UNL     1       1.441  12.285  18.997  0.00  0.00    +0.000 C 
ATOM      5  C   UNL     1       0.946  11.029  18.269  0.00  0.00    +0.000 C 
ATOM      6  C   UNL     1       1.505   9.747  18.899  0.00  0.00    +0.000 C 
ATOM      7  N   UNL     1       0.515   9.378  19.908  0.00  0.00    +0.000 N 
ATOM      8  C   UNL     1       0.602   8.429  20.897  0.00  0.00    +0.000 C 
ATOM      9  O   UNL     1      -0.321   8.239  21.696  0.00  0.00    +0.000 OA
ATOM     10  C   UNL     1      -0.670  10.213  19.815  0.00  0.00    +0.000 C 
ATOM     11  C   UNL     1      -0.573  10.839  18.424  0.00  0.00    +0.000 C 
ENDROOT
BRANCH   1  16
ATOM     12  C   UNL     1      -6.161  10.984  18.319  0.00  0.00    +0.000 C 
ATOM     13  C   UNL     1      -4.841  11.540  18.674  0.00  0.00    +0.000 A 
ATOM     14  N   UNL     1      -4.620  12.249  19.786  0.00  0.00    +0.000 NA
ATOM     15  O   UNL     1      -3.254  12.537  19.714  0.00  0.00    +0.000 OA
ATOM     16  C   UNL     1      -2.798  11.951  18.566  0.00  0.00    +0.000 A 
ATOM     17  N   UNL     1      -3.737  11.339  17.889  0.00  0.00    +0.000 NA
ENDBRANCH   1  16
BRANCH   8  18
ATOM     18  C   UNL     1       1.876   7.606  20.981  0.00  0.00    +0.000 C 
BRANCH  18  19
ATOM     19  C   UNL     1       1.847   6.351  20.141  0.00  0.00    +0.000 A 
ATOM     20  C   UNL     1       2.464   6.316  18.879  0.00  0.00    +0.000 A 
ATOM     21  C   UNL     1       2.489   5.136  18.128  0.00  0.00    +0.000 A 
ATOM     22  C   UNL     1       1.908   3.975  18.633  0.00  0.00    +0.000 A 
ATOM     23  C   UNL     1       1.290   4.010  19.875  0.00  0.00    +0.000 A 
ATOM     24  F   UNL     1       0.728   2.896  20.362  0.00  0.00    +0.000 F 
ATOM     25  C   UNL     1       1.252   5.180  20.628  0.00  0.00    +0.000 A 
ENDBRANCH  18  19
ENDBRANCH   8  18
TORSDOF 3
ENDMDL
MODEL 8
REMARK VINA RESULT:      -7.6      4.547      6.748
REMARK  Name = 
REMARK  4 active torsions:
REMARK  status: ('A' for Active; 'I' for Inactive)
REMARK    1  A    between atoms: C_1  and  C_2
REMARK    2  A    between atoms: C_5  and  C_6
REMARK    3  A    between atoms: C_13  and  C_15
REMARK    4  A    between atoms: C_15  and  C_16
REMARK                            x       y       z     vdW  Elec       q    Type
REMARK                         _______ _______ _______ _____ _____    ______ ____
ROOT
ATOM      1  C   UNL     1       0.244  11.812  19.781  0.00  0.00    +0.000 C 
ATOM      2  C   UNL     1       1.572  12.554  19.915  0.00  0.00    +0.000 C 
ATOM      3  O   UNL     1       2.191  12.677  18.628  0.00  0.00    +0.000 OA
ATOM      4  C   UNL     1       2.561  11.413  18.073  0.00  0.00    +0.000 C 
ATOM      5  C   UNL     1       1.334  10.517  17.863  0.00  0.00    +0.000 C 
ATOM      6  C   UNL     1       1.729   9.050  17.657  0.00  0.00    +0.000 C 
ATOM      7  N   UNL     1       1.735   8.483  19.003  0.00  0.00    +0.000 N 
ATOM      8  C   UNL     1       2.203   7.263  19.426  0.00  0.00    +0.000 C 
ATOM      9  O   UNL     1       2.154   6.926  20.613  0.00  0.00    +0.000 OA
ATOM     10  C   UNL     1       1.202   9.423  19.974  0.00  0.00    +0.000 C 
ATOM     11  C   UNL     1       0.453  10.449  19.121  0.00  0.00    +0.000 C 
ENDROOT
BRANCH   1  16
ATOM     12  C   UNL     1      -2.947  11.915  23.547  0.00  0.00    +0.000 C 
ATOM     13  C   UNL     1      -1.728  11.712  22.740  0.00  0.00    +0.000 A 
ATOM     14  N   UNL     1      -0.610  11.163  23.228  0.00  0.00    +0.000 NA
ATOM     15  O   UNL     1       0.246  11.152  22.122  0.00  0.00    +0.000 OA
ATOM     16  C   UNL     1      -0.462  11.685  21.082  0.00  0.00    +0.000 A 
ATOM     17  N   UNL     1      -1.673  12.054  21.415  0.00  0.00    +0.000 NA
ENDBRANCH   1  16
BRANCH   8  18
ATOM     18  C   UNL     1       2.788   6.327  18.382  0.00  0.00    +0.000 C 
BRANCH  18  19
ATOM     19  C   UNL     1       2.609   4.863  18.709  0.00  0.00    +0.000 A 
ATOM     20  C   UNL     1       1.429   4.187  18.356  0.00  0.00    +0.000 A 
ATOM     21  C   UNL     1       1.288   2.818  18.604  0.00  0.00    +0.000 A 
ATOM     22  C   UNL     1       2.328   2.106  19.198  0.00  0.00    +0.000 A 
ATOM     23  C   UNL     1       3.491   2.774  19.555  0.00  0.00    +0.000 A 
ATOM     24  F   UNL     1       4.492   2.092  20.129  0.00  0.00    +0.000 F 
ATOM     25  C   UNL     1       3.640   4.138  19.321  0.00  0.00    +0.000 A 
ENDBRANCH  18  19
ENDBRANCH   8  18
TORSDOF 3
ENDMDL
MODEL 9
REMARK VINA RESULT:      -7.6      1.550      1.907
REMARK  Name = 
REMARK  4 active torsions:
REMARK  status: ('A' for Active; 'I' for Inactive)
REMARK    1  A    between atoms: C_1  and  C_2
REMARK    2  A    between atoms: C_5  and  C_6
REMARK    3  A    between atoms: C_13  and  C_15
REMARK    4  A    between atoms: C_15  and  C_16
REMARK                            x       y       z     vdW  Elec       q    Type
REMARK                         _______ _______ _______ _____ _____    ______ ____
ROOT
ATOM      1  C   UNL     1       2.055   5.194  20.557  0.00  0.00    +0.000 C 
ATOM      2  C   UNL     1       0.923   4.331  20.005  0.00  0.00    +0.000 C 
ATOM      3  O   UNL     1       1.254   2.944  20.154  0.00  0.00    +0.000 OA
ATOM      4  C   UNL     1       2.387   2.562  19.372  0.00  0.00    +0.000 C 
ATOM      5  C   UNL     1       3.641   3.339  19.793  0.00  0.00    +0.000 C 
ATOM      6  C   UNL     1       4.748   3.250  18.735  0.00  0.00    +0.000 C 
ATOM      7  N   UNL     1       4.506   4.396  17.862  0.00  0.00    +0.000 N 
ATOM      8  C   UNL     1       5.073   4.691  16.647  0.00  0.00    +0.000 C 
ATOM      9  O   UNL     1       4.753   5.699  16.010  0.00  0.00    +0.000 OA
ATOM     10  C   UNL     1       3.474   5.264  18.402  0.00  0.00    +0.000 C 
ATOM     11  C   UNL     1       3.378   4.852  19.872  0.00  0.00    +0.000 C 
ENDROOT
BRANCH   1  16
ATOM     12  C   UNL     1       0.538   9.844  21.241  0.00  0.00    +0.000 C 
ATOM     13  C   UNL     1       1.125   8.628  20.645  0.00  0.00    +0.000 A 
ATOM     14  N   UNL     1       1.720   8.614  19.447  0.00  0.00    +0.000 NA
ATOM     15  O   UNL     1       2.133   7.284  19.314  0.00  0.00    +0.000 OA
ATOM     16  C   UNL     1       1.752   6.646  20.461  0.00  0.00    +0.000 A 
ATOM     17  N   UNL     1       1.120   7.426  21.302  0.00  0.00    +0.000 NA
ENDBRANCH   1  16
BRANCH   8  18
ATOM     18  C   UNL     1       6.120   3.735  16.101  0.00  0.00    +0.000 C 
BRANCH  18  19
ATOM     19  C   UNL     1       6.498   4.002  14.663  0.00  0.00    +0.000 A 
ATOM     20  C   UNL     1       5.834   3.347  13.611  0.00  0.00    +0.000 A 
ATOM     21  C   UNL     1       6.143   3.640  12.279  0.00  0.00    +0.000 A 
ATOM     22  C   UNL     1       7.110   4.596  11.981  0.00  0.00    +0.000 A 
ATOM     23  C   UNL     1       7.774   5.237  13.018  0.00  0.00    +0.000 A 
ATOM     24  F   UNL     1       8.707   6.155  12.734  0.00  0.00    +0.000 F 
ATOM     25  C   UNL     1       7.481   4.949  14.348  0.00  0.00    +0.000 A 
ENDBRANCH  18  19
ENDBRANCH   8  18
TORSDOF 3
ENDMDL
