MODEL 1
REMARK VINA RESULT:      -7.1      0.000      0.000
REMARK  Name = 
REMARK  8 active torsions:
REMARK  status: ('A' for Active; 'I' for Inactive)
REMARK    1  A    between atoms: C_1  and  N_2
REMARK    2  A    between atoms: N_2  and  C_3
REMARK    3  A    between atoms: N_2  and  C_4
REMARK    4  A    between atoms: C_4  and  C_5
REMARK    5  A    between atoms: N_10  and  C_11
REMARK    6  A    between atoms: C_11  and  C_12
REMARK    7  A    between atoms: C_12  and  O_13
REMARK    8  A    between atoms: C_12  and  C_14
REMARK                            x       y       z     vdW  Elec       q    Type
REMARK                         _______ _______ _______ _____ _____    ______ ____
ROOT
ATOM      1  C   UNL     1       1.794   3.440  18.215  0.00  0.00    +0.000 C 
ATOM      2  O   UNL     1       0.904   3.927  17.511  0.00  0.00    +0.000 OA
ATOM      3  N   UNL     1       3.111   3.863  18.131  0.00  0.00    +0.000 N 
ATOM      4  C   UNL     1       3.439   5.044  17.333  0.00  0.00    +0.000 C 
ATOM      5  C   UNL     1       4.415   5.978  18.083  0.00  0.00    +0.000 C 
ATOM      6  N   UNL     1       5.616   5.306  18.640  0.00  0.00    +0.000 NA
ATOM      7  C   UNL     1       5.169   4.168  19.476  0.00  0.00    +0.000 C 
ATOM      8  C   UNL     1       4.257   3.175  18.736  0.00  0.00    +0.000 C 
ENDROOT
BRANCH   1   9
ATOM      9  C   UNL     1       1.445   2.365  19.254  0.00  0.00    +0.000 C 
BRANCH   9  11
ATOM     10  C   UNL     1       1.936   2.514  21.634  0.00  0.00    +0.000 C 
ATOM     11  N   UNL     1       1.063   2.974  20.552  0.00  0.00    +0.000 NA
ATOM     12  C   UNL     1       1.098   4.432  20.456  0.00  0.00    +0.000 C 
ENDBRANCH   9  11
ENDBRANCH   1   9
BRANCH   6  13
ATOM     13  C   UNL     1       6.537   4.907  17.554  0.00  0.00    +0.000 C 
BRANCH  13  14
ATOM     14  C   UNL     1       6.567   5.784  16.272  0.00  0.00    +0.000 C 
BRANCH  14  15
ATOM     15  C   UNL     1       6.599   5.082  14.926  0.00  0.00    +0.000 A 
ATOM     16  C   UNL     1       7.600   5.301  13.964  0.00  0.00    +0.000 A 
ATOM     17  C   UNL     1       7.570   4.635  12.736  0.00  0.00    +0.000 A 
ATOM     18  C   UNL     1       6.539   3.750  12.458  0.00  0.00    +0.000 A 
ATOM     19  F   UNL     1       6.508   3.121  11.278  0.00  0.00    +0.000 F 
ATOM     20  C   UNL     1       5.540   3.509  13.392  0.00  0.00    +0.000 A 
ATOM     21  C   UNL     1       5.571   4.169  14.622  0.00  0.00    +0.000 A 
ENDBRANCH  14  15
BRANCH  14  22
ATOM     22  O   UNL     1       7.737   6.612  16.367  0.00  0.00    +0.000 OA
ATOM     23  H   UNL     1       8.300   6.221  17.061  0.00  0.00    +0.000 HD
ENDBRANCH  14  22
ENDBRANCH  13  14
ENDBRANCH   6  13
TORSDOF 6
ENDMDL
MODEL 2
REMARK VINA RESULT:      -6.7      4.008      5.123
REMARK  Name = 
REMARK  8 active torsions:
REMARK  status: ('A' for Active; 'I' for Inactive)
REMARK    1  A    between atoms: C_1  and  N_2
REMARK    2  A    between atoms: N_2  and  C_3
REMARK    3  A    between atoms: N_2  and  C_4
REMARK    4  A    between atoms: C_4  and  C_5
REMARK    5  A    between atoms: N_10  and  C_11
REMARK    6  A    between atoms: C_11  and  C_12
REMARK    7  A    between atoms: C_12  and  O_13
REMARK    8  A    between atoms: C_12  and  C_14
REMARK                            x       y       z     vdW  Elec       q    Type
REMARK                         _______ _______ _______ _____ _____    ______ ____
ROOT
ATOM      1  C   UNL     1       0.982   9.311  19.778  0.00  0.00    +0.000 C 
ATOM      2  O   UNL     1       0.539   9.656  20.877  0.00  0.00    +0.000 OA
ATOM      3  N   UNL     1       1.783   8.190  19.627  0.00  0.00    +0.000 N 
ATOM      4  C   UNL     1       1.961   7.276  20.755  0.00  0.00    +0.000 C 
ATOM      5  C   UNL     1       1.835   5.801  20.309  0.00  0.00    +0.000 C 
ATOM      6  N   UNL     1       2.661   5.433  19.132  0.00  0.00    +0.000 NA
ATOM      7  C   UNL     1       2.358   6.382  18.035  0.00  0.00    +0.000 C 
ATOM      8  C   UNL     1       2.550   7.858  18.421  0.00  0.00    +0.000 C 
ENDROOT
BRANCH   1   9
ATOM      9  C   UNL     1       0.609  10.107  18.519  0.00  0.00    +0.000 C 
BRANCH   9  11
ATOM     10  C   UNL     1      -0.890  12.024  18.578  0.00  0.00    +0.000 C 
ATOM     11  N   UNL     1      -0.802  10.562  18.568  0.00  0.00    +0.000 NA
ATOM     12  C   UNL     1      -1.550  10.015  17.438  0.00  0.00    +0.000 C 
ENDBRANCH   9  11
ENDBRANCH   1   9
BRANCH   6  13
ATOM     13  C   UNL     1       4.093   5.396  19.494  0.00  0.00    +0.000 C 
BRANCH  13  14
ATOM     14  C   UNL     1       4.945   4.214  18.957  0.00  0.00    +0.000 C 
BRANCH  14  15
ATOM     15  C   UNL     1       5.592   4.363  17.591  0.00  0.00    +0.000 A 
ATOM     16  C   UNL     1       6.945   4.694  17.409  0.00  0.00    +0.000 A 
ATOM     17  C   UNL     1       7.482   4.831  16.126  0.00  0.00    +0.000 A 
ATOM     18  C   UNL     1       6.671   4.641  15.016  0.00  0.00    +0.000 A 
ATOM     19  F   UNL     1       7.185   4.782  13.790  0.00  0.00    +0.000 F 
ATOM     20  C   UNL     1       5.332   4.306  15.166  0.00  0.00    +0.000 A 
ATOM     21  C   UNL     1       4.794   4.164  16.447  0.00  0.00    +0.000 A 
ENDBRANCH  14  15
BRANCH  14  22
ATOM     22  O   UNL     1       4.079   3.068  18.914  0.00  0.00    +0.000 OA
ATOM     23  H   UNL     1       3.192   3.380  19.171  0.00  0.00    +0.000 HD
ENDBRANCH  14  22
ENDBRANCH  13  14
ENDBRANCH   6  13
TORSDOF 6
ENDMDL
MODEL 3
REMARK VINA RESULT:      -6.7      4.071      5.305
REMARK  Name = 
REMARK  8 active torsions:
REMARK  status: ('A' for Active; 'I' for Inactive)
REMARK    1  A    between atoms: C_1  and  N_2
REMARK    2  A    between atoms: N_2  and  C_3
REMARK    3  A    between atoms: N_2  and  C_4
REMARK    4  A    between atoms: C_4  and  C_5
REMARK    5  A    between atoms: N_10  and  C_11
REMARK    6  A    between atoms: C_11  and  C_12
REMARK    7  A    between atoms: C_12  and  O_13
REMARK    8  A    between atoms: C_12  and  C_14
REMARK                            x       y       z     vdW  Elec       q    Type
REMARK                         _______ _______ _______ _____ _____    ______ ____
ROOT
ATOM      1  C   UNL     1       0.908   9.399  19.780  0.00  0.00    +0.000 C 
ATOM      2  O   UNL     1       0.448   9.767  20.865  0.00  0.00    +0.000 OA
ATOM      3  N   UNL     1       1.701   8.268  19.664  0.00  0.00    +0.000 N 
ATOM      4  C   UNL     1       1.850   7.372  20.810  0.00  0.00    +0.000 C 
ATOM      5  C   UNL     1       1.718   5.892  20.388  0.00  0.00    +0.000 C 
ATOM      6  N   UNL     1       2.562   5.496  19.232  0.00  0.00    +0.000 NA
ATOM      7  C   UNL     1       2.288   6.427  18.114  0.00  0.00    +0.000 C 
ATOM      8  C   UNL     1       2.486   7.908  18.478  0.00  0.00    +0.000 C 
ENDROOT
BRANCH   1   9
ATOM      9  C   UNL     1       0.565  10.176  18.500  0.00  0.00    +0.000 C 
BRANCH   9  11
ATOM     10  C   UNL     1      -0.840  12.162  18.392  0.00  0.00    +0.000 C 
ATOM     11  N   UNL     1      -0.820  10.705  18.547  0.00  0.00    +0.000 NA
ATOM     12  C   UNL     1      -1.639  10.073  17.515  0.00  0.00    +0.000 C 
ENDBRANCH   9  11
ENDBRANCH   1   9
BRANCH   6  13
ATOM     13  C   UNL     1       3.987   5.453  19.622  0.00  0.00    +0.000 C 
BRANCH  13  14
ATOM     14  C   UNL     1       4.844   4.267  19.099  0.00  0.00    +0.000 C 
BRANCH  14  15
ATOM     15  C   UNL     1       5.455   4.383  17.713  0.00  0.00    +0.000 A 
ATOM     16  C   UNL     1       4.721   4.208  16.529  0.00  0.00    +0.000 A 
ATOM     17  C   UNL     1       5.340   4.313  15.280  0.00  0.00    +0.000 A 
ATOM     18  C   UNL     1       6.697   4.589  15.207  0.00  0.00    +0.000 A 
ATOM     19  F   UNL     1       7.289   4.679  14.011  0.00  0.00    +0.000 F 
ATOM     20  C   UNL     1       7.447   4.774  16.361  0.00  0.00    +0.000 A 
ATOM     21  C   UNL     1       6.829   4.674  17.609  0.00  0.00    +0.000 A 
ENDBRANCH  14  15
BRANCH  14  22
ATOM     22  O   UNL     1       3.995   3.108  19.113  0.00  0.00    +0.000 OA
ATOM     23  H   UNL     1       4.194   2.607  18.300  0.00  0.00    +0.000 HD
ENDBRANCH  14  22
ENDBRANCH  13  14
ENDBRANCH   6  13
TORSDOF 6
ENDMDL
MODEL 4
REMARK VINA RESULT:      -6.5      1.340      1.974
REMARK  Name = 
REMARK  8 active torsions:
REMARK  status: ('A' for Active; 'I' for Inactive)
REMARK    1  A    between atoms: C_1  and  N_2
REMARK    2  A    between atoms: N_2  and  C_3
REMARK    3  A    between atoms: N_2  and  C_4
REMARK    4  A    between atoms: C_4  and  C_5
REMARK    5  A    between atoms: N_10  and  C_11
REMARK    6  A    between atoms: C_11  and  C_12
REMARK    7  A    between atoms: C_12  and  O_13
REMARK    8  A    between atoms: C_12  and  C_14
REMARK                            x       y       z     vdW  Elec       q    Type
REMARK                         _______ _______ _______ _____ _____    ______ ____
ROOT
ATOM      1  C   UNL     1       1.881   4.964  19.919  0.00  0.00    +0.000 C 
ATOM      2  O   UNL     1       1.721   5.741  20.864  0.00  0.00    +0.000 OA
ATOM      3  N   UNL     1       2.981   5.046  19.079  0.00  0.00    +0.000 N 
ATOM      4  C   UNL     1       4.083   5.945  19.421  0.00  0.00    +0.000 C 
ATOM      5  C   UNL     1       5.453   5.258  19.222  0.00  0.00    +0.000 C 
ATOM      6  N   UNL     1       5.633   4.599  17.904  0.00  0.00    +0.000 NA
ATOM      7  C   UNL     1       4.500   3.671  17.687  0.00  0.00    +0.000 C 
ATOM      8  C   UNL     1       3.120   4.339  17.801  0.00  0.00    +0.000 C 
ENDROOT
BRANCH   1   9
ATOM      9  C   UNL     1       0.868   3.837  19.674  0.00  0.00    +0.000 C 
BRANCH   9  11
ATOM     10  C   UNL     1       2.021   1.695  19.564  0.00  0.00    +0.000 C 
ATOM     11  N   UNL     1       1.245   2.605  20.410  0.00  0.00    +0.000 NA
ATOM     12  C   UNL     1       2.000   2.946  21.614  0.00  0.00    +0.000 C 
ENDBRANCH   9  11
ENDBRANCH   1   9
BRANCH   6  13
ATOM     13  C   UNL     1       5.774   5.610  16.834  0.00  0.00    +0.000 C 
BRANCH  13  14
ATOM     14  C   UNL     1       6.859   5.369  15.749  0.00  0.00    +0.000 C 
BRANCH  14  15
ATOM     15  C   UNL     1       6.447   4.660  14.471  0.00  0.00    +0.000 A 
ATOM     16  C   UNL     1       5.185   4.071  14.286  0.00  0.00    +0.000 A 
ATOM     17  C   UNL     1       4.868   3.420  13.092  0.00  0.00    +0.000 A 
ATOM     18  C   UNL     1       5.808   3.348  12.076  0.00  0.00    +0.000 A 
ATOM     19  F   UNL     1       5.505   2.715  10.937  0.00  0.00    +0.000 F 
ATOM     20  C   UNL     1       7.062   3.927  12.227  0.00  0.00    +0.000 A 
ATOM     21  C   UNL     1       7.379   4.582  13.419  0.00  0.00    +0.000 A 
ENDBRANCH  14  15
BRANCH  14  22
ATOM     22  O   UNL     1       7.897   4.593  16.370  0.00  0.00    +0.000 OA
ATOM     23  H   UNL     1       7.924   4.862  17.307  0.00  0.00    +0.000 HD
ENDBRANCH  14  22
ENDBRANCH  13  14
ENDBRANCH   6  13
TORSDOF 6
ENDMDL
MODEL 5
REMARK VINA RESULT:      -6.4      4.495      6.679
REMARK  Name = 
REMARK  8 active torsions:
REMARK  status: ('A' for Active; 'I' for Inactive)
REMARK    1  A    between atoms: C_1  and  N_2
REMARK    2  A    between atoms: N_2  and  C_3
REMARK    3  A    between atoms: N_2  and  C_4
REMARK    4  A    between atoms: C_4  and  C_5
REMARK    5  A    between atoms: N_10  and  C_11
REMARK    6  A    between atoms: C_11  and  C_12
REMARK    7  A    between atoms: C_12  and  O_13
REMARK    8  A    between atoms: C_12  and  C_14
REMARK                            x       y       z     vdW  Elec       q    Type
REMARK                         _______ _______ _______ _____ _____    ______ ____
ROOT
ATOM      1  C   UNL     1       1.854   9.023  18.328  0.00  0.00    +0.000 C 
ATOM      2  O   UNL     1       1.783   9.859  17.423  0.00  0.00    +0.000 OA
ATOM      3  N   UNL     1       2.539   7.828  18.173  0.00  0.00    +0.000 N 
ATOM      4  C   UNL     1       3.364   7.620  16.983  0.00  0.00    +0.000 C 
ATOM      5  C   UNL     1       4.733   7.004  17.348  0.00  0.00    +0.000 C 
ATOM      6  N   UNL     1       4.664   5.804  18.220  0.00  0.00    +0.000 NA
ATOM      7  C   UNL     1       3.860   6.142  19.417  0.00  0.00    +0.000 C 
ATOM      8  C   UNL     1       2.459   6.686  19.090  0.00  0.00    +0.000 C 
ENDROOT
BRANCH   1   9
ATOM      9  C   UNL     1       1.209   9.314  19.691  0.00  0.00    +0.000 C 
BRANCH   9  11
ATOM     10  C   UNL     1      -0.945  10.410  19.391  0.00  0.00    +0.000 C 
ATOM     11  N   UNL     1       0.479  10.606  19.675  0.00  0.00    +0.000 NA
ATOM     12  C   UNL     1       0.652  11.300  20.949  0.00  0.00    +0.000 C 
ENDBRANCH   9  11
ENDBRANCH   1   9
BRANCH   6  13
ATOM     13  C   UNL     1       4.133   4.647  17.467  0.00  0.00    +0.000 C 
BRANCH  13  14
ATOM     14  C   UNL     1       4.143   3.262  18.169  0.00  0.00    +0.000 C 
BRANCH  14  15
ATOM     15  C   UNL     1       3.144   3.019  19.287  0.00  0.00    +0.000 A 
ATOM     16  C   UNL     1       1.754   3.131  19.119  0.00  0.00    +0.000 A 
ATOM     17  C   UNL     1       0.883   2.910  20.189  0.00  0.00    +0.000 A 
ATOM     18  C   UNL     1       1.394   2.580  21.435  0.00  0.00    +0.000 A 
ATOM     19  F   UNL     1       0.559   2.378  22.460  0.00  0.00    +0.000 F 
ATOM     20  C   UNL     1       2.764   2.456  21.630  0.00  0.00    +0.000 A 
ATOM     21  C   UNL     1       3.635   2.672  20.560  0.00  0.00    +0.000 A 
ENDBRANCH  14  15
BRANCH  14  22
ATOM     22  O   UNL     1       5.463   3.083  18.709  0.00  0.00    +0.000 OA
ATOM     23  H   UNL     1       5.555   2.134  18.912  0.00  0.00    +0.000 HD
ENDBRANCH  14  22
ENDBRANCH  13  14
ENDBRANCH   6  13
TORSDOF 6
ENDMDL
MODEL 6
REMARK VINA RESULT:      -6.4      3.870      5.345
REMARK  Name = 
REMARK  8 active torsions:
REMARK  status: ('A' for Active; 'I' for Inactive)
REMARK    1  A    between atoms: C_1  and  N_2
REMARK    2  A    between atoms: N_2  and  C_3
REMARK    3  A    between atoms: N_2  and  C_4
REMARK    4  A    between atoms: C_4  and  C_5
REMARK    5  A    between atoms: N_10  and  C_11
REMARK    6  A    between atoms: C_11  and  C_12
REMARK    7  A    between atoms: C_12  and  O_13
REMARK    8  A    between atoms: C_12  and  C_14
REMARK                            x       y       z     vdW  Elec       q    Type
REMARK                         _______ _______ _______ _____ _____    ______ ____
ROOT
ATOM      1  C   UNL     1       1.226   8.091  20.517  0.00  0.00    +0.000 C 
ATOM      2  O   UNL     1       0.606   8.203  21.579  0.00  0.00    +0.000 OA
ATOM      3  N   UNL     1       1.887   6.923  20.171  0.00  0.00    +0.000 N 
ATOM      4  C   UNL     1       1.696   5.721  20.983  0.00  0.00    +0.000 C 
ATOM      5  C   UNL     1       1.476   4.474  20.098  0.00  0.00    +0.000 C 
ATOM      6  N   UNL     1       2.480   4.289  19.020  0.00  0.00    +0.000 NA
ATOM      7  C   UNL     1       2.548   5.538  18.227  0.00  0.00    +0.000 C 
ATOM      8  C   UNL     1       2.844   6.791  19.068  0.00  0.00    +0.000 C 
ENDROOT
BRANCH   1   9
ATOM      9  C   UNL     1       1.241   9.253  19.513  0.00  0.00    +0.000 C 
BRANCH   9  11
ATOM     10  C   UNL     1       0.792  11.511  20.307  0.00  0.00    +0.000 C 
ATOM     11  N   UNL     1       0.198  10.257  19.837  0.00  0.00    +0.000 NA
ATOM     12  C   UNL     1      -0.649  10.501  18.672  0.00  0.00    +0.000 C 
ENDBRANCH   9  11
ENDBRANCH   1   9
BRANCH   6  13
ATOM     13  C   UNL     1       3.783   3.886  19.589  0.00  0.00    +0.000 C 
BRANCH  13  14
ATOM     14  C   UNL     1       4.953   3.624  18.602  0.00  0.00    +0.000 C 
BRANCH  14  15
ATOM     15  C   UNL     1       5.802   4.807  18.170  0.00  0.00    +0.000 A 
ATOM     16  C   UNL     1       5.658   5.448  16.928  0.00  0.00    +0.000 A 
ATOM     17  C   UNL     1       6.478   6.525  16.579  0.00  0.00    +0.000 A 
ATOM     18  C   UNL     1       7.451   6.964  17.465  0.00  0.00    +0.000 A 
ATOM     19  F   UNL     1       8.241   7.989  17.125  0.00  0.00    +0.000 F 
ATOM     20  C   UNL     1       7.612   6.353  18.702  0.00  0.00    +0.000 A 
ATOM     21  C   UNL     1       6.790   5.281  19.054  0.00  0.00    +0.000 A 
ENDBRANCH  14  15
BRANCH  14  22
ATOM     22  O   UNL     1       4.375   3.040  17.423  0.00  0.00    +0.000 OA
ATOM     23  H   UNL     1       4.867   3.402  16.663  0.00  0.00    +0.000 HD
ENDBRANCH  14  22
ENDBRANCH  13  14
ENDBRANCH   6  13
TORSDOF 6
ENDMDL
MODEL 7
REMARK VINA RESULT:      -6.4      3.985      5.422
REMARK  Name = 
REMARK  8 active torsions:
REMARK  status: ('A' for Active; 'I' for Inactive)
REMARK    1  A    between atoms: C_1  and  N_2
REMARK    2  A    between atoms: N_2  and  C_3
REMARK    3  A    between atoms: N_2  and  C_4
REMARK    4  A    between atoms: C_4  and  C_5
REMARK    5  A    between atoms: N_10  and  C_11
REMARK    6  A    between atoms: C_11  and  C_12
REMARK    7  A    between atoms: C_12  and  O_13
REMARK    8  A    between atoms: C_12  and  C_14
REMARK                            x       y       z     vdW  Elec       q    Type
REMARK                         _______ _______ _______ _____ _____    ______ ____
ROOT
ATOM      1  C   UNL     1       1.181   8.214  20.591  0.00  0.00    +0.000 C 
ATOM      2  O   UNL     1       0.607   8.297  21.681  0.00  0.00    +0.000 OA
ATOM      3  N   UNL     1       1.846   7.064  20.197  0.00  0.00    +0.000 N 
ATOM      4  C   UNL     1       1.715   5.846  20.995  0.00  0.00    +0.000 C 
ATOM      5  C   UNL     1       1.478   4.609  20.100  0.00  0.00    +0.000 C 
ATOM      6  N   UNL     1       2.436   4.461  18.976  0.00  0.00    +0.000 NA
ATOM      7  C   UNL     1       2.445   5.723  18.202  0.00  0.00    +0.000 C 
ATOM      8  C   UNL     1       2.756   6.968  19.049  0.00  0.00    +0.000 C 
ENDROOT
BRANCH   1   9
ATOM      9  C   UNL     1       1.129   9.392  19.607  0.00  0.00    +0.000 C 
BRANCH   9  11
ATOM     10  C   UNL     1       0.863  11.666  20.437  0.00  0.00    +0.000 C 
ATOM     11  N   UNL     1       0.171  10.430  20.061  0.00  0.00    +0.000 NA
ATOM     12  C   UNL     1      -0.817  10.698  19.019  0.00  0.00    +0.000 C 
ENDBRANCH   9  11
ENDBRANCH   1   9
BRANCH   6  13
ATOM     13  C   UNL     1       3.771   4.074  19.480  0.00  0.00    +0.000 C 
BRANCH  13  14
ATOM     14  C   UNL     1       4.903   3.858  18.438  0.00  0.00    +0.000 C 
BRANCH  14  15
ATOM     15  C   UNL     1       5.849   5.013  18.160  0.00  0.00    +0.000 A 
ATOM     16  C   UNL     1       6.925   5.349  18.998  0.00  0.00    +0.000 A 
ATOM     17  C   UNL     1       7.754   6.433  18.698  0.00  0.00    +0.000 A 
ATOM     18  C   UNL     1       7.513   7.191  17.562  0.00  0.00    +0.000 A 
ATOM     19  F   UNL     1       8.303   8.233  17.282  0.00  0.00    +0.000 F 
ATOM     20  C   UNL     1       6.460   6.877  16.712  0.00  0.00    +0.000 A 
ATOM     21  C   UNL     1       5.633   5.792  17.007  0.00  0.00    +0.000 A 
ENDBRANCH  14  15
BRANCH  14  22
ATOM     22  O   UNL     1       4.262   3.504  17.202  0.00  0.00    +0.000 OA
ATOM     23  H   UNL     1       3.917   4.331  16.819  0.00  0.00    +0.000 HD
ENDBRANCH  14  22
ENDBRANCH  13  14
ENDBRANCH   6  13
TORSDOF 6
ENDMDL
MODEL 8
REMARK VINA RESULT:      -6.3      1.714      2.407
REMARK  Name = 
REMARK  8 active torsions:
REMARK  status: ('A' for Active; 'I' for Inactive)
REMARK    1  A    between atoms: C_1  and  N_2
REMARK    2  A    between atoms: N_2  and  C_3
REMARK    3  A    between atoms: N_2  and  C_4
REMARK    4  A    between atoms: C_4  and  C_5
REMARK    5  A    between atoms: N_10  and  C_11
REMARK    6  A    between atoms: C_11  and  C_12
REMARK    7  A    between atoms: C_12  and  O_13
REMARK    8  A    between atoms: C_12  and  C_14
REMARK                            x       y       z     vdW  Elec       q    Type
REMARK                         _______ _______ _______ _____ _____    ______ ____
ROOT
ATOM      1  C   UNL     1       2.395   5.412  19.190  0.00  0.00    +0.000 C 
ATOM      2  O   UNL     1       2.239   6.462  19.821  0.00  0.00    +0.000 OA
ATOM      3  N   UNL     1       3.260   5.325  18.111  0.00  0.00    +0.000 N 
ATOM      4  C   UNL     1       4.160   6.440  17.817  0.00  0.00    +0.000 C 
ATOM      5  C   UNL     1       5.588   5.943  17.503  0.00  0.00    +0.000 C 
ATOM      6  N   UNL     1       5.663   4.858  16.491  0.00  0.00    +0.000 NA
ATOM      7  C   UNL     1       4.765   3.761  16.917  0.00  0.00    +0.000 C 
ATOM      8  C   UNL     1       3.313   4.207  17.162  0.00  0.00    +0.000 C 
ENDROOT
BRANCH   1   9
ATOM      9  C   UNL     1       1.653   4.141  19.626  0.00  0.00    +0.000 C 
BRANCH   9  11
ATOM     10  C   UNL     1       1.358   2.684  21.555  0.00  0.00    +0.000 C 
ATOM     11  N   UNL     1       2.303   3.515  20.804  0.00  0.00    +0.000 NA
ATOM     12  C   UNL     1       3.455   2.722  20.384  0.00  0.00    +0.000 C 
ENDBRANCH   9  11
ENDBRANCH   1   9
BRANCH   6  13
ATOM     13  C   UNL     1       5.348   5.383  15.146  0.00  0.00    +0.000 C 
BRANCH  13  14
ATOM     14  C   UNL     1       6.442   5.264  14.049  0.00  0.00    +0.000 C 
BRANCH  14  15
ATOM     15  C   UNL     1       6.334   4.121  13.054  0.00  0.00    +0.000 A 
ATOM     16  C   UNL     1       5.123   3.483  12.738  0.00  0.00    +0.000 A 
ATOM     17  C   UNL     1       5.087   2.427  11.824  0.00  0.00    +0.000 A 
ATOM     18  C   UNL     1       6.261   1.998  11.222  0.00  0.00    +0.000 A 
ATOM     19  F   UNL     1       6.225   0.981  10.354  0.00  0.00    +0.000 F 
ATOM     20  C   UNL     1       7.472   2.615  11.510  0.00  0.00    +0.000 A 
ATOM     21  C   UNL     1       7.508   3.673  12.419  0.00  0.00    +0.000 A 
ENDBRANCH  14  15
BRANCH  14  22
ATOM     22  O   UNL     1       7.699   5.137  14.733  0.00  0.00    +0.000 OA
ATOM     23  H   UNL     1       7.728   5.848  15.399  0.00  0.00    +0.000 HD
ENDBRANCH  14  22
ENDBRANCH  13  14
ENDBRANCH   6  13
TORSDOF 6
ENDMDL
MODEL 9
REMARK VINA RESULT:      -6.2      1.438      2.082
REMARK  Name = 
REMARK  8 active torsions:
REMARK  status: ('A' for Active; 'I' for Inactive)
REMARK    1  A    between atoms: C_1  and  N_2
REMARK    2  A    between atoms: N_2  and  C_3
REMARK    3  A    between atoms: N_2  and  C_4
REMARK    4  A    between atoms: C_4  and  C_5
REMARK    5  A    between atoms: N_10  and  C_11
REMARK    6  A    between atoms: C_11  and  C_12
REMARK    7  A    between atoms: C_12  and  O_13
REMARK    8  A    between atoms: C_12  and  C_14
REMARK                            x       y       z     vdW  Elec       q    Type
REMARK                         _______ _______ _______ _____ _____    ______ ____
ROOT
ATOM      1  C   UNL     1       2.312   5.246  19.800  0.00  0.00    +0.000 C 
ATOM      2  O   UNL     1       2.220   6.007  20.768  0.00  0.00    +0.000 OA
ATOM      3  N   UNL     1       3.435   5.221  18.989  0.00  0.00    +0.000 N 
ATOM      4  C   UNL     1       4.627   5.971  19.386  0.00  0.00    +0.000 C 
ATOM      5  C   UNL     1       5.910   5.132  19.193  0.00  0.00    +0.000 C 
ATOM      6  N   UNL     1       6.045   4.497  17.858  0.00  0.00    +0.000 NA
ATOM      7  C   UNL     1       4.816   3.718  17.585  0.00  0.00    +0.000 C 
ATOM      8  C   UNL     1       3.522   4.543  17.691  0.00  0.00    +0.000 C 
ENDROOT
BRANCH   1   9
ATOM      9  C   UNL     1       1.178   4.256  19.495  0.00  0.00    +0.000 C 
BRANCH   9  11
ATOM     10  C   UNL     1       1.356   2.601  21.273  0.00  0.00    +0.000 C 
ATOM     11  N   UNL     1       1.567   2.868  19.848  0.00  0.00    +0.000 NA
ATOM     12  C   UNL     1       0.818   1.912  19.036  0.00  0.00    +0.000 C 
ENDBRANCH   9  11
ENDBRANCH   1   9
BRANCH   6  13
ATOM     13  C   UNL     1       6.333   5.516  16.827  0.00  0.00    +0.000 C 
BRANCH  13  14
ATOM     14  C   UNL     1       5.435   5.535  15.559  0.00  0.00    +0.000 C 
BRANCH  14  15
ATOM     15  C   UNL     1       5.948   4.839  14.310  0.00  0.00    +0.000 A 
ATOM     16  C   UNL     1       5.215   3.864  13.613  0.00  0.00    +0.000 A 
ATOM     17  C   UNL     1       5.745   3.247  12.477  0.00  0.00    +0.000 A 
ATOM     18  C   UNL     1       7.011   3.596  12.031  0.00  0.00    +0.000 A 
ATOM     19  F   UNL     1       7.519   2.997  10.948  0.00  0.00    +0.000 F 
ATOM     20  C   UNL     1       7.755   4.562  12.696  0.00  0.00    +0.000 A 
ATOM     21  C   UNL     1       7.226   5.183  13.829  0.00  0.00    +0.000 A 
ENDBRANCH  14  15
BRANCH  14  22
ATOM     22  O   UNL     1       5.211   6.917  15.234  0.00  0.00    +0.000 OA
ATOM     23  H   UNL     1       4.248   7.024  15.123  0.00  0.00    +0.000 HD
ENDBRANCH  14  22
ENDBRANCH  13  14
ENDBRANCH   6  13
TORSDOF 6
ENDMDL
