MODEL 1
REMARK VINA RESULT:      -8.4      0.000      0.000
REMARK  Name = 
REMARK  14 active torsions:
REMARK  status: ('A' for Active; 'I' for Inactive)
REMARK    1  A    between atoms: C_1  and  C_2
REMARK    2  A    between atoms: C_2  and  C_4
REMARK    3  A    between atoms: C_4  and  C_25
REMARK    4  A    between atoms: C_5  and  C_6
REMARK    5  A    between atoms: C_7  and  C_8
REMARK    6  A    between atoms: C_7  and  C_9
REMARK    7  A    between atoms: C_10  and  C_11
REMARK    8  A    between atoms: C_12  and  C_13
REMARK    9  A    between atoms: C_12  and  C_14
REMARK   10  A    between atoms: C_15  and  C_16
REMARK   11  A    between atoms: C_17  and  C_18
REMARK   12  A    between atoms: C_22  and  C_23
REMARK   13  A    between atoms: C_22  and  C_24
REMARK   14  A    between atoms: C_25  and  C_26
REMARK                            x       y       z     vdW  Elec       q    Type
REMARK                         _______ _______ _______ _____ _____    ______ ____
ROOT
ATOM      1  C   UNL     1       8.330   9.484  17.648  0.00  0.00    +0.000 C 
ATOM      2  C   UNL     1       9.005  10.383  18.408  0.00  0.00    +0.000 C 
ATOM      3  C   UNL     1       9.411  10.133  19.841  0.00  0.00    +0.000 C 
ENDROOT
BRANCH   1   5
ATOM      4  C   UNL     1       7.266   7.252  17.369  0.00  0.00    +0.000 C 
ATOM      5  C   UNL     1       7.925   8.169  18.099  0.00  0.00    +0.000 C 
BRANCH   4   7
ATOM      6  C   UNL     1       5.907   5.852  18.787  0.00  0.00    +0.000 C 
ATOM      7  C   UNL     1       6.878   5.915  17.852  0.00  0.00    +0.000 C 
ATOM      8  C   UNL     1       7.588   4.720  17.256  0.00  0.00    +0.000 C 
BRANCH   6  10
ATOM      9  C   UNL     1       4.345   3.842  19.013  0.00  0.00    +0.000 C 
ATOM     10  C   UNL     1       5.322   4.687  19.428  0.00  0.00    +0.000 C 
BRANCH   9  12
ATOM     11  C   UNL     1       2.110   4.215  17.668  0.00  0.00    +0.000 C 
ATOM     12  C   UNL     1       3.580   3.900  17.712  0.00  0.00    +0.000 C 
ATOM     13  O   UNL     1       4.158   3.719  16.640  0.00  0.00    +0.000 OA
ENDBRANCH   9  12
BRANCH   9  14
ATOM     14  C   UNL     1       4.092   2.715  20.007  0.00  0.00    +0.000 C 
ATOM     15  C   UNL     1       2.871   2.688  20.899  0.00  0.00    +0.000 C 
ATOM     16  O   UNL     1       4.911   1.796  20.129  0.00  0.00    +0.000 OA
ENDBRANCH   9  14
ENDBRANCH   6  10
ENDBRANCH   4   7
ENDBRANCH   1   5
BRANCH   2  17
ATOM     17  C   UNL     1       9.365  11.696  17.854  0.00  0.00    +0.000 C 
ATOM     18  C   UNL     1       9.706  12.774  18.588  0.00  0.00    +0.000 C 
BRANCH  18  19
ATOM     19  C   UNL     1      10.023  14.102  18.066  0.00  0.00    +0.000 C 
ATOM     20  C   UNL     1      11.137  14.326  17.323  0.00  0.00    +0.000 C 
ATOM     21  C   UNL     1      12.105  13.262  16.860  0.00  0.00    +0.000 C 
ATOM     22  C   UNL     1      11.516  15.702  16.819  0.00  0.00    +0.000 C 
ATOM     23  C   UNL     1      10.720  16.840  17.442  0.00  0.00    +0.000 C 
ATOM     24  C   UNL     1       9.246  16.477  17.484  0.00  0.00    +0.000 C 
ATOM     25  C   UNL     1       8.974  15.210  18.342  0.00  0.00    +0.000 C 
ATOM     26  C   UNL     1       7.531  14.767  17.993  0.00  0.00    +0.000 C 
ATOM     27  C   UNL     1       9.007  15.592  19.837  0.00  0.00    +0.000 C 
ENDBRANCH  18  19
ENDBRANCH   2  17
TORSDOF 7
ENDMDL
MODEL 2
REMARK VINA RESULT:      -7.9      6.907      9.366
REMARK  Name = 
REMARK  14 active torsions:
REMARK  status: ('A' for Active; 'I' for Inactive)
REMARK    1  A    between atoms: C_1  and  C_2
REMARK    2  A    between atoms: C_2  and  C_4
REMARK    3  A    between atoms: C_4  and  C_25
REMARK    4  A    between atoms: C_5  and  C_6
REMARK    5  A    between atoms: C_7  and  C_8
REMARK    6  A    between atoms: C_7  and  C_9
REMARK    7  A    between atoms: C_10  and  C_11
REMARK    8  A    between atoms: C_12  and  C_13
REMARK    9  A    between atoms: C_12  and  C_14
REMARK   10  A    between atoms: C_15  and  C_16
REMARK   11  A    between atoms: C_17  and  C_18
REMARK   12  A    between atoms: C_22  and  C_23
REMARK   13  A    between atoms: C_22  and  C_24
REMARK   14  A    between atoms: C_25  and  C_26
REMARK                            x       y       z     vdW  Elec       q    Type
REMARK                         _______ _______ _______ _____ _____    ______ ____
ROOT
ATOM      1  C   UNL     1       1.302   8.973  19.361  0.00  0.00    +0.000 C 
ATOM      2  C   UNL     1       1.218  10.322  19.251  0.00  0.00    +0.000 C 
ATOM      3  C   UNL     1       1.910  11.122  18.172  0.00  0.00    +0.000 C 
ENDROOT
BRANCH   1   5
ATOM      4  C   UNL     1       2.631   6.952  18.773  0.00  0.00    +0.000 C 
ATOM      5  C   UNL     1       2.045   8.121  18.456  0.00  0.00    +0.000 C 
BRANCH   4   7
ATOM      6  C   UNL     1       4.294   6.700  17.044  0.00  0.00    +0.000 C 
ATOM      7  C   UNL     1       3.372   6.101  17.825  0.00  0.00    +0.000 C 
ATOM      8  C   UNL     1       3.050   4.623  17.810  0.00  0.00    +0.000 C 
BRANCH   6  10
ATOM      9  C   UNL     1       6.419   5.598  16.150  0.00  0.00    +0.000 C 
ATOM     10  C   UNL     1       5.170   6.118  16.042  0.00  0.00    +0.000 C 
BRANCH   9  12
ATOM     11  C   UNL     1       7.722   6.702  18.157  0.00  0.00    +0.000 C 
ATOM     12  C   UNL     1       7.257   5.487  17.401  0.00  0.00    +0.000 C 
ATOM     13  O   UNL     1       7.558   4.382  17.854  0.00  0.00    +0.000 OA
ENDBRANCH   9  12
BRANCH   9  14
ATOM     14  C   UNL     1       6.933   5.047  14.825  0.00  0.00    +0.000 C 
ATOM     15  C   UNL     1       6.208   3.957  14.070  0.00  0.00    +0.000 C 
ATOM     16  O   UNL     1       7.992   5.470  14.345  0.00  0.00    +0.000 OA
ENDBRANCH   9  14
ENDBRANCH   6  10
ENDBRANCH   4   7
ENDBRANCH   1   5
BRANCH   2  17
ATOM     17  C   UNL     1       0.438  11.096  20.229  0.00  0.00    +0.000 C 
ATOM     18  C   UNL     1      -0.908  11.117  20.295  0.00  0.00    +0.000 C 
BRANCH  18  19
ATOM     19  C   UNL     1      -1.708  11.911  21.226  0.00  0.00    +0.000 C 
ATOM     20  C   UNL     1      -1.760  11.615  22.549  0.00  0.00    +0.000 C 
ATOM     21  C   UNL     1      -0.950  10.539  23.235  0.00  0.00    +0.000 C 
ATOM     22  C   UNL     1      -2.626  12.387  23.523  0.00  0.00    +0.000 C 
ATOM     23  C   UNL     1      -3.634  13.318  22.864  0.00  0.00    +0.000 C 
ATOM     24  C   UNL     1      -2.967  14.087  21.736  0.00  0.00    +0.000 C 
ATOM     25  C   UNL     1      -2.421  13.150  20.624  0.00  0.00    +0.000 C 
ATOM     26  C   UNL     1      -1.475  14.024  19.763  0.00  0.00    +0.000 C 
ATOM     27  C   UNL     1      -3.591  12.689  19.729  0.00  0.00    +0.000 C 
ENDBRANCH  18  19
ENDBRANCH   2  17
TORSDOF 7
ENDMDL
MODEL 3
REMARK VINA RESULT:      -7.8      7.373      9.839
REMARK  Name = 
REMARK  14 active torsions:
REMARK  status: ('A' for Active; 'I' for Inactive)
REMARK    1  A    between atoms: C_1  and  C_2
REMARK    2  A    between atoms: C_2  and  C_4
REMARK    3  A    between atoms: C_4  and  C_25
REMARK    4  A    between atoms: C_5  and  C_6
REMARK    5  A    between atoms: C_7  and  C_8
REMARK    6  A    between atoms: C_7  and  C_9
REMARK    7  A    between atoms: C_10  and  C_11
REMARK    8  A    between atoms: C_12  and  C_13
REMARK    9  A    between atoms: C_12  and  C_14
REMARK   10  A    between atoms: C_15  and  C_16
REMARK   11  A    between atoms: C_17  and  C_18
REMARK   12  A    between atoms: C_22  and  C_23
REMARK   13  A    between atoms: C_22  and  C_24
REMARK   14  A    between atoms: C_25  and  C_26
REMARK                            x       y       z     vdW  Elec       q    Type
REMARK                         _______ _______ _______ _____ _____    ______ ____
ROOT
ATOM      1  C   UNL     1       0.840  10.067  18.884  0.00  0.00    +0.000 C 
ATOM      2  C   UNL     1      -0.401  10.533  18.594  0.00  0.00    +0.000 C 
ATOM      3  C   UNL     1      -1.264   9.987  17.482  0.00  0.00    +0.000 C 
ENDROOT
BRANCH   1   5
ATOM      4  C   UNL     1       2.283   8.045  18.735  0.00  0.00    +0.000 C 
ATOM      5  C   UNL     1       1.493   8.982  18.181  0.00  0.00    +0.000 C 
BRANCH   4   7
ATOM      6  C   UNL     1       4.060   7.226  17.325  0.00  0.00    +0.000 C 
ATOM      7  C   UNL     1       2.924   6.943  17.995  0.00  0.00    +0.000 C 
ATOM      8  C   UNL     1       2.266   5.583  18.052  0.00  0.00    +0.000 C 
BRANCH   6  10
ATOM      9  C   UNL     1       6.247   6.161  16.540  0.00  0.00    +0.000 C 
ATOM     10  C   UNL     1       4.903   6.349  16.531  0.00  0.00    +0.000 C 
BRANCH   9  12
ATOM     11  C   UNL     1       7.723   6.251  18.722  0.00  0.00    +0.000 C 
ATOM     12  C   UNL     1       7.259   6.851  17.423  0.00  0.00    +0.000 C 
ATOM     13  O   UNL     1       7.758   7.923  17.078  0.00  0.00    +0.000 OA
ENDBRANCH   9  12
BRANCH   9  14
ATOM     14  C   UNL     1       6.689   5.086  15.554  0.00  0.00    +0.000 C 
ATOM     15  C   UNL     1       5.970   3.762  15.430  0.00  0.00    +0.000 C 
ATOM     16  O   UNL     1       7.683   5.267  14.841  0.00  0.00    +0.000 OA
ENDBRANCH   9  14
ENDBRANCH   6  10
ENDBRANCH   4   7
ENDBRANCH   1   5
BRANCH   2  17
ATOM     17  C   UNL     1      -0.970  11.646  19.368  0.00  0.00    +0.000 C 
ATOM     18  C   UNL     1      -2.026  11.544  20.200  0.00  0.00    +0.000 C 
BRANCH  18  19
ATOM     19  C   UNL     1      -2.640  12.641  20.945  0.00  0.00    +0.000 C 
ATOM     20  C   UNL     1      -3.865  13.126  20.617  0.00  0.00    +0.000 C 
ATOM     21  C   UNL     1      -4.773  12.554  19.554  0.00  0.00    +0.000 C 
ATOM     22  C   UNL     1      -4.495  14.299  21.338  0.00  0.00    +0.000 C 
ATOM     23  C   UNL     1      -3.544  15.061  22.250  0.00  0.00    +0.000 C 
ATOM     24  C   UNL     1      -2.717  14.083  23.067  0.00  0.00    +0.000 C 
ATOM     25  C   UNL     1      -1.845  13.156  22.174  0.00  0.00    +0.000 C 
ATOM     26  C   UNL     1      -1.365  12.010  23.099  0.00  0.00    +0.000 C 
ATOM     27  C   UNL     1      -0.602  13.936  21.696  0.00  0.00    +0.000 C 
ENDBRANCH  18  19
ENDBRANCH   2  17
TORSDOF 7
ENDMDL
MODEL 4
REMARK VINA RESULT:      -7.8      7.024      9.371
REMARK  Name = 
REMARK  14 active torsions:
REMARK  status: ('A' for Active; 'I' for Inactive)
REMARK    1  A    between atoms: C_1  and  C_2
REMARK    2  A    between atoms: C_2  and  C_4
REMARK    3  A    between atoms: C_4  and  C_25
REMARK    4  A    between atoms: C_5  and  C_6
REMARK    5  A    between atoms: C_7  and  C_8
REMARK    6  A    between atoms: C_7  and  C_9
REMARK    7  A    between atoms: C_10  and  C_11
REMARK    8  A    between atoms: C_12  and  C_13
REMARK    9  A    between atoms: C_12  and  C_14
REMARK   10  A    between atoms: C_15  and  C_16
REMARK   11  A    between atoms: C_17  and  C_18
REMARK   12  A    between atoms: C_22  and  C_23
REMARK   13  A    between atoms: C_22  and  C_24
REMARK   14  A    between atoms: C_25  and  C_26
REMARK                            x       y       z     vdW  Elec       q    Type
REMARK                         _______ _______ _______ _____ _____    ______ ____
ROOT
ATOM      1  C   UNL     1       0.880   9.452  18.741  0.00  0.00    +0.000 C 
ATOM      2  C   UNL     1       1.070  10.794  18.687  0.00  0.00    +0.000 C 
ATOM      3  C   UNL     1       2.306  11.445  18.113  0.00  0.00    +0.000 C 
ENDROOT
BRANCH   1   5
ATOM      4  C   UNL     1       2.452   7.537  18.981  0.00  0.00    +0.000 C 
ATOM      5  C   UNL     1       1.821   8.470  18.244  0.00  0.00    +0.000 C 
BRANCH   4   7
ATOM      6  C   UNL     1       4.053   6.860  17.309  0.00  0.00    +0.000 C 
ATOM      7  C   UNL     1       3.397   6.542  18.444  0.00  0.00    +0.000 C 
ATOM      8  C   UNL     1       3.566   5.250  19.211  0.00  0.00    +0.000 C 
BRANCH   6  10
ATOM      9  C   UNL     1       6.394   6.100  16.622  0.00  0.00    +0.000 C 
ATOM     10  C   UNL     1       5.037   6.091  16.569  0.00  0.00    +0.000 C 
BRANCH   9  12
ATOM     11  C   UNL     1       7.852   6.434  18.792  0.00  0.00    +0.000 C 
ATOM     12  C   UNL     1       7.267   6.956  17.508  0.00  0.00    +0.000 C 
ATOM     13  O   UNL     1       7.550   8.108  17.177  0.00  0.00    +0.000 OA
ENDBRANCH   9  12
BRANCH   9  14
ATOM     14  C   UNL     1       7.017   5.071  15.686  0.00  0.00    +0.000 C 
ATOM     15  C   UNL     1       6.525   4.867  14.271  0.00  0.00    +0.000 C 
ATOM     16  O   UNL     1       7.939   4.346  16.083  0.00  0.00    +0.000 OA
ENDBRANCH   9  14
ENDBRANCH   6  10
ENDBRANCH   4   7
ENDBRANCH   1   5
BRANCH   2  17
ATOM     17  C   UNL     1       0.050  11.706  19.226  0.00  0.00    +0.000 C 
ATOM     18  C   UNL     1      -0.884  11.365  20.137  0.00  0.00    +0.000 C 
BRANCH  18  19
ATOM     19  C   UNL     1      -1.935  12.238  20.654  0.00  0.00    +0.000 C 
ATOM     20  C   UNL     1      -3.063  12.493  19.942  0.00  0.00    +0.000 C 
ATOM     21  C   UNL     1      -3.423  11.852  18.623  0.00  0.00    +0.000 C 
ATOM     22  C   UNL     1      -4.139  13.438  20.432  0.00  0.00    +0.000 C 
ATOM     23  C   UNL     1      -3.731  14.287  21.628  0.00  0.00    +0.000 C 
ATOM     24  C   UNL     1      -3.018  13.425  22.656  0.00  0.00    +0.000 C 
ATOM     25  C   UNL     1      -1.720  12.785  22.090  0.00  0.00    +0.000 C 
ATOM     26  C   UNL     1      -1.322  11.678  23.098  0.00  0.00    +0.000 C 
ATOM     27  C   UNL     1      -0.597  13.843  22.077  0.00  0.00    +0.000 C 
ENDBRANCH  18  19
ENDBRANCH   2  17
TORSDOF 7
ENDMDL
MODEL 5
REMARK VINA RESULT:      -7.7      6.613      8.827
REMARK  Name = 
REMARK  14 active torsions:
REMARK  status: ('A' for Active; 'I' for Inactive)
REMARK    1  A    between atoms: C_1  and  C_2
REMARK    2  A    between atoms: C_2  and  C_4
REMARK    3  A    between atoms: C_4  and  C_25
REMARK    4  A    between atoms: C_5  and  C_6
REMARK    5  A    between atoms: C_7  and  C_8
REMARK    6  A    between atoms: C_7  and  C_9
REMARK    7  A    between atoms: C_10  and  C_11
REMARK    8  A    between atoms: C_12  and  C_13
REMARK    9  A    between atoms: C_12  and  C_14
REMARK   10  A    between atoms: C_15  and  C_16
REMARK   11  A    between atoms: C_17  and  C_18
REMARK   12  A    between atoms: C_22  and  C_23
REMARK   13  A    between atoms: C_22  and  C_24
REMARK   14  A    between atoms: C_25  and  C_26
REMARK                            x       y       z     vdW  Elec       q    Type
REMARK                         _______ _______ _______ _____ _____    ______ ____
ROOT
ATOM      1  C   UNL     1       1.388   9.147  19.073  0.00  0.00    +0.000 C 
ATOM      2  C   UNL     1       1.329  10.492  18.905  0.00  0.00    +0.000 C 
ATOM      3  C   UNL     1       2.247  11.265  17.988  0.00  0.00    +0.000 C 
ENDROOT
BRANCH   1   5
ATOM      4  C   UNL     1       2.684   7.042  18.784  0.00  0.00    +0.000 C 
ATOM      5  C   UNL     1       2.320   8.276  18.389  0.00  0.00    +0.000 C 
BRANCH   4   7
ATOM      6  C   UNL     1       4.098   6.620  16.877  0.00  0.00    +0.000 C 
ATOM      7  C   UNL     1       3.627   6.173  18.059  0.00  0.00    +0.000 C 
ATOM      8  C   UNL     1       4.001   4.855  18.699  0.00  0.00    +0.000 C 
BRANCH   6  10
ATOM      9  C   UNL     1       6.383   5.851  16.030  0.00  0.00    +0.000 C 
ATOM     10  C   UNL     1       5.035   5.991  15.962  0.00  0.00    +0.000 C 
BRANCH   9  12
ATOM     11  C   UNL     1       7.612   5.493  18.334  0.00  0.00    +0.000 C 
ATOM     12  C   UNL     1       7.297   6.337  17.130  0.00  0.00    +0.000 C 
ATOM     13  O   UNL     1       7.838   7.441  17.047  0.00  0.00    +0.000 OA
ENDBRANCH   9  12
BRANCH   9  14
ATOM     14  C   UNL     1       6.944   5.064  14.852  0.00  0.00    +0.000 C 
ATOM     15  C   UNL     1       6.226   3.869  14.266  0.00  0.00    +0.000 C 
ATOM     16  O   UNL     1       8.035   5.375  14.358  0.00  0.00    +0.000 OA
ENDBRANCH   9  14
ENDBRANCH   6  10
ENDBRANCH   4   7
ENDBRANCH   1   5
BRANCH   2  17
ATOM     17  C   UNL     1       0.345  11.288  19.654  0.00  0.00    +0.000 C 
ATOM     18  C   UNL     1       0.476  11.658  20.944  0.00  0.00    +0.000 C 
BRANCH  18  19
ATOM     19  C   UNL     1      -0.506  12.408  21.724  0.00  0.00    +0.000 C 
ATOM     20  C   UNL     1      -1.249  11.814  22.692  0.00  0.00    +0.000 C 
ATOM     21  C   UNL     1      -1.096  10.384  23.155  0.00  0.00    +0.000 C 
ATOM     22  C   UNL     1      -2.313  12.557  23.474  0.00  0.00    +0.000 C 
ATOM     23  C   UNL     1      -2.675  13.920  22.900  0.00  0.00    +0.000 C 
ATOM     24  C   UNL     1      -1.413  14.673  22.520  0.00  0.00    +0.000 C 
ATOM     25  C   UNL     1      -0.586  13.930  21.434  0.00  0.00    +0.000 C 
ATOM     26  C   UNL     1       0.806  14.610  21.425  0.00  0.00    +0.000 C 
ATOM     27  C   UNL     1      -1.238  14.159  20.054  0.00  0.00    +0.000 C 
ENDBRANCH  18  19
ENDBRANCH   2  17
TORSDOF 7
ENDMDL
MODEL 6
REMARK VINA RESULT:      -7.7      7.279      9.569
REMARK  Name = 
REMARK  14 active torsions:
REMARK  status: ('A' for Active; 'I' for Inactive)
REMARK    1  A    between atoms: C_1  and  C_2
REMARK    2  A    between atoms: C_2  and  C_4
REMARK    3  A    between atoms: C_4  and  C_25
REMARK    4  A    between atoms: C_5  and  C_6
REMARK    5  A    between atoms: C_7  and  C_8
REMARK    6  A    between atoms: C_7  and  C_9
REMARK    7  A    between atoms: C_10  and  C_11
REMARK    8  A    between atoms: C_12  and  C_13
REMARK    9  A    between atoms: C_12  and  C_14
REMARK   10  A    between atoms: C_15  and  C_16
REMARK   11  A    between atoms: C_17  and  C_18
REMARK   12  A    between atoms: C_22  and  C_23
REMARK   13  A    between atoms: C_22  and  C_24
REMARK   14  A    between atoms: C_25  and  C_26
REMARK                            x       y       z     vdW  Elec       q    Type
REMARK                         _______ _______ _______ _____ _____    ______ ____
ROOT
ATOM      1  C   UNL     1       0.963   9.993  19.382  0.00  0.00    +0.000 C 
ATOM      2  C   UNL     1      -0.249  10.552  19.142  0.00  0.00    +0.000 C 
ATOM      3  C   UNL     1      -1.131  10.176  17.974  0.00  0.00    +0.000 C 
ENDROOT
BRANCH   1   5
ATOM      4  C   UNL     1       2.263   7.901  19.021  0.00  0.00    +0.000 C 
ATOM      5  C   UNL     1       1.564   8.957  18.567  0.00  0.00    +0.000 C 
BRANCH   4   7
ATOM      6  C   UNL     1       3.986   7.162  17.505  0.00  0.00    +0.000 C 
ATOM      7  C   UNL     1       2.852   6.855  18.168  0.00  0.00    +0.000 C 
ATOM      8  C   UNL     1       2.148   5.517  18.109  0.00  0.00    +0.000 C 
BRANCH   6  10
ATOM      9  C   UNL     1       6.126   6.148  16.544  0.00  0.00    +0.000 C 
ATOM     10  C   UNL     1       4.784   6.338  16.614  0.00  0.00    +0.000 C 
BRANCH   9  12
ATOM     11  C   UNL     1       7.650   6.131  18.694  0.00  0.00    +0.000 C 
ATOM     12  C   UNL     1       7.184   6.778  17.419  0.00  0.00    +0.000 C 
ATOM     13  O   UNL     1       7.719   7.836  17.085  0.00  0.00    +0.000 OA
ENDBRANCH   9  12
BRANCH   9  14
ATOM     14  C   UNL     1       6.513   5.139  15.470  0.00  0.00    +0.000 C 
ATOM     15  C   UNL     1       5.670   3.921  15.167  0.00  0.00    +0.000 C 
ATOM     16  O   UNL     1       7.562   5.283  14.829  0.00  0.00    +0.000 OA
ENDBRANCH   9  14
ENDBRANCH   6  10
ENDBRANCH   4   7
ENDBRANCH   1   5
BRANCH   2  17
ATOM     17  C   UNL     1      -0.766  11.603  20.031  0.00  0.00    +0.000 C 
ATOM     18  C   UNL     1      -1.706  12.507  19.688  0.00  0.00    +0.000 C 
BRANCH  18  19
ATOM     19  C   UNL     1      -2.204  13.589  20.535  0.00  0.00    +0.000 C 
ATOM     20  C   UNL     1      -1.620  14.814  20.542  0.00  0.00    +0.000 C 
ATOM     21  C   UNL     1      -0.491  15.246  19.635  0.00  0.00    +0.000 C 
ATOM     22  C   UNL     1      -2.082  15.931  21.453  0.00  0.00    +0.000 C 
ATOM     23  C   UNL     1      -3.048  15.493  22.545  0.00  0.00    +0.000 C 
ATOM     24  C   UNL     1      -4.101  14.566  21.962  0.00  0.00    +0.000 C 
ATOM     25  C   UNL     1      -3.482  13.275  21.357  0.00  0.00    +0.000 C 
ATOM     26  C   UNL     1      -4.601  12.632  20.500  0.00  0.00    +0.000 C 
ATOM     27  C   UNL     1      -3.134  12.296  22.499  0.00  0.00    +0.000 C 
ENDBRANCH  18  19
ENDBRANCH   2  17
TORSDOF 7
ENDMDL
MODEL 7
REMARK VINA RESULT:      -7.6      8.044     12.312
REMARK  Name = 
REMARK  14 active torsions:
REMARK  status: ('A' for Active; 'I' for Inactive)
REMARK    1  A    between atoms: C_1  and  C_2
REMARK    2  A    between atoms: C_2  and  C_4
REMARK    3  A    between atoms: C_4  and  C_25
REMARK    4  A    between atoms: C_5  and  C_6
REMARK    5  A    between atoms: C_7  and  C_8
REMARK    6  A    between atoms: C_7  and  C_9
REMARK    7  A    between atoms: C_10  and  C_11
REMARK    8  A    between atoms: C_12  and  C_13
REMARK    9  A    between atoms: C_12  and  C_14
REMARK   10  A    between atoms: C_15  and  C_16
REMARK   11  A    between atoms: C_17  and  C_18
REMARK   12  A    between atoms: C_22  and  C_23
REMARK   13  A    between atoms: C_22  and  C_24
REMARK   14  A    between atoms: C_25  and  C_26
REMARK                            x       y       z     vdW  Elec       q    Type
REMARK                         _______ _______ _______ _____ _____    ______ ____
ROOT
ATOM      1  C   UNL     1       1.448   8.430  21.053  0.00  0.00    +0.000 C 
ATOM      2  C   UNL     1       1.864   8.001  19.835  0.00  0.00    +0.000 C 
ATOM      3  C   UNL     1       1.747   8.820  18.572  0.00  0.00    +0.000 C 
ENDROOT
BRANCH   1   5
ATOM      4  C   UNL     1      -0.416  10.080  21.042  0.00  0.00    +0.000 C 
ATOM      5  C   UNL     1       0.855   9.726  21.307  0.00  0.00    +0.000 C 
BRANCH   4   7
ATOM      6  C   UNL     1      -0.856  11.888  22.575  0.00  0.00    +0.000 C 
ATOM      7  C   UNL     1      -0.995  11.405  21.323  0.00  0.00    +0.000 C 
ATOM      8  C   UNL     1      -1.688  12.124  20.187  0.00  0.00    +0.000 C 
BRANCH   6  10
ATOM      9  C   UNL     1      -2.531  13.542  23.568  0.00  0.00    +0.000 C 
ATOM     10  C   UNL     1      -1.308  13.152  23.129  0.00  0.00    +0.000 C 
BRANCH   9  12
ATOM     11  C   UNL     1      -4.489  12.362  24.879  0.00  0.00    +0.000 C 
ATOM     12  C   UNL     1      -3.798  12.719  23.592  0.00  0.00    +0.000 C 
ATOM     13  O   UNL     1      -4.317  12.343  22.540  0.00  0.00    +0.000 OA
ENDBRANCH   9  12
BRANCH   9  14
ATOM     14  C   UNL     1      -2.524  14.963  24.121  0.00  0.00    +0.000 C 
ATOM     15  C   UNL     1      -2.073  15.276  25.530  0.00  0.00    +0.000 C 
ATOM     16  O   UNL     1      -2.921  15.904  23.424  0.00  0.00    +0.000 OA
ENDBRANCH   9  14
ENDBRANCH   6  10
ENDBRANCH   4   7
ENDBRANCH   1   5
BRANCH   2  17
ATOM     17  C   UNL     1       2.450   6.660  19.685  0.00  0.00    +0.000 C 
ATOM     18  C   UNL     1       2.203   5.824  18.657  0.00  0.00    +0.000 C 
BRANCH  18  19
ATOM     19  C   UNL     1       2.735   4.471  18.506  0.00  0.00    +0.000 C 
ATOM     20  C   UNL     1       3.754   4.199  17.652  0.00  0.00    +0.000 C 
ATOM     21  C   UNL     1       4.520   5.227  16.853  0.00  0.00    +0.000 C 
ATOM     22  C   UNL     1       4.284   2.797  17.437  0.00  0.00    +0.000 C 
ATOM     23  C   UNL     1       3.410   1.699  18.026  0.00  0.00    +0.000 C 
ATOM     24  C   UNL     1       2.966   2.086  19.426  0.00  0.00    +0.000 C 
ATOM     25  C   UNL     1       2.123   3.392  19.437  0.00  0.00    +0.000 C 
ATOM     26  C   UNL     1       2.065   3.843  20.918  0.00  0.00    +0.000 C 
ATOM     27  C   UNL     1       0.684   3.071  18.980  0.00  0.00    +0.000 C 
ENDBRANCH  18  19
ENDBRANCH   2  17
TORSDOF 7
ENDMDL
MODEL 8
REMARK VINA RESULT:      -7.5      1.616      2.212
REMARK  Name = 
REMARK  14 active torsions:
REMARK  status: ('A' for Active; 'I' for Inactive)
REMARK    1  A    between atoms: C_1  and  C_2
REMARK    2  A    between atoms: C_2  and  C_4
REMARK    3  A    between atoms: C_4  and  C_25
REMARK    4  A    between atoms: C_5  and  C_6
REMARK    5  A    between atoms: C_7  and  C_8
REMARK    6  A    between atoms: C_7  and  C_9
REMARK    7  A    between atoms: C_10  and  C_11
REMARK    8  A    between atoms: C_12  and  C_13
REMARK    9  A    between atoms: C_12  and  C_14
REMARK   10  A    between atoms: C_15  and  C_16
REMARK   11  A    between atoms: C_17  and  C_18
REMARK   12  A    between atoms: C_22  and  C_23
REMARK   13  A    between atoms: C_22  and  C_24
REMARK   14  A    between atoms: C_25  and  C_26
REMARK                            x       y       z     vdW  Elec       q    Type
REMARK                         _______ _______ _______ _____ _____    ______ ____
ROOT
ATOM      1  C   UNL     1       9.406  10.727  18.559  0.00  0.00    +0.000 C 
ATOM      2  C   UNL     1       9.643  11.551  19.610  0.00  0.00    +0.000 C 
ATOM      3  C   UNL     1       9.318  11.201  21.042  0.00  0.00    +0.000 C 
ENDROOT
BRANCH   1   5
ATOM      4  C   UNL     1       8.158   8.750  17.703  0.00  0.00    +0.000 C 
ATOM      5  C   UNL     1       8.829   9.403  18.669  0.00  0.00    +0.000 C 
BRANCH   4   7
ATOM      6  C   UNL     1       6.616   7.043  16.981  0.00  0.00    +0.000 C 
ATOM      7  C   UNL     1       7.593   7.397  17.841  0.00  0.00    +0.000 C 
ATOM      8  C   UNL     1       8.157   6.508  18.927  0.00  0.00    +0.000 C 
BRANCH   6  10
ATOM      9  C   UNL     1       4.754   5.366  17.482  0.00  0.00    +0.000 C 
ATOM     10  C   UNL     1       5.893   5.788  16.876  0.00  0.00    +0.000 C 
BRANCH   9  12
ATOM     11  C   UNL     1       2.959   7.215  18.033  0.00  0.00    +0.000 C 
ATOM     12  C   UNL     1       3.908   6.133  18.470  0.00  0.00    +0.000 C 
ATOM     13  O   UNL     1       3.954   5.864  19.671  0.00  0.00    +0.000 OA
ENDBRANCH   9  12
BRANCH   9  14
ATOM     14  C   UNL     1       4.333   3.975  17.021  0.00  0.00    +0.000 C 
ATOM     15  C   UNL     1       3.544   3.039  17.908  0.00  0.00    +0.000 C 
ATOM     16  O   UNL     1       4.659   3.565  15.901  0.00  0.00    +0.000 OA
ENDBRANCH   9  14
ENDBRANCH   6  10
ENDBRANCH   4   7
ENDBRANCH   1   5
BRANCH   2  17
ATOM     17  C   UNL     1      10.229  12.881  19.387  0.00  0.00    +0.000 C 
ATOM     18  C   UNL     1       9.792  13.773  18.475  0.00  0.00    +0.000 C 
BRANCH  18  19
ATOM     19  C   UNL     1      10.384  15.081  18.202  0.00  0.00    +0.000 C 
ATOM     20  C   UNL     1      11.557  15.204  17.531  0.00  0.00    +0.000 C 
ATOM     21  C   UNL     1      12.327  14.065  16.904  0.00  0.00    +0.000 C 
ATOM     22  C   UNL     1      12.219  16.544  17.287  0.00  0.00    +0.000 C 
ATOM     23  C   UNL     1      11.623  17.693  18.088  0.00  0.00    +0.000 C 
ATOM     24  C   UNL     1      10.106  17.626  18.038  0.00  0.00    +0.000 C 
ATOM     25  C   UNL     1       9.552  16.310  18.652  0.00  0.00    +0.000 C 
ATOM     26  C   UNL     1       8.072  16.227  18.204  0.00  0.00    +0.000 C 
ATOM     27  C   UNL     1       9.579  16.418  20.191  0.00  0.00    +0.000 C 
ENDBRANCH  18  19
ENDBRANCH   2  17
TORSDOF 7
ENDMDL
MODEL 9
REMARK VINA RESULT:      -7.5      1.165      1.252
REMARK  Name = 
REMARK  14 active torsions:
REMARK  status: ('A' for Active; 'I' for Inactive)
REMARK    1  A    between atoms: C_1  and  C_2
REMARK    2  A    between atoms: C_2  and  C_4
REMARK    3  A    between atoms: C_4  and  C_25
REMARK    4  A    between atoms: C_5  and  C_6
REMARK    5  A    between atoms: C_7  and  C_8
REMARK    6  A    between atoms: C_7  and  C_9
REMARK    7  A    between atoms: C_10  and  C_11
REMARK    8  A    between atoms: C_12  and  C_13
REMARK    9  A    between atoms: C_12  and  C_14
REMARK   10  A    between atoms: C_15  and  C_16
REMARK   11  A    between atoms: C_17  and  C_18
REMARK   12  A    between atoms: C_22  and  C_23
REMARK   13  A    between atoms: C_22  and  C_24
REMARK   14  A    between atoms: C_25  and  C_26
REMARK                            x       y       z     vdW  Elec       q    Type
REMARK                         _______ _______ _______ _____ _____    ______ ____
ROOT
ATOM      1  C   UNL     1       8.631   9.896  18.115  0.00  0.00    +0.000 C 
ATOM      2  C   UNL     1       9.054  10.605  19.191  0.00  0.00    +0.000 C 
ATOM      3  C   UNL     1       9.129  10.042  20.591  0.00  0.00    +0.000 C 
ENDROOT
BRANCH   1   5
ATOM      4  C   UNL     1       7.323   7.926  17.337  0.00  0.00    +0.000 C 
ATOM      5  C   UNL     1       8.214   8.509  18.159  0.00  0.00    +0.000 C 
BRANCH   4   7
ATOM      6  C   UNL     1       6.277   6.094  18.505  0.00  0.00    +0.000 C 
ATOM      7  C   UNL     1       6.928   6.508  17.398  0.00  0.00    +0.000 C 
ATOM      8  C   UNL     1       7.271   5.631  16.215  0.00  0.00    +0.000 C 
BRANCH   6  10
ATOM      9  C   UNL     1       4.507   4.363  19.138  0.00  0.00    +0.000 C 
ATOM     10  C   UNL     1       5.763   4.776  18.832  0.00  0.00    +0.000 C 
BRANCH   9  12
ATOM     11  C   UNL     1       2.609   5.791  17.995  0.00  0.00    +0.000 C 
ATOM     12  C   UNL     1       3.261   5.213  19.221  0.00  0.00    +0.000 C 
ATOM     13  O   UNL     1       2.726   5.429  20.309  0.00  0.00    +0.000 OA
ENDBRANCH   9  12
BRANCH   9  14
ATOM     14  C   UNL     1       4.429   2.857  19.360  0.00  0.00    +0.000 C 
ATOM     15  C   UNL     1       3.543   1.964  18.523  0.00  0.00    +0.000 C 
ATOM     16  O   UNL     1       5.082   2.328  20.268  0.00  0.00    +0.000 OA
ENDBRANCH   9  14
ENDBRANCH   6  10
ENDBRANCH   4   7
ENDBRANCH   1   5
BRANCH   2  17
ATOM     17  C   UNL     1       9.452  12.012  19.038  0.00  0.00    +0.000 C 
ATOM     18  C   UNL     1       9.366  12.716  17.891  0.00  0.00    +0.000 C 
BRANCH  18  19
ATOM     19  C   UNL     1       9.797  14.099  17.700  0.00  0.00    +0.000 C 
ATOM     20  C   UNL     1      10.961  14.402  17.072  0.00  0.00    +0.000 C 
ATOM     21  C   UNL     1      11.882  13.401  16.413  0.00  0.00    +0.000 C 
ATOM     22  C   UNL     1      11.455  15.824  16.913  0.00  0.00    +0.000 C 
ATOM     23  C   UNL     1      10.701  16.847  17.751  0.00  0.00    +0.000 C 
ATOM     24  C   UNL     1       9.206  16.596  17.652  0.00  0.00    +0.000 C 
ATOM     25  C   UNL     1       8.807  15.191  18.184  0.00  0.00    +0.000 C 
ATOM     26  C   UNL     1       7.360  14.949  17.688  0.00  0.00    +0.000 C 
ATOM     27  C   UNL     1       8.784  15.221  19.727  0.00  0.00    +0.000 C 
ENDBRANCH  18  19
ENDBRANCH   2  17
TORSDOF 7
ENDMDL
