MODEL 1
REMARK VINA RESULT:      -5.7      0.000      0.000
REMARK  Name = 
REMARK  11 active torsions:
REMARK  status: ('A' for Active; 'I' for Inactive)
REMARK    1  A    between atoms: C_1  and  N_2
REMARK    2  A    between atoms: N_2  and  C_3
REMARK    3  A    between atoms: N_2  and  C_4
REMARK    4  A    between atoms: C_4  and  C_5
REMARK    5  A    between atoms: C_5  and  C_6
REMARK    6  A    between atoms: C_6  and  O_7
REMARK    7  A    between atoms: O_7  and  C_8
REMARK    8  A    between atoms: C_13  and  C_14
REMARK    9  A    between atoms: C_14  and  N_16
REMARK   10  A    between atoms: N_16  and  C_17
REMARK   11  A    between atoms: N_16  and  C_18
REMARK                            x       y       z     vdW  Elec       q    Type
REMARK                         _______ _______ _______ _____ _____    ______ ____
ROOT
ATOM      1  C   UNL     1       6.596   5.497  16.717  0.00  0.00    +0.000 A 
ATOM      2  N   UNL     1       7.451   5.618  15.664  0.00  0.00    +0.000 NA
ATOM      3  C   UNL     1       7.166   5.034  14.516  0.00  0.00    +0.000 A 
ATOM      4  C   UNL     1       6.045   4.233  14.357  0.00  0.00    +0.000 A 
ATOM      5  C   UNL     1       5.183   4.094  15.456  0.00  0.00    +0.000 A 
ATOM      6  C   UNL     1       5.417   4.710  16.692  0.00  0.00    +0.000 A 
ENDROOT
BRANCH   6   7
ATOM      7  C   UNL     1       4.406   4.639  17.852  0.00  0.00    +0.000 C 
ATOM      8  S   UNL     1       4.764   3.736  19.256  0.00  0.00    +0.000 S 
BRANCH   7   9
ATOM      9  N   UNL     1       3.163   5.361  17.779  0.00  0.00    +0.000 N 
ATOM     10  C   UNL     1       3.059   6.782  18.174  0.00  0.00    +0.000 C 
ATOM     11  C   UNL     1       1.892   4.685  17.981  0.00  0.00    +0.000 C 
ENDBRANCH   7   9
ENDBRANCH   6   7
BRANCH   1  12
ATOM     12  O   UNL     1       6.896   6.274  17.795  0.00  0.00    +0.000 OA
BRANCH  12  13
ATOM     13  C   UNL     1       7.035   7.654  17.454  0.00  0.00    +0.000 C 
BRANCH  13  14
ATOM     14  C   UNL     1       8.334   8.213  18.015  0.00  0.00    +0.000 C 
BRANCH  14  15
ATOM     15  C   UNL     1       8.319   9.742  18.132  0.00  0.00    +0.000 C 
BRANCH  15  17
ATOM     16  C   UNL     1      10.173  11.262  17.890  0.00  0.00    +0.000 C 
ATOM     17  N   UNL     1       9.540  10.278  18.765  0.00  0.00    +0.000 NA
ATOM     18  C   UNL     1       9.251  10.874  20.069  0.00  0.00    +0.000 C 
ENDBRANCH  15  17
ENDBRANCH  14  15
ENDBRANCH  13  14
ENDBRANCH  12  13
ENDBRANCH   1  12
TORSDOF 7
ENDMDL
MODEL 2
REMARK VINA RESULT:      -5.6      2.637      4.409
REMARK  Name = 
REMARK  11 active torsions:
REMARK  status: ('A' for Active; 'I' for Inactive)
REMARK    1  A    between atoms: C_1  and  N_2
REMARK    2  A    between atoms: N_2  and  C_3
REMARK    3  A    between atoms: N_2  and  C_4
REMARK    4  A    between atoms: C_4  and  C_5
REMARK    5  A    between atoms: C_5  and  C_6
REMARK    6  A    between atoms: C_6  and  O_7
REMARK    7  A    between atoms: O_7  and  C_8
REMARK    8  A    between atoms: C_13  and  C_14
REMARK    9  A    between atoms: C_14  and  N_16
REMARK   10  A    between atoms: N_16  and  C_17
REMARK   11  A    between atoms: N_16  and  C_18
REMARK                            x       y       z     vdW  Elec       q    Type
REMARK                         _______ _______ _______ _____ _____    ______ ____
ROOT
ATOM      1  C   UNL     1       3.904   5.381  17.506  0.00  0.00    +0.000 A 
ATOM      2  N   UNL     1       4.042   6.694  17.170  0.00  0.00    +0.000 NA
ATOM      3  C   UNL     1       3.359   7.614  17.822  0.00  0.00    +0.000 A 
ATOM      4  C   UNL     1       2.439   7.287  18.807  0.00  0.00    +0.000 A 
ATOM      5  C   UNL     1       2.286   5.929  19.129  0.00  0.00    +0.000 A 
ATOM      6  C   UNL     1       3.002   4.908  18.492  0.00  0.00    +0.000 A 
ENDROOT
BRANCH   6   7
ATOM      7  C   UNL     1       2.904   3.435  18.932  0.00  0.00    +0.000 C 
ATOM      8  S   UNL     1       2.283   2.254  17.868  0.00  0.00    +0.000 S 
BRANCH   7   9
ATOM      9  N   UNL     1       3.368   3.034  20.235  0.00  0.00    +0.000 N 
ATOM     10  C   UNL     1       4.517   2.119  20.409  0.00  0.00    +0.000 C 
ATOM     11  C   UNL     1       2.445   2.906  21.351  0.00  0.00    +0.000 C 
ENDBRANCH   7   9
ENDBRANCH   6   7
BRANCH   1  12
ATOM     12  O   UNL     1       4.776   4.534  16.892  0.00  0.00    +0.000 OA
BRANCH  12  13
ATOM     13  C   UNL     1       5.332   5.089  15.700  0.00  0.00    +0.000 C 
BRANCH  13  14
ATOM     14  C   UNL     1       6.850   5.130  15.788  0.00  0.00    +0.000 C 
BRANCH  14  15
ATOM     15  C   UNL     1       7.379   4.609  17.130  0.00  0.00    +0.000 C 
BRANCH  15  17
ATOM     16  C   UNL     1       7.557   6.995  17.420  0.00  0.00    +0.000 C 
ATOM     17  N   UNL     1       7.825   5.694  18.027  0.00  0.00    +0.000 NA
ATOM     18  C   UNL     1       7.180   5.605  19.337  0.00  0.00    +0.000 C 
ENDBRANCH  15  17
ENDBRANCH  14  15
ENDBRANCH  13  14
ENDBRANCH  12  13
ENDBRANCH   1  12
TORSDOF 7
ENDMDL
MODEL 3
REMARK VINA RESULT:      -5.5      2.639      6.924
REMARK  Name = 
REMARK  11 active torsions:
REMARK  status: ('A' for Active; 'I' for Inactive)
REMARK    1  A    between atoms: C_1  and  N_2
REMARK    2  A    between atoms: N_2  and  C_3
REMARK    3  A    between atoms: N_2  and  C_4
REMARK    4  A    between atoms: C_4  and  C_5
REMARK    5  A    between atoms: C_5  and  C_6
REMARK    6  A    between atoms: C_6  and  O_7
REMARK    7  A    between atoms: O_7  and  C_8
REMARK    8  A    between atoms: C_13  and  C_14
REMARK    9  A    between atoms: C_14  and  N_16
REMARK   10  A    between atoms: N_16  and  C_17
REMARK   11  A    between atoms: N_16  and  C_18
REMARK                            x       y       z     vdW  Elec       q    Type
REMARK                         _______ _______ _______ _____ _____    ______ ____
ROOT
ATOM      1  C   UNL     1       4.112   5.349  18.169  0.00  0.00    +0.000 A 
ATOM      2  N   UNL     1       2.824   5.557  18.560  0.00  0.00    +0.000 NA
ATOM      3  C   UNL     1       2.231   6.703  18.284  0.00  0.00    +0.000 A 
ATOM      4  C   UNL     1       2.900   7.746  17.662  0.00  0.00    +0.000 A 
ATOM      5  C   UNL     1       4.235   7.530  17.286  0.00  0.00    +0.000 A 
ATOM      6  C   UNL     1       4.911   6.327  17.526  0.00  0.00    +0.000 A 
ENDROOT
BRANCH   6   7
ATOM      7  C   UNL     1       6.338   6.066  17.007  0.00  0.00    +0.000 C 
ATOM      8  S   UNL     1       6.588   5.155  15.586  0.00  0.00    +0.000 S 
BRANCH   7   9
ATOM      9  N   UNL     1       7.475   6.618  17.698  0.00  0.00    +0.000 N 
ATOM     10  C   UNL     1       7.940   6.079  18.994  0.00  0.00    +0.000 C 
ATOM     11  C   UNL     1       7.802   8.031  17.589  0.00  0.00    +0.000 C 
ENDBRANCH   7   9
ENDBRANCH   6   7
BRANCH   1  12
ATOM     12  O   UNL     1       4.570   4.078  18.349  0.00  0.00    +0.000 OA
BRANCH  12  13
ATOM     13  C   UNL     1       3.915   3.134  17.502  0.00  0.00    +0.000 C 
BRANCH  13  14
ATOM     14  C   UNL     1       3.413   1.949  18.313  0.00  0.00    +0.000 C 
BRANCH  14  15
ATOM     15  C   UNL     1       3.181   2.297  19.788  0.00  0.00    +0.000 C 
BRANCH  15  17
ATOM     16  C   UNL     1       1.547   2.788  21.490  0.00  0.00    +0.000 C 
ATOM     17  N   UNL     1       1.769   2.152  20.194  0.00  0.00    +0.000 NA
ATOM     18  C   UNL     1       0.863   2.716  19.193  0.00  0.00    +0.000 C 
ENDBRANCH  15  17
ENDBRANCH  14  15
ENDBRANCH  13  14
ENDBRANCH  12  13
ENDBRANCH   1  12
TORSDOF 7
ENDMDL
MODEL 4
REMARK VINA RESULT:      -5.5      1.246      1.426
REMARK  Name = 
REMARK  11 active torsions:
REMARK  status: ('A' for Active; 'I' for Inactive)
REMARK    1  A    between atoms: C_1  and  N_2
REMARK    2  A    between atoms: N_2  and  C_3
REMARK    3  A    between atoms: N_2  and  C_4
REMARK    4  A    between atoms: C_4  and  C_5
REMARK    5  A    between atoms: C_5  and  C_6
REMARK    6  A    between atoms: C_6  and  O_7
REMARK    7  A    between atoms: O_7  and  C_8
REMARK    8  A    between atoms: C_13  and  C_14
REMARK    9  A    between atoms: C_14  and  N_16
REMARK   10  A    between atoms: N_16  and  C_17
REMARK   11  A    between atoms: N_16  and  C_18
REMARK                            x       y       z     vdW  Elec       q    Type
REMARK                         _______ _______ _______ _____ _____    ______ ____
ROOT
ATOM      1  C   UNL     1       6.431   5.810  16.840  0.00  0.00    +0.000 A 
ATOM      2  N   UNL     1       7.427   5.540  15.952  0.00  0.00    +0.000 NA
ATOM      3  C   UNL     1       7.171   4.823  14.875  0.00  0.00    +0.000 A 
ATOM      4  C   UNL     1       5.921   4.268  14.641  0.00  0.00    +0.000 A 
ATOM      5  C   UNL     1       4.908   4.533  15.575  0.00  0.00    +0.000 A 
ATOM      6  C   UNL     1       5.111   5.308  16.724  0.00  0.00    +0.000 A 
ENDROOT
BRANCH   6   7
ATOM      7  C   UNL     1       3.961   5.681  17.679  0.00  0.00    +0.000 C 
ATOM      8  S   UNL     1       3.382   7.285  17.750  0.00  0.00    +0.000 S 
BRANCH   7   9
ATOM      9  N   UNL     1       3.340   4.673  18.498  0.00  0.00    +0.000 N 
ATOM     10  C   UNL     1       2.248   3.815  17.990  0.00  0.00    +0.000 C 
ATOM     11  C   UNL     1       3.219   4.848  19.936  0.00  0.00    +0.000 C 
ENDBRANCH   7   9
ENDBRANCH   6   7
BRANCH   1  12
ATOM     12  O   UNL     1       6.759   6.696  17.822  0.00  0.00    +0.000 OA
BRANCH  12  13
ATOM     13  C   UNL     1       7.440   7.845  17.319  0.00  0.00    +0.000 C 
BRANCH  13  14
ATOM     14  C   UNL     1       8.389   8.404  18.368  0.00  0.00    +0.000 C 
BRANCH  14  15
ATOM     15  C   UNL     1       8.564   9.924  18.260  0.00  0.00    +0.000 C 
BRANCH  15  17
ATOM     16  C   UNL     1      10.405  11.478  18.251  0.00  0.00    +0.000 C 
ATOM     17  N   UNL     1       9.739  10.418  19.003  0.00  0.00    +0.000 NA
ATOM     18  C   UNL     1       9.368  10.900  20.334  0.00  0.00    +0.000 C 
ENDBRANCH  15  17
ENDBRANCH  14  15
ENDBRANCH  13  14
ENDBRANCH  12  13
ENDBRANCH   1  12
TORSDOF 7
ENDMDL
MODEL 5
REMARK VINA RESULT:      -5.4      3.791      5.913
REMARK  Name = 
REMARK  11 active torsions:
REMARK  status: ('A' for Active; 'I' for Inactive)
REMARK    1  A    between atoms: C_1  and  N_2
REMARK    2  A    between atoms: N_2  and  C_3
REMARK    3  A    between atoms: N_2  and  C_4
REMARK    4  A    between atoms: C_4  and  C_5
REMARK    5  A    between atoms: C_5  and  C_6
REMARK    6  A    between atoms: C_6  and  O_7
REMARK    7  A    between atoms: O_7  and  C_8
REMARK    8  A    between atoms: C_13  and  C_14
REMARK    9  A    between atoms: C_14  and  N_16
REMARK   10  A    between atoms: N_16  and  C_17
REMARK   11  A    between atoms: N_16  and  C_18
REMARK                            x       y       z     vdW  Elec       q    Type
REMARK                         _______ _______ _______ _____ _____    ______ ____
ROOT
ATOM      1  C   UNL     1       2.713   4.677  17.846  0.00  0.00    +0.000 A 
ATOM      2  N   UNL     1       1.519   4.199  18.296  0.00  0.00    +0.000 NA
ATOM      3  C   UNL     1       1.360   2.903  18.483  0.00  0.00    +0.000 A 
ATOM      4  C   UNL     1       2.354   1.987  18.171  0.00  0.00    +0.000 A 
ATOM      5  C   UNL     1       3.571   2.489  17.685  0.00  0.00    +0.000 A 
ATOM      6  C   UNL     1       3.811   3.855  17.490  0.00  0.00    +0.000 A 
ENDROOT
BRANCH   6   7
ATOM      7  C   UNL     1       5.188   4.396  17.062  0.00  0.00    +0.000 C 
ATOM      8  S   UNL     1       5.470   4.858  15.443  0.00  0.00    +0.000 S 
BRANCH   7   9
ATOM      9  N   UNL     1       6.241   4.552  18.032  0.00  0.00    +0.000 N 
ATOM     10  C   UNL     1       6.050   5.324  19.278  0.00  0.00    +0.000 C 
ATOM     11  C   UNL     1       7.635   4.589  17.621  0.00  0.00    +0.000 C 
ENDBRANCH   7   9
ENDBRANCH   6   7
BRANCH   1  12
ATOM     12  O   UNL     1       2.827   6.035  17.851  0.00  0.00    +0.000 OA
BRANCH  12  13
ATOM     13  C   UNL     1       2.552   6.604  19.131  0.00  0.00    +0.000 C 
BRANCH  13  14
ATOM     14  C   UNL     1       2.106   8.051  18.986  0.00  0.00    +0.000 C 
BRANCH  14  15
ATOM     15  C   UNL     1       1.413   8.586  20.245  0.00  0.00    +0.000 C 
BRANCH  15  17
ATOM     16  C   UNL     1       0.789  10.848  20.793  0.00  0.00    +0.000 C 
ATOM     17  N   UNL     1       0.479   9.692  19.956  0.00  0.00    +0.000 NA
ATOM     18  C   UNL     1       0.513  10.068  18.542  0.00  0.00    +0.000 C 
ENDBRANCH  15  17
ENDBRANCH  14  15
ENDBRANCH  13  14
ENDBRANCH  12  13
ENDBRANCH   1  12
TORSDOF 7
ENDMDL
MODEL 6
REMARK VINA RESULT:      -5.4      1.221      1.678
REMARK  Name = 
REMARK  11 active torsions:
REMARK  status: ('A' for Active; 'I' for Inactive)
REMARK    1  A    between atoms: C_1  and  N_2
REMARK    2  A    between atoms: N_2  and  C_3
REMARK    3  A    between atoms: N_2  and  C_4
REMARK    4  A    between atoms: C_4  and  C_5
REMARK    5  A    between atoms: C_5  and  C_6
REMARK    6  A    between atoms: C_6  and  O_7
REMARK    7  A    between atoms: O_7  and  C_8
REMARK    8  A    between atoms: C_13  and  C_14
REMARK    9  A    between atoms: C_14  and  N_16
REMARK   10  A    between atoms: N_16  and  C_17
REMARK   11  A    between atoms: N_16  and  C_18
REMARK                            x       y       z     vdW  Elec       q    Type
REMARK                         _______ _______ _______ _____ _____    ______ ____
ROOT
ATOM      1  C   UNL     1       6.332   5.718  16.845  0.00  0.00    +0.000 A 
ATOM      2  N   UNL     1       7.316   5.679  15.904  0.00  0.00    +0.000 NA
ATOM      3  C   UNL     1       7.183   4.904  14.845  0.00  0.00    +0.000 A 
ATOM      4  C   UNL     1       6.092   4.062  14.682  0.00  0.00    +0.000 A 
ATOM      5  C   UNL     1       5.096   4.092  15.670  0.00  0.00    +0.000 A 
ATOM      6  C   UNL     1       5.167   4.912  16.803  0.00  0.00    +0.000 A 
ENDROOT
BRANCH   6   7
ATOM      7  C   UNL     1       4.014   5.014  17.820  0.00  0.00    +0.000 C 
ATOM      8  S   UNL     1       3.285   6.522  18.151  0.00  0.00    +0.000 S 
BRANCH   7   9
ATOM      9  N   UNL     1       3.517   3.834  18.476  0.00  0.00    +0.000 N 
ATOM     10  C   UNL     1       4.390   2.966  19.295  0.00  0.00    +0.000 C 
ATOM     11  C   UNL     1       2.431   3.058  17.898  0.00  0.00    +0.000 C 
ENDBRANCH   7   9
ENDBRANCH   6   7
BRANCH   1  12
ATOM     12  O   UNL     1       6.490   6.672  17.804  0.00  0.00    +0.000 OA
BRANCH  12  13
ATOM     13  C   UNL     1       7.837   7.134  17.902  0.00  0.00    +0.000 C 
BRANCH  13  14
ATOM     14  C   UNL     1       7.887   8.653  17.827  0.00  0.00    +0.000 C 
BRANCH  14  15
ATOM     15  C   UNL     1       9.031   9.249  18.656  0.00  0.00    +0.000 C 
BRANCH  15  17
ATOM     16  C   UNL     1       9.267  11.025  20.268  0.00  0.00    +0.000 C 
ATOM     17  N   UNL     1       8.862  10.694  18.904  0.00  0.00    +0.000 NA
ATOM     18  C   UNL     1       9.622  11.496  17.944  0.00  0.00    +0.000 C 
ENDBRANCH  15  17
ENDBRANCH  14  15
ENDBRANCH  13  14
ENDBRANCH  12  13
ENDBRANCH   1  12
TORSDOF 7
ENDMDL
MODEL 7
REMARK VINA RESULT:      -5.3      3.429      7.101
REMARK  Name = 
REMARK  11 active torsions:
REMARK  status: ('A' for Active; 'I' for Inactive)
REMARK    1  A    between atoms: C_1  and  N_2
REMARK    2  A    between atoms: N_2  and  C_3
REMARK    3  A    between atoms: N_2  and  C_4
REMARK    4  A    between atoms: C_4  and  C_5
REMARK    5  A    between atoms: C_5  and  C_6
REMARK    6  A    between atoms: C_6  and  O_7
REMARK    7  A    between atoms: O_7  and  C_8
REMARK    8  A    between atoms: C_13  and  C_14
REMARK    9  A    between atoms: C_14  and  N_16
REMARK   10  A    between atoms: N_16  and  C_17
REMARK   11  A    between atoms: N_16  and  C_18
REMARK                            x       y       z     vdW  Elec       q    Type
REMARK                         _______ _______ _______ _____ _____    ______ ____
ROOT
ATOM      1  C   UNL     1       2.901   6.572  19.347  0.00  0.00    +0.000 A 
ATOM      2  N   UNL     1       1.908   7.409  19.757  0.00  0.00    +0.000 NA
ATOM      3  C   UNL     1       1.589   8.457  19.024  0.00  0.00    +0.000 A 
ATOM      4  C   UNL     1       2.281   8.785  17.868  0.00  0.00    +0.000 A 
ATOM      5  C   UNL     1       3.319   7.930  17.467  0.00  0.00    +0.000 A 
ATOM      6  C   UNL     1       3.688   6.787  18.188  0.00  0.00    +0.000 A 
ENDROOT
BRANCH   6   7
ATOM      7  C   UNL     1       4.754   5.799  17.676  0.00  0.00    +0.000 C 
ATOM      8  S   UNL     1       4.310   4.493  16.671  0.00  0.00    +0.000 S 
BRANCH   7   9
ATOM      9  N   UNL     1       6.141   5.987  18.013  0.00  0.00    +0.000 N 
ATOM     10  C   UNL     1       7.191   6.088  16.978  0.00  0.00    +0.000 C 
ATOM     11  C   UNL     1       6.692   5.440  19.243  0.00  0.00    +0.000 C 
ENDBRANCH   7   9
ENDBRANCH   6   7
BRANCH   1  12
ATOM     12  O   UNL     1       3.035   5.433  20.082  0.00  0.00    +0.000 OA
BRANCH  12  13
ATOM     13  C   UNL     1       1.918   5.199  20.940  0.00  0.00    +0.000 C 
BRANCH  13  14
ATOM     14  C   UNL     1       1.407   3.776  20.775  0.00  0.00    +0.000 C 
BRANCH  14  15
ATOM     15  C   UNL     1       2.532   2.772  20.493  0.00  0.00    +0.000 C 
BRANCH  15  17
ATOM     16  C   UNL     1       1.247   2.518  18.470  0.00  0.00    +0.000 C 
ATOM     17  N   UNL     1       2.239   1.895  19.343  0.00  0.00    +0.000 NA
ATOM     18  C   UNL     1       3.451   1.581  18.586  0.00  0.00    +0.000 C 
ENDBRANCH  15  17
ENDBRANCH  14  15
ENDBRANCH  13  14
ENDBRANCH  12  13
ENDBRANCH   1  12
TORSDOF 7
ENDMDL
MODEL 8
REMARK VINA RESULT:      -5.3      3.667      6.831
REMARK  Name = 
REMARK  11 active torsions:
REMARK  status: ('A' for Active; 'I' for Inactive)
REMARK    1  A    between atoms: C_1  and  N_2
REMARK    2  A    between atoms: N_2  and  C_3
REMARK    3  A    between atoms: N_2  and  C_4
REMARK    4  A    between atoms: C_4  and  C_5
REMARK    5  A    between atoms: C_5  and  C_6
REMARK    6  A    between atoms: C_6  and  O_7
REMARK    7  A    between atoms: O_7  and  C_8
REMARK    8  A    between atoms: C_13  and  C_14
REMARK    9  A    between atoms: C_14  and  N_16
REMARK   10  A    between atoms: N_16  and  C_17
REMARK   11  A    between atoms: N_16  and  C_18
REMARK                            x       y       z     vdW  Elec       q    Type
REMARK                         _______ _______ _______ _____ _____    ______ ____
ROOT
ATOM      1  C   UNL     1       3.598   5.906  19.299  0.00  0.00    +0.000 A 
ATOM      2  N   UNL     1       2.436   6.601  19.447  0.00  0.00    +0.000 NA
ATOM      3  C   UNL     1       2.142   7.575  18.609  0.00  0.00    +0.000 A 
ATOM      4  C   UNL     1       3.016   7.973  17.607  0.00  0.00    +0.000 A 
ATOM      5  C   UNL     1       4.222   7.266  17.479  0.00  0.00    +0.000 A 
ATOM      6  C   UNL     1       4.579   6.205  18.321  0.00  0.00    +0.000 A 
ENDROOT
BRANCH   6   7
ATOM      7  C   UNL     1       5.854   5.369  18.098  0.00  0.00    +0.000 C 
ATOM      8  S   UNL     1       7.149   5.455  19.207  0.00  0.00    +0.000 S 
BRANCH   7   9
ATOM      9  N   UNL     1       5.952   4.481  16.969  0.00  0.00    +0.000 N 
ATOM     10  C   UNL     1       6.956   4.679  15.902  0.00  0.00    +0.000 C 
ATOM     11  C   UNL     1       4.774   3.812  16.439  0.00  0.00    +0.000 C 
ENDBRANCH   7   9
ENDBRANCH   6   7
BRANCH   1  12
ATOM     12  O   UNL     1       3.724   4.815  20.106  0.00  0.00    +0.000 OA
BRANCH  12  13
ATOM     13  C   UNL     1       2.559   4.582  20.898  0.00  0.00    +0.000 C 
BRANCH  13  14
ATOM     14  C   UNL     1       2.040   3.169  20.681  0.00  0.00    +0.000 C 
BRANCH  14  15
ATOM     15  C   UNL     1       0.812   3.123  19.764  0.00  0.00    +0.000 C 
BRANCH  15  17
ATOM     16  C   UNL     1       1.302   3.935  17.548  0.00  0.00    +0.000 C 
ATOM     17  N   UNL     1       1.149   2.742  18.378  0.00  0.00    +0.000 NA
ATOM     18  C   UNL     1       2.366   1.932  18.325  0.00  0.00    +0.000 C 
ENDBRANCH  15  17
ENDBRANCH  14  15
ENDBRANCH  13  14
ENDBRANCH  12  13
ENDBRANCH   1  12
TORSDOF 7
ENDMDL
MODEL 9
REMARK VINA RESULT:      -5.3      2.969      6.901
REMARK  Name = 
REMARK  11 active torsions:
REMARK  status: ('A' for Active; 'I' for Inactive)
REMARK    1  A    between atoms: C_1  and  N_2
REMARK    2  A    between atoms: N_2  and  C_3
REMARK    3  A    between atoms: N_2  and  C_4
REMARK    4  A    between atoms: C_4  and  C_5
REMARK    5  A    between atoms: C_5  and  C_6
REMARK    6  A    between atoms: C_6  and  O_7
REMARK    7  A    between atoms: O_7  and  C_8
REMARK    8  A    between atoms: C_13  and  C_14
REMARK    9  A    between atoms: C_14  and  N_16
REMARK   10  A    between atoms: N_16  and  C_17
REMARK   11  A    between atoms: N_16  and  C_18
REMARK                            x       y       z     vdW  Elec       q    Type
REMARK                         _______ _______ _______ _____ _____    ______ ____
ROOT
ATOM      1  C   UNL     1       4.062   5.695  19.236  0.00  0.00    +0.000 A 
ATOM      2  N   UNL     1       2.948   6.039  19.940  0.00  0.00    +0.000 NA
ATOM      3  C   UNL     1       2.128   6.956  19.465  0.00  0.00    +0.000 A 
ATOM      4  C   UNL     1       2.395   7.644  18.290  0.00  0.00    +0.000 A 
ATOM      5  C   UNL     1       3.558   7.299  17.585  0.00  0.00    +0.000 A 
ATOM      6  C   UNL     1       4.454   6.315  18.024  0.00  0.00    +0.000 A 
ENDROOT
BRANCH   6   7
ATOM      7  C   UNL     1       5.666   5.871  17.183  0.00  0.00    +0.000 C 
ATOM      8  S   UNL     1       5.486   5.533  15.519  0.00  0.00    +0.000 S 
BRANCH   7   9
ATOM      9  N   UNL     1       6.970   5.769  17.784  0.00  0.00    +0.000 N 
ATOM     10  C   UNL     1       7.828   6.953  17.998  0.00  0.00    +0.000 C 
ATOM     11  C   UNL     1       7.785   4.578  17.604  0.00  0.00    +0.000 C 
ENDBRANCH   7   9
ENDBRANCH   6   7
BRANCH   1  12
ATOM     12  O   UNL     1       4.745   4.623  19.727  0.00  0.00    +0.000 OA
BRANCH  12  13
ATOM     13  C   UNL     1       4.477   3.423  19.002  0.00  0.00    +0.000 C 
BRANCH  13  14
ATOM     14  C   UNL     1       3.452   2.573  19.738  0.00  0.00    +0.000 C 
BRANCH  14  15
ATOM     15  C   UNL     1       2.413   1.952  18.797  0.00  0.00    +0.000 C 
BRANCH  15  17
ATOM     16  C   UNL     1       0.836   3.263  20.064  0.00  0.00    +0.000 C 
ATOM     17  N   UNL     1       1.156   2.725  18.744  0.00  0.00    +0.000 NA
ATOM     18  C   UNL     1       1.235   3.809  17.764  0.00  0.00    +0.000 C 
ENDBRANCH  15  17
ENDBRANCH  14  15
ENDBRANCH  13  14
ENDBRANCH  12  13
ENDBRANCH   1  12
TORSDOF 7
ENDMDL
