MODEL 1
REMARK VINA RESULT:      -7.2      0.000      0.000
REMARK  Name = 
REMARK  7 active torsions:
REMARK  status: ('A' for Active; 'I' for Inactive)
REMARK    1  A    between atoms: C_1  and  N_2
REMARK    2  A    between atoms: N_2  and  C_3
REMARK    3  A    between atoms: C_4  and  C_6
REMARK    4  A    between atoms: C_6  and  C_7
REMARK    5  A    between atoms: C_7  and  N_8
REMARK    6  A    between atoms: C_9  and  C_11
REMARK    7  A    between atoms: C_14  and  C_15
REMARK                            x       y       z     vdW  Elec       q    Type
REMARK                         _______ _______ _______ _____ _____    ______ ____
ROOT
ATOM      1  C   UNL     1       2.906   6.958  18.710  0.00  0.00    +0.000 A 
ATOM      2  C   UNL     1       2.781   7.830  17.643  0.00  0.00    +0.000 A 
ATOM      3  S   UNL     1       1.774   9.137  18.053  0.00  0.00    +0.000 S 
ATOM      4  C   UNL     1       1.598   8.507  19.653  0.00  0.00    +0.000 A 
ATOM      5  N   UNL     1       2.197   7.343  19.858  0.00  0.00    +0.000 NA
ENDROOT
BRANCH   4   6
ATOM      6  C   UNL     1       0.800   9.254  20.645  0.00  0.00    +0.000 A 
ATOM      7  C   UNL     1       0.536  10.622  20.454  0.00  0.00    +0.000 A 
ATOM      8  C   UNL     1      -0.200  11.348  21.399  0.00  0.00    +0.000 A 
ATOM      9  C   UNL     1      -0.686  10.709  22.534  0.00  0.00    +0.000 A 
ATOM     10  F   UNL     1      -1.385  11.405  23.440  0.00  0.00    +0.000 F 
ATOM     11  C   UNL     1      -0.458   9.358  22.742  0.00  0.00    +0.000 A 
ATOM     12  C   UNL     1       0.279   8.636  21.800  0.00  0.00    +0.000 A 
ENDBRANCH   4   6
BRANCH   1  14
ATOM     13  N   UNL     1       3.338   4.839  17.652  0.00  0.00    +0.000 N 
ATOM     14  C   UNL     1       3.724   5.741  18.625  0.00  0.00    +0.000 C 
ATOM     15  O   UNL     1       4.682   5.549  19.369  0.00  0.00    +0.000 OA
ATOM     16  H   UNL     1       2.536   5.088  17.082  0.00  0.00    +0.000 HD
BRANCH  13  17
ATOM     17  C   UNL     1       4.088   3.608  17.462  0.00  0.00    +0.000 C 
BRANCH  17  18
ATOM     18  C   UNL     1       3.366   2.357  17.956  0.00  0.00    +0.000 C 
BRANCH  18  22
ATOM     19  C   UNL     1       1.744   2.555  21.416  0.00  0.00    +0.000 C 
ATOM     20  N   UNL     1       1.914   2.534  19.971  0.00  0.00    +0.000 N 
ATOM     21  C   UNL     1       0.736   2.676  19.137  0.00  0.00    +0.000 C 
ATOM     22  C   UNL     1       3.205   2.377  19.474  0.00  0.00    +0.000 C 
ATOM     23  O   UNL     1       4.175   2.261  20.225  0.00  0.00    +0.000 OA
ENDBRANCH  18  22
ENDBRANCH  17  18
ENDBRANCH  13  17
ENDBRANCH   1  14
TORSDOF 5
ENDMDL
MODEL 2
REMARK VINA RESULT:      -7.2      1.019      1.544
REMARK  Name = 
REMARK  7 active torsions:
REMARK  status: ('A' for Active; 'I' for Inactive)
REMARK    1  A    between atoms: C_1  and  N_2
REMARK    2  A    between atoms: N_2  and  C_3
REMARK    3  A    between atoms: C_4  and  C_6
REMARK    4  A    between atoms: C_6  and  C_7
REMARK    5  A    between atoms: C_7  and  N_8
REMARK    6  A    between atoms: C_9  and  C_11
REMARK    7  A    between atoms: C_14  and  C_15
REMARK                            x       y       z     vdW  Elec       q    Type
REMARK                         _______ _______ _______ _____ _____    ______ ____
ROOT
ATOM      1  C   UNL     1       2.823   7.138  18.725  0.00  0.00    +0.000 A 
ATOM      2  C   UNL     1       2.676   8.033  17.680  0.00  0.00    +0.000 A 
ATOM      3  S   UNL     1       1.656   9.317  18.129  0.00  0.00    +0.000 S 
ATOM      4  C   UNL     1       1.504   8.647  19.715  0.00  0.00    +0.000 A 
ATOM      5  N   UNL     1       2.119   7.487  19.888  0.00  0.00    +0.000 NA
ENDROOT
BRANCH   4   6
ATOM      6  C   UNL     1       0.705   9.361  20.732  0.00  0.00    +0.000 A 
ATOM      7  C   UNL     1       0.656   8.885  22.054  0.00  0.00    +0.000 A 
ATOM      8  C   UNL     1      -0.115   9.539  23.023  0.00  0.00    +0.000 A 
ATOM      9  C   UNL     1      -0.835  10.678  22.678  0.00  0.00    +0.000 A 
ATOM     10  F   UNL     1      -1.578  11.300  23.603  0.00  0.00    +0.000 F 
ATOM     11  C   UNL     1      -0.794  11.181  21.388  0.00  0.00    +0.000 A 
ATOM     12  C   UNL     1      -0.025  10.527  20.422  0.00  0.00    +0.000 A 
ENDBRANCH   4   6
BRANCH   1  14
ATOM     13  N   UNL     1       3.371   5.128  17.519  0.00  0.00    +0.000 N 
ATOM     14  C   UNL     1       3.656   5.935  18.604  0.00  0.00    +0.000 C 
ATOM     15  O   UNL     1       4.541   5.674  19.414  0.00  0.00    +0.000 OA
ATOM     16  H   UNL     1       2.624   5.430  16.902  0.00  0.00    +0.000 HD
BRANCH  13  17
ATOM     17  C   UNL     1       4.146   3.920  17.286  0.00  0.00    +0.000 C 
BRANCH  17  18
ATOM     18  C   UNL     1       3.439   2.636  17.709  0.00  0.00    +0.000 C 
BRANCH  18  22
ATOM     19  C   UNL     1       1.027   3.157  20.634  0.00  0.00    +0.000 C 
ATOM     20  N   UNL     1       2.236   2.869  19.876  0.00  0.00    +0.000 N 
ATOM     21  C   UNL     1       3.441   2.526  20.607  0.00  0.00    +0.000 C 
ATOM     22  C   UNL     1       2.162   2.941  18.488  0.00  0.00    +0.000 C 
ATOM     23  O   UNL     1       1.113   3.237  17.913  0.00  0.00    +0.000 OA
ENDBRANCH  18  22
ENDBRANCH  17  18
ENDBRANCH  13  17
ENDBRANCH   1  14
TORSDOF 5
ENDMDL
MODEL 3
REMARK VINA RESULT:      -7.1      2.092      3.610
REMARK  Name = 
REMARK  7 active torsions:
REMARK  status: ('A' for Active; 'I' for Inactive)
REMARK    1  A    between atoms: C_1  and  N_2
REMARK    2  A    between atoms: N_2  and  C_3
REMARK    3  A    between atoms: C_4  and  C_6
REMARK    4  A    between atoms: C_6  and  C_7
REMARK    5  A    between atoms: C_7  and  N_8
REMARK    6  A    between atoms: C_9  and  C_11
REMARK    7  A    between atoms: C_14  and  C_15
REMARK                            x       y       z     vdW  Elec       q    Type
REMARK                         _______ _______ _______ _____ _____    ______ ____
ROOT
ATOM      1  C   UNL     1       2.758   7.044  18.880  0.00  0.00    +0.000 A 
ATOM      2  C   UNL     1       2.714   7.954  17.839  0.00  0.00    +0.000 A 
ATOM      3  S   UNL     1       1.743   9.288  18.250  0.00  0.00    +0.000 S 
ATOM      4  C   UNL     1       1.474   8.615  19.819  0.00  0.00    +0.000 A 
ATOM      5  N   UNL     1       2.016   7.421  20.011  0.00  0.00    +0.000 NA
ENDROOT
BRANCH   4   6
ATOM      6  C   UNL     1       0.664   9.363  20.802  0.00  0.00    +0.000 A 
ATOM      7  C   UNL     1      -0.026  10.524  20.411  0.00  0.00    +0.000 A 
ATOM      8  C   UNL     1      -0.779  11.256  21.338  0.00  0.00    +0.000 A 
ATOM      9  C   UNL     1      -0.855  10.826  22.658  0.00  0.00    +0.000 A 
ATOM     10  F   UNL     1      -1.570  11.529  23.546  0.00  0.00    +0.000 F 
ATOM     11  C   UNL     1      -0.201   9.675  23.070  0.00  0.00    +0.000 A 
ATOM     12  C   UNL     1       0.551   8.947  22.145  0.00  0.00    +0.000 A 
ENDBRANCH   4   6
BRANCH   1  14
ATOM     13  N   UNL     1       4.006   5.492  17.529  0.00  0.00    +0.000 N 
ATOM     14  C   UNL     1       3.530   5.798  18.789  0.00  0.00    +0.000 C 
ATOM     15  O   UNL     1       3.732   5.086  19.769  0.00  0.00    +0.000 OA
ATOM     16  H   UNL     1       3.791   6.144  16.782  0.00  0.00    +0.000 HD
BRANCH  13  17
ATOM     17  C   UNL     1       4.802   4.293  17.322  0.00  0.00    +0.000 C 
BRANCH  17  18
ATOM     18  C   UNL     1       6.283   4.564  17.073  0.00  0.00    +0.000 C 
BRANCH  18  22
ATOM     19  C   UNL     1       7.592   8.122  17.590  0.00  0.00    +0.000 C 
ATOM     20  N   UNL     1       7.336   6.703  17.788  0.00  0.00    +0.000 N 
ATOM     21  C   UNL     1       7.924   6.053  18.944  0.00  0.00    +0.000 C 
ATOM     22  C   UNL     1       6.540   6.052  16.850  0.00  0.00    +0.000 C 
ATOM     23  O   UNL     1       6.063   6.650  15.884  0.00  0.00    +0.000 OA
ENDBRANCH  18  22
ENDBRANCH  17  18
ENDBRANCH  13  17
ENDBRANCH   1  14
TORSDOF 5
ENDMDL
MODEL 4
REMARK VINA RESULT:      -7.1      0.974      1.146
REMARK  Name = 
REMARK  7 active torsions:
REMARK  status: ('A' for Active; 'I' for Inactive)
REMARK    1  A    between atoms: C_1  and  N_2
REMARK    2  A    between atoms: N_2  and  C_3
REMARK    3  A    between atoms: C_4  and  C_6
REMARK    4  A    between atoms: C_6  and  C_7
REMARK    5  A    between atoms: C_7  and  N_8
REMARK    6  A    between atoms: C_9  and  C_11
REMARK    7  A    between atoms: C_14  and  C_15
REMARK                            x       y       z     vdW  Elec       q    Type
REMARK                         _______ _______ _______ _____ _____    ______ ____
ROOT
ATOM      1  C   UNL     1       2.909   7.035  18.669  0.00  0.00    +0.000 A 
ATOM      2  C   UNL     1       2.773   7.926  17.621  0.00  0.00    +0.000 A 
ATOM      3  S   UNL     1       1.751   9.213  18.057  0.00  0.00    +0.000 S 
ATOM      4  C   UNL     1       1.585   8.549  19.644  0.00  0.00    +0.000 A 
ATOM      5  N   UNL     1       2.196   7.388  19.826  0.00  0.00    +0.000 NA
ENDROOT
BRANCH   4   6
ATOM      6  C   UNL     1       0.778   9.268  20.651  0.00  0.00    +0.000 A 
ATOM      7  C   UNL     1       0.364  10.590  20.413  0.00  0.00    +0.000 A 
ATOM      8  C   UNL     1      -0.381  11.290  21.369  0.00  0.00    +0.000 A 
ATOM      9  C   UNL     1      -0.725  10.670  22.565  0.00  0.00    +0.000 A 
ATOM     10  F   UNL     1      -1.433  11.343  23.483  0.00  0.00    +0.000 F 
ATOM     11  C   UNL     1      -0.347   9.362  22.823  0.00  0.00    +0.000 A 
ATOM     12  C   UNL     1       0.398   8.665  21.868  0.00  0.00    +0.000 A 
ENDBRANCH   4   6
BRANCH   1  14
ATOM     13  N   UNL     1       3.450   5.009  17.487  0.00  0.00    +0.000 N 
ATOM     14  C   UNL     1       3.742   5.829  18.560  0.00  0.00    +0.000 C 
ATOM     15  O   UNL     1       4.631   5.579  19.368  0.00  0.00    +0.000 OA
ATOM     16  H   UNL     1       2.700   5.302  16.870  0.00  0.00    +0.000 HD
BRANCH  13  17
ATOM     17  C   UNL     1       4.223   3.797  17.266  0.00  0.00    +0.000 C 
BRANCH  17  18
ATOM     18  C   UNL     1       3.592   2.539  17.856  0.00  0.00    +0.000 C 
BRANCH  18  22
ATOM     19  C   UNL     1       0.928   3.145  20.536  0.00  0.00    +0.000 C 
ATOM     20  N   UNL     1       2.203   2.849  19.899  0.00  0.00    +0.000 N 
ATOM     21  C   UNL     1       3.347   2.569  20.746  0.00  0.00    +0.000 C 
ATOM     22  C   UNL     1       2.247   2.852  18.507  0.00  0.00    +0.000 C 
ATOM     23  O   UNL     1       1.246   3.095  17.831  0.00  0.00    +0.000 OA
ENDBRANCH  18  22
ENDBRANCH  17  18
ENDBRANCH  13  17
ENDBRANCH   1  14
TORSDOF 5
ENDMDL
MODEL 5
REMARK VINA RESULT:      -7.1      2.068      3.715
REMARK  Name = 
REMARK  7 active torsions:
REMARK  status: ('A' for Active; 'I' for Inactive)
REMARK    1  A    between atoms: C_1  and  N_2
REMARK    2  A    between atoms: N_2  and  C_3
REMARK    3  A    between atoms: C_4  and  C_6
REMARK    4  A    between atoms: C_6  and  C_7
REMARK    5  A    between atoms: C_7  and  N_8
REMARK    6  A    between atoms: C_9  and  C_11
REMARK    7  A    between atoms: C_14  and  C_15
REMARK                            x       y       z     vdW  Elec       q    Type
REMARK                         _______ _______ _______ _____ _____    ______ ____
ROOT
ATOM      1  C   UNL     1       2.704   7.031  18.923  0.00  0.00    +0.000 A 
ATOM      2  C   UNL     1       2.659   7.897  17.845  0.00  0.00    +0.000 A 
ATOM      3  S   UNL     1       1.732   9.272  18.220  0.00  0.00    +0.000 S 
ATOM      4  C   UNL     1       1.481   8.673  19.822  0.00  0.00    +0.000 A 
ATOM      5  N   UNL     1       1.997   7.475  20.052  0.00  0.00    +0.000 NA
ENDROOT
BRANCH   4   6
ATOM      6  C   UNL     1       0.713   9.483  20.789  0.00  0.00    +0.000 A 
ATOM      7  C   UNL     1       0.367   8.947  22.041  0.00  0.00    +0.000 A 
ATOM      8  C   UNL     1      -0.381   9.696  22.958  0.00  0.00    +0.000 A 
ATOM      9  C   UNL     1      -0.778  10.988  22.633  0.00  0.00    +0.000 A 
ATOM     10  F   UNL     1      -1.499  11.702  23.508  0.00  0.00    +0.000 F 
ATOM     11  C   UNL     1      -0.437  11.550  21.413  0.00  0.00    +0.000 A 
ATOM     12  C   UNL     1       0.307  10.801  20.498  0.00  0.00    +0.000 A 
ENDBRANCH   4   6
BRANCH   1  14
ATOM     13  N   UNL     1       4.031   5.476  17.652  0.00  0.00    +0.000 N 
ATOM     14  C   UNL     1       3.441   5.762  18.868  0.00  0.00    +0.000 C 
ATOM     15  O   UNL     1       3.523   5.016  19.840  0.00  0.00    +0.000 OA
ATOM     16  H   UNL     1       3.913   6.157  16.909  0.00  0.00    +0.000 HD
BRANCH  13  17
ATOM     17  C   UNL     1       4.806   4.257  17.487  0.00  0.00    +0.000 C 
BRANCH  17  18
ATOM     18  C   UNL     1       6.217   4.483  16.951  0.00  0.00    +0.000 C 
BRANCH  18  22
ATOM     19  C   UNL     1       7.593   7.989  17.628  0.00  0.00    +0.000 C 
ATOM     20  N   UNL     1       7.302   6.570  17.767  0.00  0.00    +0.000 N 
ATOM     21  C   UNL     1       7.851   5.864  18.910  0.00  0.00    +0.000 C 
ATOM     22  C   UNL     1       6.511   5.973  16.789  0.00  0.00    +0.000 C 
ATOM     23  O   UNL     1       6.068   6.616  15.836  0.00  0.00    +0.000 OA
ENDBRANCH  18  22
ENDBRANCH  17  18
ENDBRANCH  13  17
ENDBRANCH   1  14
TORSDOF 5
ENDMDL
MODEL 6
REMARK VINA RESULT:      -7.0      1.043      1.677
REMARK  Name = 
REMARK  7 active torsions:
REMARK  status: ('A' for Active; 'I' for Inactive)
REMARK    1  A    between atoms: C_1  and  N_2
REMARK    2  A    between atoms: N_2  and  C_3
REMARK    3  A    between atoms: C_4  and  C_6
REMARK    4  A    between atoms: C_6  and  C_7
REMARK    5  A    between atoms: C_7  and  N_8
REMARK    6  A    between atoms: C_9  and  C_11
REMARK    7  A    between atoms: C_14  and  C_15
REMARK                            x       y       z     vdW  Elec       q    Type
REMARK                         _______ _______ _______ _____ _____    ______ ____
ROOT
ATOM      1  C   UNL     1       2.916   7.042  18.463  0.00  0.00    +0.000 A 
ATOM      2  C   UNL     1       2.813   8.004  17.474  0.00  0.00    +0.000 A 
ATOM      3  S   UNL     1       1.842   9.298  17.995  0.00  0.00    +0.000 S 
ATOM      4  C   UNL     1       1.651   8.540  19.537  0.00  0.00    +0.000 A 
ATOM      5  N   UNL     1       2.218   7.348  19.642  0.00  0.00    +0.000 NA
ENDROOT
BRANCH   4   6
ATOM      6  C   UNL     1       0.873   9.223  20.591  0.00  0.00    +0.000 A 
ATOM      7  C   UNL     1       0.364   8.492  21.678  0.00  0.00    +0.000 A 
ATOM      8  C   UNL     1      -0.394   9.123  22.672  0.00  0.00    +0.000 A 
ATOM      9  C   UNL     1      -0.639  10.489  22.591  0.00  0.00    +0.000 A 
ATOM     10  F   UNL     1      -1.369  11.091  23.539  0.00  0.00    +0.000 F 
ATOM     11  C   UNL     1      -0.135  11.240  21.541  0.00  0.00    +0.000 A 
ATOM     12  C   UNL     1       0.620  10.609  20.549  0.00  0.00    +0.000 A 
ENDBRANCH   4   6
BRANCH   1  14
ATOM     13  N   UNL     1       4.199   5.251  19.433  0.00  0.00    +0.000 N 
ATOM     14  C   UNL     1       3.702   5.816  18.274  0.00  0.00    +0.000 C 
ATOM     15  O   UNL     1       3.896   5.334  17.162  0.00  0.00    +0.000 OA
ATOM     16  H   UNL     1       3.981   5.719  20.307  0.00  0.00    +0.000 HD
BRANCH  13  17
ATOM     17  C   UNL     1       4.973   4.022  19.370  0.00  0.00    +0.000 C 
BRANCH  17  18
ATOM     18  C   UNL     1       4.253   2.803  19.938  0.00  0.00    +0.000 C 
BRANCH  18  22
ATOM     19  C   UNL     1       0.642   2.259  18.793  0.00  0.00    +0.000 C 
ATOM     20  N   UNL     1       1.792   2.623  19.608  0.00  0.00    +0.000 N 
ATOM     21  C   UNL     1       1.552   3.179  20.926  0.00  0.00    +0.000 C 
ATOM     22  C   UNL     1       3.058   2.415  19.070  0.00  0.00    +0.000 C 
ATOM     23  O   UNL     1       3.210   1.939  17.943  0.00  0.00    +0.000 OA
ENDBRANCH  18  22
ENDBRANCH  17  18
ENDBRANCH  13  17
ENDBRANCH   1  14
TORSDOF 5
ENDMDL
MODEL 7
REMARK VINA RESULT:      -6.9      1.160      1.353
REMARK  Name = 
REMARK  7 active torsions:
REMARK  status: ('A' for Active; 'I' for Inactive)
REMARK    1  A    between atoms: C_1  and  N_2
REMARK    2  A    between atoms: N_2  and  C_3
REMARK    3  A    between atoms: C_4  and  C_6
REMARK    4  A    between atoms: C_6  and  C_7
REMARK    5  A    between atoms: C_7  and  N_8
REMARK    6  A    between atoms: C_9  and  C_11
REMARK    7  A    between atoms: C_14  and  C_15
REMARK                            x       y       z     vdW  Elec       q    Type
REMARK                         _______ _______ _______ _____ _____    ______ ____
ROOT
ATOM      1  C   UNL     1       2.925   7.193  18.434  0.00  0.00    +0.000 A 
ATOM      2  C   UNL     1       2.704   8.129  17.440  0.00  0.00    +0.000 A 
ATOM      3  S   UNL     1       1.653   9.348  17.987  0.00  0.00    +0.000 S 
ATOM      4  C   UNL     1       1.587   8.599  19.544  0.00  0.00    +0.000 A 
ATOM      5  N   UNL     1       2.253   7.458  19.638  0.00  0.00    +0.000 NA
ENDROOT
BRANCH   4   6
ATOM      6  C   UNL     1       0.800   9.231  20.622  0.00  0.00    +0.000 A 
ATOM      7  C   UNL     1      -0.086  10.282  20.327  0.00  0.00    +0.000 A 
ATOM      8  C   UNL     1      -0.821  10.905  21.342  0.00  0.00    +0.000 A 
ATOM      9  C   UNL     1      -0.683  10.476  22.657  0.00  0.00    +0.000 A 
ATOM     10  F   UNL     1      -1.381  11.076  23.630  0.00  0.00    +0.000 F 
ATOM     11  C   UNL     1       0.169   9.430  22.978  0.00  0.00    +0.000 A 
ATOM     12  C   UNL     1       0.903   8.810  21.963  0.00  0.00    +0.000 A 
ENDBRANCH   4   6
BRANCH   1  14
ATOM     13  N   UNL     1       4.276   5.439  19.380  0.00  0.00    +0.000 N 
ATOM     14  C   UNL     1       3.799   6.031  18.226  0.00  0.00    +0.000 C 
ATOM     15  O   UNL     1       4.079   5.623  17.102  0.00  0.00    +0.000 OA
ATOM     16  H   UNL     1       3.985   5.845  20.263  0.00  0.00    +0.000 HD
BRANCH  13  17
ATOM     17  C   UNL     1       5.133   4.268  19.296  0.00  0.00    +0.000 C 
BRANCH  17  18
ATOM     18  C   UNL     1       4.450   2.966  19.706  0.00  0.00    +0.000 C 
BRANCH  18  22
ATOM     19  C   UNL     1       0.645   3.011  19.299  0.00  0.00    +0.000 C 
ATOM     20  N   UNL     1       2.060   2.803  19.029  0.00  0.00    +0.000 N 
ATOM     21  C   UNL     1       2.437   2.204  17.762  0.00  0.00    +0.000 C 
ATOM     22  C   UNL     1       2.970   3.192  20.007  0.00  0.00    +0.000 C 
ATOM     23  O   UNL     1       2.599   3.697  21.068  0.00  0.00    +0.000 OA
ENDBRANCH  18  22
ENDBRANCH  17  18
ENDBRANCH  13  17
ENDBRANCH   1  14
TORSDOF 5
ENDMDL
MODEL 8
REMARK VINA RESULT:      -6.8      5.725      8.663
REMARK  Name = 
REMARK  7 active torsions:
REMARK  status: ('A' for Active; 'I' for Inactive)
REMARK    1  A    between atoms: C_1  and  N_2
REMARK    2  A    between atoms: N_2  and  C_3
REMARK    3  A    between atoms: C_4  and  C_6
REMARK    4  A    between atoms: C_6  and  C_7
REMARK    5  A    between atoms: C_7  and  N_8
REMARK    6  A    between atoms: C_9  and  C_11
REMARK    7  A    between atoms: C_14  and  C_15
REMARK                            x       y       z     vdW  Elec       q    Type
REMARK                         _______ _______ _______ _____ _____    ______ ____
ROOT
ATOM      1  C   UNL     1       6.729   6.299  17.554  0.00  0.00    +0.000 A 
ATOM      2  C   UNL     1       6.738   6.130  16.181  0.00  0.00    +0.000 A 
ATOM      3  S   UNL     1       5.471   5.106  15.695  0.00  0.00    +0.000 S 
ATOM      4  C   UNL     1       4.936   4.982  17.334  0.00  0.00    +0.000 A 
ATOM      5  N   UNL     1       5.700   5.609  18.215  0.00  0.00    +0.000 NA
ENDROOT
BRANCH   4   6
ATOM      6  C   UNL     1       3.728   4.192  17.646  0.00  0.00    +0.000 A 
ATOM      7  C   UNL     1       2.485   4.832  17.798  0.00  0.00    +0.000 A 
ATOM      8  C   UNL     1       1.336   4.098  18.116  0.00  0.00    +0.000 A 
ATOM      9  C   UNL     1       1.420   2.720  18.275  0.00  0.00    +0.000 A 
ATOM     10  F   UNL     1       0.321   2.018  18.585  0.00  0.00    +0.000 F 
ATOM     11  C   UNL     1       2.626   2.058  18.114  0.00  0.00    +0.000 A 
ATOM     12  C   UNL     1       3.773   2.791  17.798  0.00  0.00    +0.000 A 
ENDBRANCH   4   6
BRANCH   1  14
ATOM     13  N   UNL     1       7.762   8.456  17.823  0.00  0.00    +0.000 N 
ATOM     14  C   UNL     1       7.720   7.140  18.239  0.00  0.00    +0.000 C 
ATOM     15  O   UNL     1       8.453   6.695  19.118  0.00  0.00    +0.000 OA
ATOM     16  H   UNL     1       7.113   8.732  17.093  0.00  0.00    +0.000 HD
BRANCH  13  17
ATOM     17  C   UNL     1       8.689   9.388  18.445  0.00  0.00    +0.000 C 
BRANCH  17  18
ATOM     18  C   UNL     1       8.692  10.778  17.815  0.00  0.00    +0.000 C 
BRANCH  18  22
ATOM     19  C   UNL     1      10.352  13.937  19.197  0.00  0.00    +0.000 C 
ATOM     20  N   UNL     1       9.400  13.050  18.544  0.00  0.00    +0.000 N 
ATOM     21  C   UNL     1       8.198  13.632  17.975  0.00  0.00    +0.000 C 
ATOM     22  C   UNL     1       9.702  11.692  18.504  0.00  0.00    +0.000 C 
ATOM     23  O   UNL     1      10.737  11.248  19.002  0.00  0.00    +0.000 OA
ENDBRANCH  18  22
ENDBRANCH  17  18
ENDBRANCH  13  17
ENDBRANCH   1  14
TORSDOF 5
ENDMDL
MODEL 9
REMARK VINA RESULT:      -6.7      4.963      7.761
REMARK  Name = 
REMARK  7 active torsions:
REMARK  status: ('A' for Active; 'I' for Inactive)
REMARK    1  A    between atoms: C_1  and  N_2
REMARK    2  A    between atoms: N_2  and  C_3
REMARK    3  A    between atoms: C_4  and  C_6
REMARK    4  A    between atoms: C_6  and  C_7
REMARK    5  A    between atoms: C_7  and  N_8
REMARK    6  A    between atoms: C_9  and  C_11
REMARK    7  A    between atoms: C_14  and  C_15
REMARK                            x       y       z     vdW  Elec       q    Type
REMARK                         _______ _______ _______ _____ _____    ______ ____
ROOT
ATOM      1  C   UNL     1       5.842   5.407  17.218  0.00  0.00    +0.000 A 
ATOM      2  C   UNL     1       5.258   4.748  16.151  0.00  0.00    +0.000 A 
ATOM      3  S   UNL     1       3.967   3.777  16.681  0.00  0.00    +0.000 S 
ATOM      4  C   UNL     1       4.213   4.327  18.302  0.00  0.00    +0.000 A 
ATOM      5  N   UNL     1       5.249   5.136  18.461  0.00  0.00    +0.000 NA
ENDROOT
BRANCH   4   6
ATOM      6  C   UNL     1       3.312   3.856  19.373  0.00  0.00    +0.000 A 
ATOM      7  C   UNL     1       2.036   4.428  19.525  0.00  0.00    +0.000 A 
ATOM      8  C   UNL     1       1.181   4.008  20.551  0.00  0.00    +0.000 A 
ATOM      9  C   UNL     1       1.591   3.007  21.425  0.00  0.00    +0.000 A 
ATOM     10  F   UNL     1       0.774   2.609  22.409  0.00  0.00    +0.000 F 
ATOM     11  C   UNL     1       2.834   2.411  21.290  0.00  0.00    +0.000 A 
ATOM     12  C   UNL     1       3.688   2.833  20.267  0.00  0.00    +0.000 A 
ENDBRANCH   4   6
BRANCH   1  14
ATOM     13  N   UNL     1       7.197   7.203  18.075  0.00  0.00    +0.000 N 
ATOM     14  C   UNL     1       6.983   6.316  17.038  0.00  0.00    +0.000 C 
ATOM     15  O   UNL     1       7.689   6.280  16.034  0.00  0.00    +0.000 OA
ATOM     16  H   UNL     1       6.563   7.153  18.866  0.00  0.00    +0.000 HD
BRANCH  13  17
ATOM     17  C   UNL     1       8.311   8.135  18.017  0.00  0.00    +0.000 C 
BRANCH  17  18
ATOM     18  C   UNL     1       7.892   9.599  17.907  0.00  0.00    +0.000 C 
BRANCH  18  22
ATOM     19  C   UNL     1       9.845  12.741  18.886  0.00  0.00    +0.000 C 
ATOM     20  N   UNL     1       8.892  11.855  18.233  0.00  0.00    +0.000 N 
ATOM     21  C   UNL     1       7.994  12.421  17.244  0.00  0.00    +0.000 C 
ATOM     22  C   UNL     1       8.899  10.513  18.601  0.00  0.00    +0.000 C 
ATOM     23  O   UNL     1       9.682  10.081  19.449  0.00  0.00    +0.000 OA
ENDBRANCH  18  22
ENDBRANCH  17  18
ENDBRANCH  13  17
ENDBRANCH   1  14
TORSDOF 5
ENDMDL
