MODEL 1
REMARK VINA RESULT:      -5.7      0.000      0.000
REMARK  Name = 
REMARK  1 active torsions:
REMARK  status: ('A' for Active; 'I' for Inactive)
REMARK    1  A    between atoms: C_2  and  C_4
REMARK                            x       y       z     vdW  Elec       q    Type
REMARK                         _______ _______ _______ _____ _____    ______ ____
ROOT
ATOM      1  C   UNL     1       5.747   4.923  16.828  0.00  0.00    +0.000 A 
ATOM      2  C   UNL     1       5.287   6.140  17.358  0.00  0.00    +0.000 A 
ATOM      3  C   UNL     1       3.967   6.250  17.797  0.00  0.00    +0.000 A 
ATOM      4  C   UNL     1       3.118   5.152  17.707  0.00  0.00    +0.000 A 
ATOM      5  F   UNL     1       1.854   5.264  18.138  0.00  0.00    +0.000 F 
ATOM      6  C   UNL     1       3.571   3.951  17.172  0.00  0.00    +0.000 A 
ATOM      7  F   UNL     1       2.748   2.897  17.091  0.00  0.00    +0.000 F 
ATOM      8  C   UNL     1       4.880   3.829  16.722  0.00  0.00    +0.000 A 
ENDROOT
BRANCH   1  10
ATOM      9  N   UNL     1       7.436   5.269  15.120  0.00  0.00    +0.000 N 
ATOM     10  C   UNL     1       7.143   4.763  16.353  0.00  0.00    +0.000 C 
ATOM     11  O   UNL     1       8.000   4.242  17.053  0.00  0.00    +0.000 OA
ATOM     12  H   UNL     1       8.414   5.267  14.858  0.00  0.00    +0.000 HD
ATOM     13  H   UNL     1       6.829   5.920  14.643  0.00  0.00    +0.000 HD
ENDBRANCH   1  10
TORSDOF 1
ENDMDL
MODEL 2
REMARK VINA RESULT:      -5.7      2.710      3.575
REMARK  Name = 
REMARK  1 active torsions:
REMARK  status: ('A' for Active; 'I' for Inactive)
REMARK    1  A    between atoms: C_2  and  C_4
REMARK                            x       y       z     vdW  Elec       q    Type
REMARK                         _______ _______ _______ _____ _____    ______ ____
ROOT
ATOM      1  C   UNL     1       3.933   3.845  18.849  0.00  0.00    +0.000 A 
ATOM      2  C   UNL     1       3.682   2.810  17.933  0.00  0.00    +0.000 A 
ATOM      3  C   UNL     1       2.409   2.244  17.856  0.00  0.00    +0.000 A 
ATOM      4  C   UNL     1       1.398   2.711  18.689  0.00  0.00    +0.000 A 
ATOM      5  F   UNL     1       0.176   2.168  18.604  0.00  0.00    +0.000 F 
ATOM      6  C   UNL     1       1.650   3.728  19.604  0.00  0.00    +0.000 A 
ATOM      7  F   UNL     1       0.669   4.175  20.401  0.00  0.00    +0.000 F 
ATOM      8  C   UNL     1       2.915   4.295  19.697  0.00  0.00    +0.000 A 
ENDROOT
BRANCH   1  10
ATOM      9  N   UNL     1       6.263   3.954  18.178  0.00  0.00    +0.000 N 
ATOM     10  C   UNL     1       5.271   4.476  18.958  0.00  0.00    +0.000 C 
ATOM     11  O   UNL     1       5.464   5.444  19.680  0.00  0.00    +0.000 OA
ATOM     12  H   UNL     1       7.136   4.467  18.165  0.00  0.00    +0.000 HD
ATOM     13  H   UNL     1       6.073   3.340  17.399  0.00  0.00    +0.000 HD
ENDBRANCH   1  10
TORSDOF 1
ENDMDL
MODEL 3
REMARK VINA RESULT:      -5.6      1.864      1.906
REMARK  Name = 
REMARK  1 active torsions:
REMARK  status: ('A' for Active; 'I' for Inactive)
REMARK    1  A    between atoms: C_2  and  C_4
REMARK                            x       y       z     vdW  Elec       q    Type
REMARK                         _______ _______ _______ _____ _____    ______ ____
ROOT
ATOM      1  C   UNL     1       4.911   4.750  18.409  0.00  0.00    +0.000 A 
ATOM      2  C   UNL     1       4.084   5.884  18.454  0.00  0.00    +0.000 A 
ATOM      3  C   UNL     1       2.737   5.775  18.106  0.00  0.00    +0.000 A 
ATOM      4  C   UNL     1       2.226   4.541  17.717  0.00  0.00    +0.000 A 
ATOM      5  F   UNL     1       0.930   4.443  17.391  0.00  0.00    +0.000 F 
ATOM      6  C   UNL     1       3.048   3.421  17.662  0.00  0.00    +0.000 A 
ATOM      7  F   UNL     1       2.547   2.236  17.290  0.00  0.00    +0.000 F 
ATOM      8  C   UNL     1       4.393   3.516  17.998  0.00  0.00    +0.000 A 
ENDROOT
BRANCH   1  10
ATOM      9  N   UNL     1       7.237   4.295  17.886  0.00  0.00    +0.000 N 
ATOM     10  C   UNL     1       6.347   4.823  18.776  0.00  0.00    +0.000 C 
ATOM     11  O   UNL     1       6.717   5.369  19.806  0.00  0.00    +0.000 OA
ATOM     12  H   UNL     1       8.217   4.459  18.084  0.00  0.00    +0.000 HD
ATOM     13  H   UNL     1       6.986   4.079  16.932  0.00  0.00    +0.000 HD
ENDBRANCH   1  10
TORSDOF 1
ENDMDL
MODEL 4
REMARK VINA RESULT:      -5.6      2.994      3.662
REMARK  Name = 
REMARK  1 active torsions:
REMARK  status: ('A' for Active; 'I' for Inactive)
REMARK    1  A    between atoms: C_2  and  C_4
REMARK                            x       y       z     vdW  Elec       q    Type
REMARK                         _______ _______ _______ _____ _____    ______ ____
ROOT
ATOM      1  C   UNL     1       7.008   5.684  17.679  0.00  0.00    +0.000 A 
ATOM      2  C   UNL     1       7.296   4.462  17.049  0.00  0.00    +0.000 A 
ATOM      3  C   UNL     1       6.669   4.137  15.845  0.00  0.00    +0.000 A 
ATOM      4  C   UNL     1       5.763   5.028  15.280  0.00  0.00    +0.000 A 
ATOM      5  F   UNL     1       5.170   4.712  14.121  0.00  0.00    +0.000 F 
ATOM      6  C   UNL     1       5.470   6.233  15.911  0.00  0.00    +0.000 A 
ATOM      7  F   UNL     1       4.598   7.087  15.358  0.00  0.00    +0.000 F 
ATOM      8  C   UNL     1       6.080   6.566  17.114  0.00  0.00    +0.000 A 
ENDROOT
BRANCH   1  10
ATOM      9  N   UNL     1       8.435   7.190  18.938  0.00  0.00    +0.000 N 
ATOM     10  C   UNL     1       7.657   6.069  18.957  0.00  0.00    +0.000 C 
ATOM     11  O   UNL     1       7.468   5.436  19.986  0.00  0.00    +0.000 OA
ATOM     12  H   UNL     1       8.771   7.515  19.837  0.00  0.00    +0.000 HD
ATOM     13  H   UNL     1       8.399   7.862  18.186  0.00  0.00    +0.000 HD
ENDBRANCH   1  10
TORSDOF 1
ENDMDL
MODEL 5
REMARK VINA RESULT:      -5.5      1.285      2.252
REMARK  Name = 
REMARK  1 active torsions:
REMARK  status: ('A' for Active; 'I' for Inactive)
REMARK    1  A    between atoms: C_2  and  C_4
REMARK                            x       y       z     vdW  Elec       q    Type
REMARK                         _______ _______ _______ _____ _____    ______ ____
ROOT
ATOM      1  C   UNL     1       5.585   5.216  17.095  0.00  0.00    +0.000 A 
ATOM      2  C   UNL     1       4.937   3.977  16.962  0.00  0.00    +0.000 A 
ATOM      3  C   UNL     1       3.579   3.868  17.265  0.00  0.00    +0.000 A 
ATOM      4  C   UNL     1       2.879   4.990  17.695  0.00  0.00    +0.000 A 
ATOM      5  F   UNL     1       1.574   4.879  17.977  0.00  0.00    +0.000 F 
ATOM      6  C   UNL     1       3.524   6.214  17.837  0.00  0.00    +0.000 A 
ATOM      7  F   UNL     1       2.842   7.291  18.250  0.00  0.00    +0.000 F 
ATOM      8  C   UNL     1       4.878   6.336  17.548  0.00  0.00    +0.000 A 
ENDROOT
BRANCH   1  10
ATOM      9  N   UNL     1       7.842   4.323  17.080  0.00  0.00    +0.000 N 
ATOM     10  C   UNL     1       7.026   5.375  16.779  0.00  0.00    +0.000 C 
ATOM     11  O   UNL     1       7.454   6.383  16.234  0.00  0.00    +0.000 OA
ATOM     12  H   UNL     1       8.797   4.389  16.749  0.00  0.00    +0.000 HD
ATOM     13  H   UNL     1       7.484   3.401  17.284  0.00  0.00    +0.000 HD
ENDBRANCH   1  10
TORSDOF 1
ENDMDL
MODEL 6
REMARK VINA RESULT:      -5.5      1.453      1.454
REMARK  Name = 
REMARK  1 active torsions:
REMARK  status: ('A' for Active; 'I' for Inactive)
REMARK    1  A    between atoms: C_2  and  C_4
REMARK                            x       y       z     vdW  Elec       q    Type
REMARK                         _______ _______ _______ _____ _____    ______ ____
ROOT
ATOM      1  C   UNL     1       5.574   5.051  15.726  0.00  0.00    +0.000 A 
ATOM      2  C   UNL     1       5.316   6.389  16.066  0.00  0.00    +0.000 A 
ATOM      3  C   UNL     1       4.347   6.688  17.025  0.00  0.00    +0.000 A 
ATOM      4  C   UNL     1       3.645   5.654  17.637  0.00  0.00    +0.000 A 
ATOM      5  F   UNL     1       2.721   5.948  18.562  0.00  0.00    +0.000 F 
ATOM      6  C   UNL     1       3.893   4.330  17.292  0.00  0.00    +0.000 A 
ATOM      7  F   UNL     1       3.214   3.341  17.888  0.00  0.00    +0.000 F 
ATOM      8  C   UNL     1       4.849   4.018  16.332  0.00  0.00    +0.000 A 
ENDROOT
BRANCH   1  10
ATOM      9  N   UNL     1       6.324   3.620  13.915  0.00  0.00    +0.000 N 
ATOM     10  C   UNL     1       6.599   4.692  14.715  0.00  0.00    +0.000 C 
ATOM     11  O   UNL     1       7.619   5.351  14.577  0.00  0.00    +0.000 OA
ATOM     12  H   UNL     1       6.967   3.459  13.149  0.00  0.00    +0.000 HD
ATOM     13  H   UNL     1       5.397   3.228  13.833  0.00  0.00    +0.000 HD
ENDBRANCH   1  10
TORSDOF 1
ENDMDL
MODEL 7
REMARK VINA RESULT:      -5.5      2.046      2.611
REMARK  Name = 
REMARK  1 active torsions:
REMARK  status: ('A' for Active; 'I' for Inactive)
REMARK    1  A    between atoms: C_2  and  C_4
REMARK                            x       y       z     vdW  Elec       q    Type
REMARK                         _______ _______ _______ _____ _____    ______ ____
ROOT
ATOM      1  C   UNL     1       6.456   4.946  15.853  0.00  0.00    +0.000 A 
ATOM      2  C   UNL     1       7.232   4.616  16.975  0.00  0.00    +0.000 A 
ATOM      3  C   UNL     1       6.724   4.829  18.258  0.00  0.00    +0.000 A 
ATOM      4  C   UNL     1       5.451   5.367  18.412  0.00  0.00    +0.000 A 
ATOM      5  F   UNL     1       4.968   5.562  19.647  0.00  0.00    +0.000 F 
ATOM      6  C   UNL     1       4.688   5.705  17.300  0.00  0.00    +0.000 A 
ATOM      7  F   UNL     1       3.461   6.221  17.458  0.00  0.00    +0.000 F 
ATOM      8  C   UNL     1       5.183   5.507  16.017  0.00  0.00    +0.000 A 
ENDROOT
BRANCH   1  10
ATOM      9  N   UNL     1       6.409   3.695  13.774  0.00  0.00    +0.000 N 
ATOM     10  C   UNL     1       6.957   4.731  14.473  0.00  0.00    +0.000 C 
ATOM     11  O   UNL     1       7.789   5.474  13.972  0.00  0.00    +0.000 OA
ATOM     12  H   UNL     1       6.664   3.632  12.796  0.00  0.00    +0.000 HD
ATOM     13  H   UNL     1       5.555   3.239  14.061  0.00  0.00    +0.000 HD
ENDBRANCH   1  10
TORSDOF 1
ENDMDL
MODEL 8
REMARK VINA RESULT:      -5.5      1.934      2.274
REMARK  Name = 
REMARK  1 active torsions:
REMARK  status: ('A' for Active; 'I' for Inactive)
REMARK    1  A    between atoms: C_2  and  C_4
REMARK                            x       y       z     vdW  Elec       q    Type
REMARK                         _______ _______ _______ _____ _____    ______ ____
ROOT
ATOM      1  C   UNL     1       6.342   4.500  15.808  0.00  0.00    +0.000 A 
ATOM      2  C   UNL     1       7.158   4.734  16.927  0.00  0.00    +0.000 A 
ATOM      3  C   UNL     1       6.610   4.677  18.209  0.00  0.00    +0.000 A 
ATOM      4  C   UNL     1       5.259   4.387  18.367  0.00  0.00    +0.000 A 
ATOM      5  F   UNL     1       4.743   4.327  19.602  0.00  0.00    +0.000 F 
ATOM      6  C   UNL     1       4.450   4.166  17.258  0.00  0.00    +0.000 A 
ATOM      7  F   UNL     1       3.150   3.884  17.420  0.00  0.00    +0.000 F 
ATOM      8  C   UNL     1       4.979   4.228  15.975  0.00  0.00    +0.000 A 
ENDROOT
BRANCH   1  10
ATOM      9  N   UNL     1       6.395   3.632  13.542  0.00  0.00    +0.000 N 
ATOM     10  C   UNL     1       6.886   4.547  14.428  0.00  0.00    +0.000 C 
ATOM     11  O   UNL     1       7.702   5.393  14.091  0.00  0.00    +0.000 OA
ATOM     12  H   UNL     1       6.677   3.751  12.576  0.00  0.00    +0.000 HD
ATOM     13  H   UNL     1       5.552   3.105  13.718  0.00  0.00    +0.000 HD
ENDBRANCH   1  10
TORSDOF 1
ENDMDL
MODEL 9
REMARK VINA RESULT:      -5.5      2.633      3.114
REMARK  Name = 
REMARK  1 active torsions:
REMARK  status: ('A' for Active; 'I' for Inactive)
REMARK    1  A    between atoms: C_2  and  C_4
REMARK                            x       y       z     vdW  Elec       q    Type
REMARK                         _______ _______ _______ _____ _____    ______ ____
ROOT
ATOM      1  C   UNL     1       6.373   4.511  15.755  0.00  0.00    +0.000 A 
ATOM      2  C   UNL     1       5.058   4.126  16.063  0.00  0.00    +0.000 A 
ATOM      3  C   UNL     1       4.628   4.123  17.391  0.00  0.00    +0.000 A 
ATOM      4  C   UNL     1       5.509   4.502  18.398  0.00  0.00    +0.000 A 
ATOM      5  F   UNL     1       5.087   4.504  19.670  0.00  0.00    +0.000 F 
ATOM      6  C   UNL     1       6.814   4.873  18.093  0.00  0.00    +0.000 A 
ATOM      7  F   UNL     1       7.655   5.240  19.070  0.00  0.00    +0.000 F 
ATOM      8  C   UNL     1       7.258   4.872  16.777  0.00  0.00    +0.000 A 
ENDROOT
BRANCH   1  10
ATOM      9  N   UNL     1       6.346   3.599  13.505  0.00  0.00    +0.000 N 
ATOM     10  C   UNL     1       6.867   4.532  14.356  0.00  0.00    +0.000 C 
ATOM     11  O   UNL     1       7.668   5.372  13.973  0.00  0.00    +0.000 OA
ATOM     12  H   UNL     1       6.593   3.699  12.528  0.00  0.00    +0.000 HD
ATOM     13  H   UNL     1       5.511   3.075  13.722  0.00  0.00    +0.000 HD
ENDBRANCH   1  10
TORSDOF 1
ENDMDL
