MODEL 1
REMARK VINA RESULT:      -8.1      0.000      0.000
REMARK  Name = 
REMARK  9 active torsions:
REMARK  status: ('A' for Active; 'I' for Inactive)
REMARK    1  A    between atoms: C_1  and  O_2
REMARK    2  A    between atoms: O_2  and  C_3
REMARK    3  A    between atoms: C_8  and  N_9
REMARK    4  A    between atoms: N_12  and  C_13
REMARK    5  A    between atoms: C_13  and  C_14
REMARK    6  A    between atoms: C_13  and  C_15
REMARK    7  A    between atoms: C_15  and  C_16
REMARK    8  A    between atoms: C_16  and  N_17
REMARK    9  A    between atoms: N_29  and  C_30
REMARK                            x       y       z     vdW  Elec       q    Type
REMARK                         _______ _______ _______ _____ _____    ______ ____
ROOT
ATOM      1  C   UNL     1       0.415   8.287  21.128  0.00  0.00    +0.000 C 
ENDROOT
BRANCH   1   2
ATOM      2  C   UNL     1       0.340   9.701  21.765  0.00  0.00    +0.000 C 
ATOM      3  C   UNL     1       0.147   9.535  23.273  0.00  0.00    +0.000 C 
BRANCH   2   7
ATOM      4  N   UNL     1       0.347  13.159  19.905  0.00  0.00    +0.000 N 
ATOM      5  C   UNL     1       0.185  13.014  21.359  0.00  0.00    +0.000 C 
ATOM      6  C   UNL     1      -0.864  11.921  21.651  0.00  0.00    +0.000 C 
ATOM      7  N   UNL     1      -0.585  10.599  21.048  0.00  0.00    +0.000 NA
ATOM      8  C   UNL     1      -0.315  10.780  19.603  0.00  0.00    +0.000 C 
ATOM      9  C   UNL     1       0.668  11.910  19.199  0.00  0.00    +0.000 C 
BRANCH   4  15
ATOM     10  C   UNL     1       1.879  14.887  19.028  0.00  0.00    +0.000 A 
ATOM     11  C   UNL     1       2.064  16.189  18.536  0.00  0.00    +0.000 A 
ATOM     12  C   UNL     1       0.976  17.023  18.296  0.00  0.00    +0.000 A 
ATOM     13  C   UNL     1      -0.306  16.561  18.548  0.00  0.00    +0.000 A 
ATOM     14  C   UNL     1      -0.496  15.271  19.052  0.00  0.00    +0.000 A 
ATOM     15  C   UNL     1       0.578  14.401  19.325  0.00  0.00    +0.000 A 
BRANCH  10  17
ATOM     16  C   UNL     1       3.987  14.030  18.375  0.00  0.00    +0.000 C 
ATOM     17  O   UNL     1       2.963  14.104  19.359  0.00  0.00    +0.000 OA
ENDBRANCH  10  17
ENDBRANCH   4  15
ENDBRANCH   2   7
ENDBRANCH   1   2
BRANCH   1  18
ATOM     18  C   UNL     1       1.848   7.946  20.743  0.00  0.00    +0.000 C 
BRANCH  18  19
ATOM     19  N   UNL     1       2.000   6.962  19.685  0.00  0.00    +0.000 N 
ATOM     20  C   UNL     1       2.365   7.483  18.444  0.00  0.00    +0.000 C 
ATOM     21  O   UNL     1       1.820   8.430  17.885  0.00  0.00    +0.000 OA
ATOM     22  C   UNL     1       3.593   6.788  17.941  0.00  0.00    +0.000 C 
ATOM     23  O   UNL     1       4.241   7.237  16.777  0.00  0.00    +0.000 OA
ATOM     24  C   UNL     1       4.931   6.102  16.441  0.00  0.00    +0.000 A 
ATOM     25  C   UNL     1       6.035   6.134  15.612  0.00  0.00    +0.000 A 
ATOM     26  C   UNL     1       6.602   4.916  15.258  0.00  0.00    +0.000 A 
ATOM     27  C   UNL     1       6.026   3.720  15.715  0.00  0.00    +0.000 A 
ATOM     28  C   UNL     1       4.910   3.712  16.573  0.00  0.00    +0.000 A 
ATOM     29  C   UNL     1       4.384   4.928  16.986  0.00  0.00    +0.000 A 
ATOM     30  C   UNL     1       3.186   5.317  17.806  0.00  0.00    +0.000 C 
ATOM     31  N   UNL     1       2.918   4.828  19.163  0.00  0.00    +0.000 N 
ATOM     32  C   UNL     1       3.048   3.430  19.531  0.00  0.00    +0.000 C 
ATOM     33  C   UNL     1       2.158   5.621  20.044  0.00  0.00    +0.000 C 
ATOM     34  O   UNL     1       1.701   5.173  21.096  0.00  0.00    +0.000 OA
ENDBRANCH  18  19
ENDBRANCH   1  18
TORSDOF 6
ENDMDL
MODEL 2
REMARK VINA RESULT:      -7.9      1.019      1.668
REMARK  Name = 
REMARK  9 active torsions:
REMARK  status: ('A' for Active; 'I' for Inactive)
REMARK    1  A    between atoms: C_1  and  O_2
REMARK    2  A    between atoms: O_2  and  C_3
REMARK    3  A    between atoms: C_8  and  N_9
REMARK    4  A    between atoms: N_12  and  C_13
REMARK    5  A    between atoms: C_13  and  C_14
REMARK    6  A    between atoms: C_13  and  C_15
REMARK    7  A    between atoms: C_15  and  C_16
REMARK    8  A    between atoms: C_16  and  N_17
REMARK    9  A    between atoms: N_29  and  C_30
REMARK                            x       y       z     vdW  Elec       q    Type
REMARK                         _______ _______ _______ _____ _____    ______ ____
ROOT
ATOM      1  C   UNL     1       0.604   9.152  20.351  0.00  0.00    +0.000 C 
ENDROOT
BRANCH   1   2
ATOM      2  C   UNL     1       0.585  10.274  21.424  0.00  0.00    +0.000 C 
ATOM      3  C   UNL     1       0.118   9.662  22.745  0.00  0.00    +0.000 C 
BRANCH   2   7
ATOM      4  N   UNL     1       1.384  13.601  19.498  0.00  0.00    +0.000 N 
ATOM      5  C   UNL     1       1.581  13.428  20.944  0.00  0.00    +0.000 C 
ATOM      6  C   UNL     1       0.321  12.785  21.559  0.00  0.00    +0.000 C 
ATOM      7  N   UNL     1      -0.092  11.498  20.956  0.00  0.00    +0.000 NA
ATOM      8  C   UNL     1      -0.178  11.664  19.486  0.00  0.00    +0.000 C 
ATOM      9  C   UNL     1       1.008  12.373  18.781  0.00  0.00    +0.000 C 
BRANCH   4  15
ATOM     10  C   UNL     1       1.240  15.963  18.788  0.00  0.00    +0.000 A 
ATOM     11  C   UNL     1       1.750  17.016  18.013  0.00  0.00    +0.000 A 
ATOM     12  C   UNL     1       2.928  16.864  17.289  0.00  0.00    +0.000 A 
ATOM     13  C   UNL     1       3.606  15.657  17.334  0.00  0.00    +0.000 A 
ATOM     14  C   UNL     1       3.096  14.599  18.093  0.00  0.00    +0.000 A 
ATOM     15  C   UNL     1       1.897  14.705  18.827  0.00  0.00    +0.000 A 
BRANCH  10  17
ATOM     16  C   UNL     1      -0.007  16.979  20.526  0.00  0.00    +0.000 C 
ATOM     17  O   UNL     1       0.022  16.085  19.421  0.00  0.00    +0.000 OA
ENDBRANCH  10  17
ENDBRANCH   4  15
ENDBRANCH   2   7
ENDBRANCH   1   2
BRANCH   1  18
ATOM     18  C   UNL     1       1.818   8.253  20.535  0.00  0.00    +0.000 C 
BRANCH  18  19
ATOM     19  N   UNL     1       1.978   7.199  19.548  0.00  0.00    +0.000 N 
ATOM     20  C   UNL     1       2.372   7.632  18.282  0.00  0.00    +0.000 C 
ATOM     21  O   UNL     1       1.849   8.545  17.651  0.00  0.00    +0.000 OA
ATOM     22  C   UNL     1       3.600   6.891  17.850  0.00  0.00    +0.000 C 
ATOM     23  O   UNL     1       4.276   7.255  16.671  0.00  0.00    +0.000 OA
ATOM     24  C   UNL     1       4.958   6.093  16.425  0.00  0.00    +0.000 A 
ATOM     25  C   UNL     1       6.078   6.057  15.618  0.00  0.00    +0.000 A 
ATOM     26  C   UNL     1       6.636   4.812  15.356  0.00  0.00    +0.000 A 
ATOM     27  C   UNL     1       6.037   3.655  15.880  0.00  0.00    +0.000 A 
ATOM     28  C   UNL     1       4.905   3.717  16.715  0.00  0.00    +0.000 A 
ATOM     29  C   UNL     1       4.387   4.963  17.036  0.00  0.00    +0.000 A 
ATOM     30  C   UNL     1       3.179   5.419  17.805  0.00  0.00    +0.000 C 
ATOM     31  N   UNL     1       2.879   5.024  19.186  0.00  0.00    +0.000 N 
ATOM     32  C   UNL     1       2.985   3.652  19.648  0.00  0.00    +0.000 C 
ATOM     33  C   UNL     1       2.112   5.883  19.998  0.00  0.00    +0.000 C 
ATOM     34  O   UNL     1       1.631   5.511  21.068  0.00  0.00    +0.000 OA
ENDBRANCH  18  19
ENDBRANCH   1  18
TORSDOF 6
ENDMDL
MODEL 3
REMARK VINA RESULT:      -7.7      2.562      3.646
REMARK  Name = 
REMARK  9 active torsions:
REMARK  status: ('A' for Active; 'I' for Inactive)
REMARK    1  A    between atoms: C_1  and  O_2
REMARK    2  A    between atoms: O_2  and  C_3
REMARK    3  A    between atoms: C_8  and  N_9
REMARK    4  A    between atoms: N_12  and  C_13
REMARK    5  A    between atoms: C_13  and  C_14
REMARK    6  A    between atoms: C_13  and  C_15
REMARK    7  A    between atoms: C_15  and  C_16
REMARK    8  A    between atoms: C_16  and  N_17
REMARK    9  A    between atoms: N_29  and  C_30
REMARK                            x       y       z     vdW  Elec       q    Type
REMARK                         _______ _______ _______ _____ _____    ______ ____
ROOT
ATOM      1  C   UNL     1       0.580   8.643  20.847  0.00  0.00    +0.000 C 
ENDROOT
BRANCH   1   2
ATOM      2  C   UNL     1       0.674  10.069  21.453  0.00  0.00    +0.000 C 
ATOM      3  C   UNL     1      -0.091  10.076  22.777  0.00  0.00    +0.000 C 
BRANCH   2   7
ATOM      4  N   UNL     1      -2.374  11.462  19.406  0.00  0.00    +0.000 N 
ATOM      5  C   UNL     1      -1.543  10.332  18.966  0.00  0.00    +0.000 C 
ATOM      6  C   UNL     1      -0.053  10.703  19.116  0.00  0.00    +0.000 C 
ATOM      7  N   UNL     1       0.361  11.126  20.472  0.00  0.00    +0.000 NA
ATOM      8  C   UNL     1      -0.557  12.189  20.943  0.00  0.00    +0.000 C 
ATOM      9  C   UNL     1      -2.079  11.946  20.763  0.00  0.00    +0.000 C 
BRANCH   4  15
ATOM     10  C   UNL     1      -3.815  11.492  17.400  0.00  0.00    +0.000 A 
ATOM     11  C   UNL     1      -5.005  11.910  16.783  0.00  0.00    +0.000 A 
ATOM     12  C   UNL     1      -5.990  12.574  17.508  0.00  0.00    +0.000 A 
ATOM     13  C   UNL     1      -5.792  12.825  18.857  0.00  0.00    +0.000 A 
ATOM     14  C   UNL     1      -4.603  12.425  19.473  0.00  0.00    +0.000 A 
ATOM     15  C   UNL     1      -3.573  11.766  18.772  0.00  0.00    +0.000 A 
BRANCH  10  17
ATOM     16  C   UNL     1      -3.032  10.870  15.254  0.00  0.00    +0.000 C 
ATOM     17  O   UNL     1      -2.802  10.927  16.656  0.00  0.00    +0.000 OA
ENDBRANCH  10  17
ENDBRANCH   4  15
ENDBRANCH   2   7
ENDBRANCH   1   2
BRANCH   1  18
ATOM     18  C   UNL     1       1.967   8.044  20.665  0.00  0.00    +0.000 C 
BRANCH  18  19
ATOM     19  N   UNL     1       2.090   7.039  19.622  0.00  0.00    +0.000 N 
ATOM     20  C   UNL     1       2.465   7.530  18.372  0.00  0.00    +0.000 C 
ATOM     21  O   UNL     1       1.946   8.482  17.799  0.00  0.00    +0.000 OA
ATOM     22  C   UNL     1       3.671   6.791  17.878  0.00  0.00    +0.000 C 
ATOM     23  O   UNL     1       4.329   7.203  16.705  0.00  0.00    +0.000 OA
ATOM     24  C   UNL     1       4.986   6.044  16.386  0.00  0.00    +0.000 A 
ATOM     25  C   UNL     1       6.088   6.031  15.555  0.00  0.00    +0.000 A 
ATOM     26  C   UNL     1       6.619   4.791  15.219  0.00  0.00    +0.000 A 
ATOM     27  C   UNL     1       6.010   3.619  15.697  0.00  0.00    +0.000 A 
ATOM     28  C   UNL     1       4.897   3.658  16.558  0.00  0.00    +0.000 A 
ATOM     29  C   UNL     1       4.407   4.894  16.951  0.00  0.00    +0.000 A 
ATOM     30  C   UNL     1       3.223   5.330  17.768  0.00  0.00    +0.000 C 
ATOM     31  N   UNL     1       2.945   4.871  19.133  0.00  0.00    +0.000 N 
ATOM     32  C   UNL     1       3.035   3.476  19.524  0.00  0.00    +0.000 C 
ATOM     33  C   UNL     1       2.209   5.700  20.003  0.00  0.00    +0.000 C 
ATOM     34  O   UNL     1       1.744   5.282  21.063  0.00  0.00    +0.000 OA
ENDBRANCH  18  19
ENDBRANCH   1  18
TORSDOF 6
ENDMDL
MODEL 4
REMARK VINA RESULT:      -7.5      2.650      4.012
REMARK  Name = 
REMARK  9 active torsions:
REMARK  status: ('A' for Active; 'I' for Inactive)
REMARK    1  A    between atoms: C_1  and  O_2
REMARK    2  A    between atoms: O_2  and  C_3
REMARK    3  A    between atoms: C_8  and  N_9
REMARK    4  A    between atoms: N_12  and  C_13
REMARK    5  A    between atoms: C_13  and  C_14
REMARK    6  A    between atoms: C_13  and  C_15
REMARK    7  A    between atoms: C_15  and  C_16
REMARK    8  A    between atoms: C_16  and  N_17
REMARK    9  A    between atoms: N_29  and  C_30
REMARK                            x       y       z     vdW  Elec       q    Type
REMARK                         _______ _______ _______ _____ _____    ______ ____
ROOT
ATOM      1  C   UNL     1       0.452   8.253  21.016  0.00  0.00    +0.000 C 
ENDROOT
BRANCH   1   2
ATOM      2  C   UNL     1      -0.095   9.684  20.765  0.00  0.00    +0.000 C 
ATOM      3  C   UNL     1       0.260  10.087  19.334  0.00  0.00    +0.000 C 
BRANCH   2   7
ATOM      4  N   UNL     1      -1.731  12.551  22.891  0.00  0.00    +0.000 N 
ATOM      5  C   UNL     1      -1.118  12.762  21.572  0.00  0.00    +0.000 C 
ATOM      6  C   UNL     1       0.259  12.068  21.530  0.00  0.00    +0.000 C 
ATOM      7  N   UNL     1       0.250  10.623  21.849  0.00  0.00    +0.000 NA
ATOM      8  C   UNL     1      -0.469  10.420  23.129  0.00  0.00    +0.000 C 
ATOM      9  C   UNL     1      -1.831  11.143  23.302  0.00  0.00    +0.000 C 
BRANCH   4  15
ATOM     10  C   UNL     1      -3.917  13.575  23.417  0.00  0.00    +0.000 A 
ATOM     11  C   UNL     1      -4.639  14.650  23.960  0.00  0.00    +0.000 A 
ATOM     12  C   UNL     1      -3.988  15.689  24.616  0.00  0.00    +0.000 A 
ATOM     13  C   UNL     1      -2.607  15.663  24.734  0.00  0.00    +0.000 A 
ATOM     14  C   UNL     1      -1.880  14.603  24.183  0.00  0.00    +0.000 A 
ATOM     15  C   UNL     1      -2.499  13.540  23.496  0.00  0.00    +0.000 A 
BRANCH  10  17
ATOM     16  C   UNL     1      -5.677  13.044  21.926  0.00  0.00    +0.000 C 
ATOM     17  O   UNL     1      -4.557  12.602  22.682  0.00  0.00    +0.000 OA
ENDBRANCH  10  17
ENDBRANCH   4  15
ENDBRANCH   2   7
ENDBRANCH   1   2
BRANCH   1  18
ATOM     18  C   UNL     1       1.860   8.110  20.456  0.00  0.00    +0.000 C 
BRANCH  18  19
ATOM     19  N   UNL     1       2.042   7.061  19.467  0.00  0.00    +0.000 N 
ATOM     20  C   UNL     1       2.423   7.505  18.201  0.00  0.00    +0.000 C 
ATOM     21  O   UNL     1       1.879   8.406  17.572  0.00  0.00    +0.000 OA
ATOM     22  C   UNL     1       3.668   6.793  17.766  0.00  0.00    +0.000 C 
ATOM     23  O   UNL     1       4.333   7.173  16.586  0.00  0.00    +0.000 OA
ATOM     24  C   UNL     1       5.040   6.027  16.337  0.00  0.00    +0.000 A 
ATOM     25  C   UNL     1       6.159   6.018  15.528  0.00  0.00    +0.000 A 
ATOM     26  C   UNL     1       6.745   4.787  15.263  0.00  0.00    +0.000 A 
ATOM     27  C   UNL     1       6.174   3.616  15.787  0.00  0.00    +0.000 A 
ATOM     28  C   UNL     1       5.042   3.651  16.625  0.00  0.00    +0.000 A 
ATOM     29  C   UNL     1       4.496   4.884  16.947  0.00  0.00    +0.000 A 
ATOM     30  C   UNL     1       3.279   5.311  17.720  0.00  0.00    +0.000 C 
ATOM     31  N   UNL     1       2.992   4.908  19.100  0.00  0.00    +0.000 N 
ATOM     32  C   UNL     1       3.130   3.539  19.561  0.00  0.00    +0.000 C 
ATOM     33  C   UNL     1       2.207   5.748  19.915  0.00  0.00    +0.000 C 
ATOM     34  O   UNL     1       1.737   5.364  20.985  0.00  0.00    +0.000 OA
ENDBRANCH  18  19
ENDBRANCH   1  18
TORSDOF 6
ENDMDL
MODEL 5
REMARK VINA RESULT:      -7.4      2.997      9.165
REMARK  Name = 
REMARK  9 active torsions:
REMARK  status: ('A' for Active; 'I' for Inactive)
REMARK    1  A    between atoms: C_1  and  O_2
REMARK    2  A    between atoms: O_2  and  C_3
REMARK    3  A    between atoms: C_8  and  N_9
REMARK    4  A    between atoms: N_12  and  C_13
REMARK    5  A    between atoms: C_13  and  C_14
REMARK    6  A    between atoms: C_13  and  C_15
REMARK    7  A    between atoms: C_15  and  C_16
REMARK    8  A    between atoms: C_16  and  N_17
REMARK    9  A    between atoms: N_29  and  C_30
REMARK                            x       y       z     vdW  Elec       q    Type
REMARK                         _______ _______ _______ _____ _____    ______ ____
ROOT
ATOM      1  C   UNL     1       1.882   6.662  18.777  0.00  0.00    +0.000 C 
ENDROOT
BRANCH   1   2
ATOM      2  C   UNL     1       2.187   5.269  19.391  0.00  0.00    +0.000 C 
ATOM      3  C   UNL     1       1.621   5.239  20.810  0.00  0.00    +0.000 C 
BRANCH   2   7
ATOM      4  N   UNL     1       4.781   4.665  16.505  0.00  0.00    +0.000 N 
ATOM      5  C   UNL     1       3.819   3.652  16.964  0.00  0.00    +0.000 C 
ATOM      6  C   UNL     1       3.847   3.581  18.504  0.00  0.00    +0.000 C 
ATOM      7  N   UNL     1       3.592   4.860  19.203  0.00  0.00    +0.000 NA
ATOM      8  C   UNL     1       4.495   5.896  18.648  0.00  0.00    +0.000 C 
ATOM      9  C   UNL     1       4.599   5.996  17.104  0.00  0.00    +0.000 C 
BRANCH   4  15
ATOM     10  C   UNL     1       6.877   4.857  15.212  0.00  0.00    +0.000 A 
ATOM     11  C   UNL     1       7.540   4.752  13.979  0.00  0.00    +0.000 A 
ATOM     12  C   UNL     1       6.886   4.255  12.856  0.00  0.00    +0.000 A 
ATOM     13  C   UNL     1       5.562   3.860  12.957  0.00  0.00    +0.000 A 
ATOM     14  C   UNL     1       4.891   3.976  14.178  0.00  0.00    +0.000 A 
ATOM     15  C   UNL     1       5.511   4.489  15.335  0.00  0.00    +0.000 A 
BRANCH  10  17
ATOM     16  C   UNL     1       7.826   4.563  17.361  0.00  0.00    +0.000 C 
ATOM     17  O   UNL     1       7.498   5.442  16.294  0.00  0.00    +0.000 OA
ENDBRANCH  10  17
ENDBRANCH   4  15
ENDBRANCH   2   7
ENDBRANCH   1   2
BRANCH   1  18
ATOM     18  C   UNL     1       2.173   7.768  19.782  0.00  0.00    +0.000 C 
BRANCH  18  19
ATOM     19  N   UNL     1       1.444   9.009  19.583  0.00  0.00    +0.000 N 
ATOM     20  C   UNL     1       1.076   9.272  18.264  0.00  0.00    +0.000 C 
ATOM     21  O   UNL     1       1.827   9.218  17.295  0.00  0.00    +0.000 OA
ATOM     22  C   UNL     1      -0.398   9.525  18.187  0.00  0.00    +0.000 C 
ATOM     23  O   UNL     1      -1.034   9.669  16.941  0.00  0.00    +0.000 OA
ATOM     24  C   UNL     1      -2.163  10.339  17.331  0.00  0.00    +0.000 A 
ATOM     25  C   UNL     1      -3.307  10.360  16.556  0.00  0.00    +0.000 A 
ATOM     26  C   UNL     1      -4.361  11.149  16.999  0.00  0.00    +0.000 A 
ATOM     27  C   UNL     1      -4.221  11.907  18.172  0.00  0.00    +0.000 A 
ATOM     28  C   UNL     1      -3.052  11.855  18.955  0.00  0.00    +0.000 A 
ATOM     29  C   UNL     1      -2.024  11.016  18.554  0.00  0.00    +0.000 A 
ATOM     30  C   UNL     1      -0.634  10.758  19.065  0.00  0.00    +0.000 C 
ATOM     31  N   UNL     1      -0.318  10.362  20.442  0.00  0.00    +0.000 N 
ATOM     32  C   UNL     1      -0.908  11.010  21.598  0.00  0.00    +0.000 C 
ATOM     33  C   UNL     1       0.849   9.613  20.694  0.00  0.00    +0.000 C 
ATOM     34  O   UNL     1       1.290   9.457  21.832  0.00  0.00    +0.000 OA
ENDBRANCH  18  19
ENDBRANCH   1  18
TORSDOF 6
ENDMDL
MODEL 6
REMARK VINA RESULT:      -7.4      2.975      8.980
REMARK  Name = 
REMARK  9 active torsions:
REMARK  status: ('A' for Active; 'I' for Inactive)
REMARK    1  A    between atoms: C_1  and  O_2
REMARK    2  A    between atoms: O_2  and  C_3
REMARK    3  A    between atoms: C_8  and  N_9
REMARK    4  A    between atoms: N_12  and  C_13
REMARK    5  A    between atoms: C_13  and  C_14
REMARK    6  A    between atoms: C_13  and  C_15
REMARK    7  A    between atoms: C_15  and  C_16
REMARK    8  A    between atoms: C_16  and  N_17
REMARK    9  A    between atoms: N_29  and  C_30
REMARK                            x       y       z     vdW  Elec       q    Type
REMARK                         _______ _______ _______ _____ _____    ______ ____
ROOT
ATOM      1  C   UNL     1       1.058   6.609  20.765  0.00  0.00    +0.000 C 
ENDROOT
BRANCH   1   2
ATOM      2  C   UNL     1       1.779   5.443  20.036  0.00  0.00    +0.000 C 
ATOM      3  C   UNL     1       1.359   4.132  20.702  0.00  0.00    +0.000 C 
BRANCH   2   7
ATOM      4  N   UNL     1       4.574   5.053  17.306  0.00  0.00    +0.000 N 
ATOM      5  C   UNL     1       4.165   3.974  18.216  0.00  0.00    +0.000 C 
ATOM      6  C   UNL     1       4.101   4.517  19.658  0.00  0.00    +0.000 C 
ATOM      7  N   UNL     1       3.222   5.691  19.854  0.00  0.00    +0.000 NA
ATOM      8  C   UNL     1       3.575   6.725  18.855  0.00  0.00    +0.000 C 
ATOM      9  C   UNL     1       3.743   6.265  17.383  0.00  0.00    +0.000 C 
BRANCH   4  15
ATOM     10  C   UNL     1       6.785   5.077  16.205  0.00  0.00    +0.000 A 
ATOM     11  C   UNL     1       7.547   4.900  15.040  0.00  0.00    +0.000 A 
ATOM     12  C   UNL     1       6.964   4.422  13.871  0.00  0.00    +0.000 A 
ATOM     13  C   UNL     1       5.612   4.118  13.858  0.00  0.00    +0.000 A 
ATOM     14  C   UNL     1       4.844   4.305  15.011  0.00  0.00    +0.000 A 
ATOM     15  C   UNL     1       5.392   4.803  16.210  0.00  0.00    +0.000 A 
BRANCH  10  17
ATOM     16  C   UNL     1       7.366   7.067  17.349  0.00  0.00    +0.000 C 
ATOM     17  O   UNL     1       7.345   5.646  17.328  0.00  0.00    +0.000 OA
ENDBRANCH  10  17
ENDBRANCH   4  15
ENDBRANCH   2   7
ENDBRANCH   1   2
BRANCH   1  18
ATOM     18  C   UNL     1       1.972   7.823  20.870  0.00  0.00    +0.000 C 
BRANCH  18  19
ATOM     19  N   UNL     1       1.320   9.116  20.750  0.00  0.00    +0.000 N 
ATOM     20  C   UNL     1       1.007   9.499  19.446  0.00  0.00    +0.000 C 
ATOM     21  O   UNL     1       1.780   9.472  18.494  0.00  0.00    +0.000 OA
ATOM     22  C   UNL     1      -0.449   9.843  19.353  0.00  0.00    +0.000 C 
ATOM     23  O   UNL     1      -1.039  10.117  18.107  0.00  0.00    +0.000 OA
ATOM     24  C   UNL     1      -2.139  10.821  18.519  0.00  0.00    +0.000 A 
ATOM     25  C   UNL     1      -3.257  10.968  17.721  0.00  0.00    +0.000 A 
ATOM     26  C   UNL     1      -4.277  11.782  18.197  0.00  0.00    +0.000 A 
ATOM     27  C   UNL     1      -4.128  12.440  19.428  0.00  0.00    +0.000 A 
ATOM     28  C   UNL     1      -2.986  12.261  20.233  0.00  0.00    +0.000 A 
ATOM     29  C   UNL     1      -1.997  11.395  19.794  0.00  0.00    +0.000 A 
ATOM     30  C   UNL     1      -0.639  11.019  20.317  0.00  0.00    +0.000 C 
ATOM     31  N   UNL     1      -0.386  10.502  21.666  0.00  0.00    +0.000 N 
ATOM     32  C   UNL     1      -0.971  11.096  22.855  0.00  0.00    +0.000 C 
ATOM     33  C   UNL     1       0.729   9.669  21.889  0.00  0.00    +0.000 C 
ATOM     34  O   UNL     1       1.128   9.403  23.022  0.00  0.00    +0.000 OA
ENDBRANCH  18  19
ENDBRANCH   1  18
TORSDOF 6
ENDMDL
MODEL 7
REMARK VINA RESULT:      -7.4      3.265      9.464
REMARK  Name = 
REMARK  9 active torsions:
REMARK  status: ('A' for Active; 'I' for Inactive)
REMARK    1  A    between atoms: C_1  and  O_2
REMARK    2  A    between atoms: O_2  and  C_3
REMARK    3  A    between atoms: C_8  and  N_9
REMARK    4  A    between atoms: N_12  and  C_13
REMARK    5  A    between atoms: C_13  and  C_14
REMARK    6  A    between atoms: C_13  and  C_15
REMARK    7  A    between atoms: C_15  and  C_16
REMARK    8  A    between atoms: C_16  and  N_17
REMARK    9  A    between atoms: N_29  and  C_30
REMARK                            x       y       z     vdW  Elec       q    Type
REMARK                         _______ _______ _______ _____ _____    ______ ____
ROOT
ATOM      1  C   UNL     1       0.706  11.410  21.235  0.00  0.00    +0.000 C 
ENDROOT
BRANCH   1   2
ATOM      2  C   UNL     1       1.431  10.857  19.978  0.00  0.00    +0.000 C 
ATOM      3  C   UNL     1       1.712  12.028  19.035  0.00  0.00    +0.000 C 
BRANCH   2   7
ATOM      4  N   UNL     1       2.324   7.311  18.547  0.00  0.00    +0.000 N 
ATOM      5  C   UNL     1       2.336   8.542  17.744  0.00  0.00    +0.000 C 
ATOM      6  C   UNL     1       1.036   9.332  18.000  0.00  0.00    +0.000 C 
ATOM      7  N   UNL     1       0.766   9.666  19.416  0.00  0.00    +0.000 NA
ATOM      8  C   UNL     1       0.868   8.430  20.227  0.00  0.00    +0.000 C 
ATOM      9  C   UNL     1       2.103   7.522  19.986  0.00  0.00    +0.000 C 
BRANCH   4  15
ATOM     10  C   UNL     1       4.177   6.047  17.514  0.00  0.00    +0.000 A 
ATOM     11  C   UNL     1       4.644   4.850  16.946  0.00  0.00    +0.000 A 
ATOM     12  C   UNL     1       3.851   3.707  16.937  0.00  0.00    +0.000 A 
ATOM     13  C   UNL     1       2.583   3.752  17.494  0.00  0.00    +0.000 A 
ATOM     14  C   UNL     1       2.106   4.944  18.048  0.00  0.00    +0.000 A 
ATOM     15  C   UNL     1       2.870   6.128  18.063  0.00  0.00    +0.000 A 
BRANCH  10  17
ATOM     16  C   UNL     1       6.331   7.010  17.322  0.00  0.00    +0.000 C 
ATOM     17  O   UNL     1       4.926   7.200  17.430  0.00  0.00    +0.000 OA
ENDBRANCH  10  17
ENDBRANCH   4  15
ENDBRANCH   2   7
ENDBRANCH   1   2
BRANCH   1  18
ATOM     18  C   UNL     1       0.409  12.895  21.074  0.00  0.00    +0.000 C 
BRANCH  18  19
ATOM     19  N   UNL     1      -0.997  13.253  20.994  0.00  0.00    +0.000 N 
ATOM     20  C   UNL     1      -1.533  13.247  19.706  0.00  0.00    +0.000 C 
ATOM     21  O   UNL     1      -1.036  13.797  18.729  0.00  0.00    +0.000 OA
ATOM     22  C   UNL     1      -2.751  12.376  19.667  0.00  0.00    +0.000 C 
ATOM     23  O   UNL     1      -3.386  12.092  18.444  0.00  0.00    +0.000 OA
ATOM     24  C   UNL     1      -4.626  11.733  18.903  0.00  0.00    +0.000 A 
ATOM     25  C   UNL     1      -5.496  10.975  18.144  0.00  0.00    +0.000 A 
ATOM     26  C   UNL     1      -6.765  10.750  18.665  0.00  0.00    +0.000 A 
ATOM     27  C   UNL     1      -7.123  11.315  19.900  0.00  0.00    +0.000 A 
ATOM     28  C   UNL     1      -6.212  12.069  20.664  0.00  0.00    +0.000 A 
ATOM     29  C   UNL     1      -4.923  12.238  20.180  0.00  0.00    +0.000 A 
ATOM     30  C   UNL     1      -3.731  13.022  20.652  0.00  0.00    +0.000 C 
ATOM     31  N   UNL     1      -3.132  12.894  21.985  0.00  0.00    +0.000 N 
ATOM     32  C   UNL     1      -3.925  12.863  23.201  0.00  0.00    +0.000 C 
ATOM     33  C   UNL     1      -1.765  13.190  22.159  0.00  0.00    +0.000 C 
ATOM     34  O   UNL     1      -1.266  13.332  23.275  0.00  0.00    +0.000 OA
ENDBRANCH  18  19
ENDBRANCH   1  18
TORSDOF 6
ENDMDL
MODEL 8
REMARK VINA RESULT:      -7.4      2.557      3.766
REMARK  Name = 
REMARK  9 active torsions:
REMARK  status: ('A' for Active; 'I' for Inactive)
REMARK    1  A    between atoms: C_1  and  O_2
REMARK    2  A    between atoms: O_2  and  C_3
REMARK    3  A    between atoms: C_8  and  N_9
REMARK    4  A    between atoms: N_12  and  C_13
REMARK    5  A    between atoms: C_13  and  C_14
REMARK    6  A    between atoms: C_13  and  C_15
REMARK    7  A    between atoms: C_15  and  C_16
REMARK    8  A    between atoms: C_16  and  N_17
REMARK    9  A    between atoms: N_29  and  C_30
REMARK                            x       y       z     vdW  Elec       q    Type
REMARK                         _______ _______ _______ _____ _____    ______ ____
ROOT
ATOM      1  C   UNL     1       0.754   8.408  21.009  0.00  0.00    +0.000 C 
ENDROOT
BRANCH   1   2
ATOM      2  C   UNL     1       0.911   9.719  21.825  0.00  0.00    +0.000 C 
ATOM      3  C   UNL     1       0.285   9.502  23.203  0.00  0.00    +0.000 C 
BRANCH   2   7
ATOM      4  N   UNL     1      -1.442  10.727  18.848  0.00  0.00    +0.000 N 
ATOM      5  C   UNL     1      -0.070  10.231  18.672  0.00  0.00    +0.000 C 
ATOM      6  C   UNL     1       0.873  10.981  19.635  0.00  0.00    +0.000 C 
ATOM      7  N   UNL     1       0.501  10.915  21.065  0.00  0.00    +0.000 NA
ATOM      8  C   UNL     1      -0.918  11.313  21.209  0.00  0.00    +0.000 C 
ATOM      9  C   UNL     1      -1.939  10.674  20.231  0.00  0.00    +0.000 C 
BRANCH   4  15
ATOM     10  C   UNL     1      -3.510  11.605  17.820  0.00  0.00    +0.000 A 
ATOM     11  C   UNL     1      -4.403  11.610  16.737  0.00  0.00    +0.000 A 
ATOM     12  C   UNL     1      -4.120  10.899  15.575  0.00  0.00    +0.000 A 
ATOM     13  C   UNL     1      -2.941  10.176  15.487  0.00  0.00    +0.000 A 
ATOM     14  C   UNL     1      -2.055  10.155  16.568  0.00  0.00    +0.000 A 
ATOM     15  C   UNL     1      -2.311  10.846  17.769  0.00  0.00    +0.000 A 
BRANCH  10  17
ATOM     16  C   UNL     1      -5.210  12.131  19.382  0.00  0.00    +0.000 C 
ATOM     17  O   UNL     1      -3.843  12.226  19.004  0.00  0.00    +0.000 OA
ENDBRANCH  10  17
ENDBRANCH   4  15
ENDBRANCH   2   7
ENDBRANCH   1   2
BRANCH   1  18
ATOM     18  C   UNL     1       2.104   7.733  20.812  0.00  0.00    +0.000 C 
BRANCH  18  19
ATOM     19  N   UNL     1       2.203   6.841  19.669  0.00  0.00    +0.000 N 
ATOM     20  C   UNL     1       2.706   7.425  18.507  0.00  0.00    +0.000 C 
ATOM     21  O   UNL     1       2.316   8.481  18.019  0.00  0.00    +0.000 OA
ATOM     22  C   UNL     1       3.869   6.629  18.000  0.00  0.00    +0.000 C 
ATOM     23  O   UNL     1       4.640   7.099  16.921  0.00  0.00    +0.000 OA
ATOM     24  C   UNL     1       5.207   5.922  16.509  0.00  0.00    +0.000 A 
ATOM     25  C   UNL     1       6.357   5.891  15.745  0.00  0.00    +0.000 A 
ATOM     26  C   UNL     1       6.792   4.649  15.300  0.00  0.00    +0.000 A 
ATOM     27  C   UNL     1       6.048   3.498  15.604  0.00  0.00    +0.000 A 
ATOM     28  C   UNL     1       4.887   3.553  16.399  0.00  0.00    +0.000 A 
ATOM     29  C   UNL     1       4.488   4.781  16.904  0.00  0.00    +0.000 A 
ATOM     30  C   UNL     1       3.297   5.241  17.697  0.00  0.00    +0.000 C 
ATOM     31  N   UNL     1       2.886   4.665  18.982  0.00  0.00    +0.000 N 
ATOM     32  C   UNL     1       2.821   3.234  19.214  0.00  0.00    +0.000 C 
ATOM     33  C   UNL     1       2.173   5.463  19.899  0.00  0.00    +0.000 C 
ATOM     34  O   UNL     1       1.600   4.980  20.876  0.00  0.00    +0.000 OA
ENDBRANCH  18  19
ENDBRANCH   1  18
TORSDOF 6
ENDMDL
MODEL 9
REMARK VINA RESULT:      -7.4      1.237      1.765
REMARK  Name = 
REMARK  9 active torsions:
REMARK  status: ('A' for Active; 'I' for Inactive)
REMARK    1  A    between atoms: C_1  and  O_2
REMARK    2  A    between atoms: O_2  and  C_3
REMARK    3  A    between atoms: C_8  and  N_9
REMARK    4  A    between atoms: N_12  and  C_13
REMARK    5  A    between atoms: C_13  and  C_14
REMARK    6  A    between atoms: C_13  and  C_15
REMARK    7  A    between atoms: C_15  and  C_16
REMARK    8  A    between atoms: C_16  and  N_17
REMARK    9  A    between atoms: N_29  and  C_30
REMARK                            x       y       z     vdW  Elec       q    Type
REMARK                         _______ _______ _______ _____ _____    ______ ____
ROOT
ATOM      1  C   UNL     1       0.445   8.447  21.147  0.00  0.00    +0.000 C 
ENDROOT
BRANCH   1   2
ATOM      2  C   UNL     1       0.526   9.935  21.583  0.00  0.00    +0.000 C 
ATOM      3  C   UNL     1      -0.557  10.184  22.634  0.00  0.00    +0.000 C 
BRANCH   2   7
ATOM      4  N   UNL     1      -0.692  13.517  20.533  0.00  0.00    +0.000 N 
ATOM      5  C   UNL     1      -1.510  12.304  20.395  0.00  0.00    +0.000 C 
ATOM      6  C   UNL     1      -0.667  11.190  19.740  0.00  0.00    +0.000 C 
ATOM      7  N   UNL     1       0.596  10.861  20.436  0.00  0.00    +0.000 NA
ATOM      8  C   UNL     1       1.356  12.111  20.665  0.00  0.00    +0.000 C 
ATOM      9  C   UNL     1       0.578  13.320  21.248  0.00  0.00    +0.000 C 
BRANCH   4  15
ATOM     10  C   UNL     1      -0.790  15.707  19.392  0.00  0.00    +0.000 A 
ATOM     11  C   UNL     1      -1.314  17.008  19.336  0.00  0.00    +0.000 A 
ATOM     12  C   UNL     1      -2.312  17.415  20.216  0.00  0.00    +0.000 A 
ATOM     13  C   UNL     1      -2.795  16.522  21.160  0.00  0.00    +0.000 A 
ATOM     14  C   UNL     1      -2.268  15.229  21.230  0.00  0.00    +0.000 A 
ATOM     15  C   UNL     1      -1.245  14.783  20.370  0.00  0.00    +0.000 A 
BRANCH  10  17
ATOM     16  C   UNL     1       1.511  15.956  18.897  0.00  0.00    +0.000 C 
ATOM     17  O   UNL     1       0.267  15.342  18.587  0.00  0.00    +0.000 OA
ENDBRANCH  10  17
ENDBRANCH   4  15
ENDBRANCH   2   7
ENDBRANCH   1   2
BRANCH   1  18
ATOM     18  C   UNL     1       1.839   7.879  20.917  0.00  0.00    +0.000 C 
BRANCH  18  19
ATOM     19  N   UNL     1       1.963   6.937  19.818  0.00  0.00    +0.000 N 
ATOM     20  C   UNL     1       2.357   7.497  18.603  0.00  0.00    +0.000 C 
ATOM     21  O   UNL     1       1.854   8.488  18.082  0.00  0.00    +0.000 OA
ATOM     22  C   UNL     1       3.562   6.778  18.079  0.00  0.00    +0.000 C 
ATOM     23  O   UNL     1       4.237   7.252  16.940  0.00  0.00    +0.000 OA
ATOM     24  C   UNL     1       4.886   6.107  16.559  0.00  0.00    +0.000 A 
ATOM     25  C   UNL     1       5.998   6.133  15.740  0.00  0.00    +0.000 A 
ATOM     26  C   UNL     1       6.520   4.910  15.336  0.00  0.00    +0.000 A 
ATOM     27  C   UNL     1       5.895   3.718  15.736  0.00  0.00    +0.000 A 
ATOM     28  C   UNL     1       4.772   3.716  16.586  0.00  0.00    +0.000 A 
ATOM     29  C   UNL     1       4.290   4.932  17.047  0.00  0.00    +0.000 A 
ATOM     30  C   UNL     1       3.101   5.331  17.876  0.00  0.00    +0.000 C 
ATOM     31  N   UNL     1       2.802   4.793  19.208  0.00  0.00    +0.000 N 
ATOM     32  C   UNL     1       2.875   3.377  19.515  0.00  0.00    +0.000 C 
ATOM     33  C   UNL     1       2.065   5.576  20.118  0.00  0.00    +0.000 C 
ATOM     34  O   UNL     1       1.583   5.100  21.146  0.00  0.00    +0.000 OA
ENDBRANCH  18  19
ENDBRANCH   1  18
TORSDOF 6
ENDMDL
