MODEL 1
REMARK VINA RESULT:      -8.1      0.000      0.000
REMARK  Name = 
REMARK  11 active torsions:
REMARK  status: ('A' for Active; 'I' for Inactive)
REMARK    1  A    between atoms: C_1  and  O_2
REMARK    2  A    between atoms: O_2  and  C_3
REMARK    3  A    between atoms: C_3  and  C_4
REMARK    4  A    between atoms: C_4  and  C_5
REMARK    5  A    between atoms: C_8  and  O_9
REMARK    6  A    between atoms: C_10  and  C_11
REMARK    7  A    between atoms: C_11  and  C_13
REMARK    8  A    between atoms: C_16  and  O_17
REMARK    9  A    between atoms: O_17  and  C_18
REMARK   10  A    between atoms: C_19  and  C_20
REMARK   11  A    between atoms: C_22  and  C_23
REMARK                            x       y       z     vdW  Elec       q    Type
REMARK                         _______ _______ _______ _____ _____    ______ ____
ROOT
ATOM      1  C   UNL     1       4.303   3.249  18.060  0.00  0.00    +0.000 C 
ATOM      2  C   UNL     1       2.847   3.318  17.698  0.00  0.00    +0.000 C 
ATOM      3  O   UNL     1       2.080   2.380  17.540  0.00  0.00    +0.000 OA
ATOM      4  C   UNL     1       2.377   4.713  17.647  0.00  0.00    +0.000 C 
ATOM      5  C   UNL     1       3.459   5.502  17.728  0.00  0.00    +0.000 C 
ATOM      6  C   UNL     1       4.747   4.697  17.730  0.00  0.00    +0.000 C 
ENDROOT
BRANCH   6   7
ATOM      7  C   UNL     1       5.538   4.731  16.418  0.00  0.00    +0.000 A 
ATOM      8  C   UNL     1       5.122   3.970  15.305  0.00  0.00    +0.000 A 
ATOM      9  C   UNL     1       5.832   4.000  14.101  0.00  0.00    +0.000 A 
ATOM     10  C   UNL     1       6.972   4.788  13.987  0.00  0.00    +0.000 A 
ATOM     11 CL   UNL     1       7.832   4.838  12.499  0.00  0.00    +0.000 Cl
ATOM     12  C   UNL     1       7.424   5.526  15.074  0.00  0.00    +0.000 A 
ATOM     13  C   UNL     1       6.724   5.485  16.284  0.00  0.00    +0.000 A 
ATOM     14 CL   UNL     1       7.390   6.395  17.597  0.00  0.00    +0.000 Cl
ENDBRANCH   6   7
BRANCH   4  15
ATOM     15  O   UNL     1       1.056   5.021  17.556  0.00  0.00    +0.000 OA
ATOM     16  H   UNL     1       0.999   5.818  16.992  0.00  0.00    +0.000 HD
ENDBRANCH   4  15
BRANCH   5  17
ATOM     17  C   UNL     1       3.321   6.977  17.903  0.00  0.00    +0.000 C 
ATOM     18  O   UNL     1       4.004   7.756  17.241  0.00  0.00    +0.000 OA
BRANCH  17  19
ATOM     19  C   UNL     1       2.382   7.576  18.892  0.00  0.00    +0.000 A 
ATOM     20  C   UNL     1       2.109   7.039  20.137  0.00  0.00    +0.000 A 
ATOM     21  C   UNL     1       1.279   7.720  21.027  0.00  0.00    +0.000 A 
ATOM     22  C   UNL     1       0.630   8.916  20.682  0.00  0.00    +0.000 A 
ATOM     23  C   UNL     1       0.800   9.423  19.387  0.00  0.00    +0.000 A 
ATOM     24  C   UNL     1       0.221  10.690  18.824  0.00  0.00    +0.000 C 
ATOM     25  C   UNL     1       1.687   8.737  18.513  0.00  0.00    +0.000 A 
BRANCH  22  26
ATOM     26  O   UNL     1      -0.079   9.382  21.749  0.00  0.00    +0.000 OA
ATOM     27  C   UNL     1       0.483   9.449  23.041  0.00  0.00    +0.000 C 
ENDBRANCH  22  26
ENDBRANCH  17  19
ENDBRANCH   5  17
BRANCH   1  28
ATOM     28  C   UNL     1       4.465   2.945  19.562  0.00  0.00    +0.000 C 
BRANCH  28  29
ATOM     29  C   UNL     1       3.208   2.368  20.205  0.00  0.00    +0.000 C 
BRANCH  29  31
ATOM     30  C   UNL     1       1.291   3.435  21.043  0.00  0.00    +0.000 C 
ATOM     31  O   UNL     1       2.704   3.310  21.147  0.00  0.00    +0.000 OA
ENDBRANCH  29  31
ENDBRANCH  28  29
ENDBRANCH   1  28
TORSDOF 8
ENDMDL
MODEL 2
REMARK VINA RESULT:      -8.0      2.712      5.052
REMARK  Name = 
REMARK  11 active torsions:
REMARK  status: ('A' for Active; 'I' for Inactive)
REMARK    1  A    between atoms: C_1  and  O_2
REMARK    2  A    between atoms: O_2  and  C_3
REMARK    3  A    between atoms: C_3  and  C_4
REMARK    4  A    between atoms: C_4  and  C_5
REMARK    5  A    between atoms: C_8  and  O_9
REMARK    6  A    between atoms: C_10  and  C_11
REMARK    7  A    between atoms: C_11  and  C_13
REMARK    8  A    between atoms: C_16  and  O_17
REMARK    9  A    between atoms: O_17  and  C_18
REMARK   10  A    between atoms: C_19  and  C_20
REMARK   11  A    between atoms: C_22  and  C_23
REMARK                            x       y       z     vdW  Elec       q    Type
REMARK                         _______ _______ _______ _____ _____    ______ ____
ROOT
ATOM      1  C   UNL     1       5.665   3.793  16.799  0.00  0.00    +0.000 C 
ATOM      2  C   UNL     1       6.667   4.776  17.333  0.00  0.00    +0.000 C 
ATOM      3  O   UNL     1       7.853   4.577  17.551  0.00  0.00    +0.000 OA
ATOM      4  C   UNL     1       6.072   6.115  17.484  0.00  0.00    +0.000 C 
ATOM      5  C   UNL     1       4.749   5.987  17.300  0.00  0.00    +0.000 C 
ATOM      6  C   UNL     1       4.342   4.535  17.119  0.00  0.00    +0.000 C 
ENDROOT
BRANCH   6   7
ATOM      7  C   UNL     1       3.648   3.898  18.328  0.00  0.00    +0.000 A 
ATOM      8  C   UNL     1       4.401   3.281  19.349  0.00  0.00    +0.000 A 
ATOM      9  C   UNL     1       3.778   2.705  20.461  0.00  0.00    +0.000 A 
ATOM     10  C   UNL     1       2.393   2.731  20.572  0.00  0.00    +0.000 A 
ATOM     11 CL   UNL     1       1.632   2.039  21.949  0.00  0.00    +0.000 Cl
ATOM     12  C   UNL     1       1.622   3.306  19.569  0.00  0.00    +0.000 A 
ATOM     13  C   UNL     1       2.241   3.869  18.449  0.00  0.00    +0.000 A 
ATOM     14 CL   UNL     1       1.199   4.515  17.228  0.00  0.00    +0.000 Cl
ENDBRANCH   6   7
BRANCH   4  15
ATOM     15  O   UNL     1       6.832   7.212  17.740  0.00  0.00    +0.000 OA
ATOM     16  H   UNL     1       6.932   7.255  18.712  0.00  0.00    +0.000 HD
ENDBRANCH   4  15
BRANCH   5  17
ATOM     17  C   UNL     1       3.871   7.187  17.188  0.00  0.00    +0.000 C 
ATOM     18  O   UNL     1       3.921   7.914  16.198  0.00  0.00    +0.000 OA
BRANCH  17  19
ATOM     19  C   UNL     1       2.919   7.579  18.264  0.00  0.00    +0.000 A 
ATOM     20  C   UNL     1       2.771   6.905  19.463  0.00  0.00    +0.000 A 
ATOM     21  C   UNL     1       1.912   7.399  20.444  0.00  0.00    +0.000 A 
ATOM     22  C   UNL     1       1.113   8.534  20.238  0.00  0.00    +0.000 A 
ATOM     23  C   UNL     1       1.159   9.171  18.991  0.00  0.00    +0.000 A 
ATOM     24  C   UNL     1       0.409  10.404  18.571  0.00  0.00    +0.000 C 
ATOM     25  C   UNL     1       2.076   8.676  18.023  0.00  0.00    +0.000 A 
BRANCH  22  26
ATOM     26  O   UNL     1       0.407   8.815  21.370  0.00  0.00    +0.000 OA
ATOM     27  C   UNL     1       0.756   9.891  22.213  0.00  0.00    +0.000 C 
ENDBRANCH  22  26
ENDBRANCH  17  19
ENDBRANCH   5  17
BRANCH   1  28
ATOM     28  C   UNL     1       5.850   3.616  15.280  0.00  0.00    +0.000 C 
BRANCH  28  29
ATOM     29  C   UNL     1       6.929   4.518  14.689  0.00  0.00    +0.000 C 
BRANCH  29  31
ATOM     30  C   UNL     1       5.939   3.471  12.834  0.00  0.00    +0.000 C 
ATOM     31  O   UNL     1       6.798   4.517  13.271  0.00  0.00    +0.000 OA
ENDBRANCH  29  31
ENDBRANCH  28  29
ENDBRANCH   1  28
TORSDOF 8
ENDMDL
MODEL 3
REMARK VINA RESULT:      -7.7      0.982      1.251
REMARK  Name = 
REMARK  11 active torsions:
REMARK  status: ('A' for Active; 'I' for Inactive)
REMARK    1  A    between atoms: C_1  and  O_2
REMARK    2  A    between atoms: O_2  and  C_3
REMARK    3  A    between atoms: C_3  and  C_4
REMARK    4  A    between atoms: C_4  and  C_5
REMARK    5  A    between atoms: C_8  and  O_9
REMARK    6  A    between atoms: C_10  and  C_11
REMARK    7  A    between atoms: C_11  and  C_13
REMARK    8  A    between atoms: C_16  and  O_17
REMARK    9  A    between atoms: O_17  and  C_18
REMARK   10  A    between atoms: C_19  and  C_20
REMARK   11  A    between atoms: C_22  and  C_23
REMARK                            x       y       z     vdW  Elec       q    Type
REMARK                         _______ _______ _______ _____ _____    ______ ____
ROOT
ATOM      1  C   UNL     1       4.370   3.266  18.113  0.00  0.00    +0.000 C 
ATOM      2  C   UNL     1       2.923   3.162  17.725  0.00  0.00    +0.000 C 
ATOM      3  O   UNL     1       2.257   2.143  17.623  0.00  0.00    +0.000 OA
ATOM      4  C   UNL     1       2.317   4.496  17.567  0.00  0.00    +0.000 C 
ATOM      5  C   UNL     1       3.312   5.394  17.608  0.00  0.00    +0.000 C 
ATOM      6  C   UNL     1       4.674   4.725  17.687  0.00  0.00    +0.000 C 
ENDROOT
BRANCH   6   7
ATOM      7  C   UNL     1       5.487   4.748  16.388  0.00  0.00    +0.000 A 
ATOM      8  C   UNL     1       5.036   4.060  15.242  0.00  0.00    +0.000 A 
ATOM      9  C   UNL     1       5.766   4.080  14.050  0.00  0.00    +0.000 A 
ATOM     10  C   UNL     1       6.960   4.787  13.980  0.00  0.00    +0.000 A 
ATOM     11 CL   UNL     1       7.846   4.827  12.507  0.00  0.00    +0.000 Cl
ATOM     12  C   UNL     1       7.447   5.452  15.099  0.00  0.00    +0.000 A 
ATOM     13  C   UNL     1       6.727   5.418  16.297  0.00  0.00    +0.000 A 
ATOM     14 CL   UNL     1       7.434   6.231  17.651  0.00  0.00    +0.000 Cl
ENDBRANCH   6   7
BRANCH   4  15
ATOM     15  O   UNL     1       0.975   4.661  17.434  0.00  0.00    +0.000 OA
ATOM     16  H   UNL     1       0.714   5.331  18.098  0.00  0.00    +0.000 HD
ENDBRANCH   4  15
BRANCH   5  17
ATOM     17  C   UNL     1       3.024   6.855  17.675  0.00  0.00    +0.000 C 
ATOM     18  O   UNL     1       3.354   7.605  16.759  0.00  0.00    +0.000 OA
BRANCH  17  19
ATOM     19  C   UNL     1       2.354   7.481  18.849  0.00  0.00    +0.000 A 
ATOM     20  C   UNL     1       2.231   6.883  20.091  0.00  0.00    +0.000 A 
ATOM     21  C   UNL     1       1.660   7.584  21.152  0.00  0.00    +0.000 A 
ATOM     22  C   UNL     1       1.121   8.871  20.998  0.00  0.00    +0.000 A 
ATOM     23  C   UNL     1       1.131   9.455  19.724  0.00  0.00    +0.000 A 
ATOM     24  C   UNL     1       0.631  10.821  19.346  0.00  0.00    +0.000 C 
ATOM     25  C   UNL     1       1.759   8.740  18.668  0.00  0.00    +0.000 A 
BRANCH  22  26
ATOM     26  O   UNL     1       0.670   9.332  22.199  0.00  0.00    +0.000 OA
ATOM     27  C   UNL     1      -0.662   9.133  22.617  0.00  0.00    +0.000 C 
ENDBRANCH  22  26
ENDBRANCH  17  19
ENDBRANCH   5  17
BRANCH   1  28
ATOM     28  C   UNL     1       4.528   3.086  19.634  0.00  0.00    +0.000 C 
BRANCH  28  29
ATOM     29  C   UNL     1       4.775   1.641  20.054  0.00  0.00    +0.000 C 
BRANCH  29  31
ATOM     30  C   UNL     1       5.836   0.436  21.768  0.00  0.00    +0.000 C 
ATOM     31  O   UNL     1       5.122   1.619  21.435  0.00  0.00    +0.000 OA
ENDBRANCH  29  31
ENDBRANCH  28  29
ENDBRANCH   1  28
TORSDOF 8
ENDMDL
MODEL 4
REMARK VINA RESULT:      -7.3      2.756      5.228
REMARK  Name = 
REMARK  11 active torsions:
REMARK  status: ('A' for Active; 'I' for Inactive)
REMARK    1  A    between atoms: C_1  and  O_2
REMARK    2  A    between atoms: O_2  and  C_3
REMARK    3  A    between atoms: C_3  and  C_4
REMARK    4  A    between atoms: C_4  and  C_5
REMARK    5  A    between atoms: C_8  and  O_9
REMARK    6  A    between atoms: C_10  and  C_11
REMARK    7  A    between atoms: C_11  and  C_13
REMARK    8  A    between atoms: C_16  and  O_17
REMARK    9  A    between atoms: O_17  and  C_18
REMARK   10  A    between atoms: C_19  and  C_20
REMARK   11  A    between atoms: C_22  and  C_23
REMARK                            x       y       z     vdW  Elec       q    Type
REMARK                         _______ _______ _______ _____ _____    ______ ____
ROOT
ATOM      1  C   UNL     1       5.752   3.792  16.771  0.00  0.00    +0.000 C 
ATOM      2  C   UNL     1       6.710   4.824  17.294  0.00  0.00    +0.000 C 
ATOM      3  O   UNL     1       7.886   4.660  17.584  0.00  0.00    +0.000 OA
ATOM      4  C   UNL     1       6.088   6.159  17.328  0.00  0.00    +0.000 C 
ATOM      5  C   UNL     1       4.779   5.996  17.085  0.00  0.00    +0.000 C 
ATOM      6  C   UNL     1       4.403   4.528  16.975  0.00  0.00    +0.000 C 
ENDROOT
BRANCH   6   7
ATOM      7  C   UNL     1       3.657   3.955  18.185  0.00  0.00    +0.000 A 
ATOM      8  C   UNL     1       4.362   3.378  19.261  0.00  0.00    +0.000 A 
ATOM      9  C   UNL     1       3.691   2.859  20.373  0.00  0.00    +0.000 A 
ATOM     10  C   UNL     1       2.303   2.906  20.430  0.00  0.00    +0.000 A 
ATOM     11 CL   UNL     1       1.481   2.286  21.807  0.00  0.00    +0.000 Cl
ATOM     12  C   UNL     1       1.577   3.443  19.373  0.00  0.00    +0.000 A 
ATOM     13  C   UNL     1       2.246   3.946  18.253  0.00  0.00    +0.000 A 
ATOM     14 CL   UNL     1       1.259   4.547  16.965  0.00  0.00    +0.000 Cl
ENDBRANCH   6   7
BRANCH   4  15
ATOM     15  O   UNL     1       6.817   7.283  17.554  0.00  0.00    +0.000 OA
ATOM     16  H   UNL     1       6.208   7.926  17.968  0.00  0.00    +0.000 HD
ENDBRANCH   4  15
BRANCH   5  17
ATOM     17  C   UNL     1       3.890   7.170  16.853  0.00  0.00    +0.000 C 
ATOM     18  O   UNL     1       3.890   7.755  15.772  0.00  0.00    +0.000 OA
BRANCH  17  19
ATOM     19  C   UNL     1       2.987   7.706  17.910  0.00  0.00    +0.000 A 
ATOM     20  C   UNL     1       2.318   8.914  17.829  0.00  0.00    +0.000 A 
ATOM     21  C   UNL     1       1.428   9.290  18.834  0.00  0.00    +0.000 A 
ATOM     22  C   UNL     1       1.233   8.519  19.990  0.00  0.00    +0.000 A 
ATOM     23  C   UNL     1       1.983   7.346  20.150  0.00  0.00    +0.000 A 
ATOM     24  C   UNL     1       1.912   6.371  21.291  0.00  0.00    +0.000 C 
ATOM     25  C   UNL     1       2.849   6.959  19.091  0.00  0.00    +0.000 A 
BRANCH  22  26
ATOM     26  O   UNL     1       0.283   9.098  20.778  0.00  0.00    +0.000 OA
ATOM     27  C   UNL     1       0.583  10.189  21.620  0.00  0.00    +0.000 C 
ENDBRANCH  22  26
ENDBRANCH  17  19
ENDBRANCH   5  17
BRANCH   1  28
ATOM     28  C   UNL     1       6.020   3.524  15.278  0.00  0.00    +0.000 C 
BRANCH  28  29
ATOM     29  C   UNL     1       6.575   4.733  14.532  0.00  0.00    +0.000 C 
BRANCH  29  31
ATOM     30  C   UNL     1       5.959   3.415  12.689  0.00  0.00    +0.000 C 
ATOM     31  O   UNL     1       6.909   4.338  13.206  0.00  0.00    +0.000 OA
ENDBRANCH  29  31
ENDBRANCH  28  29
ENDBRANCH   1  28
TORSDOF 8
ENDMDL
MODEL 5
REMARK VINA RESULT:      -7.2      1.215      1.835
REMARK  Name = 
REMARK  11 active torsions:
REMARK  status: ('A' for Active; 'I' for Inactive)
REMARK    1  A    between atoms: C_1  and  O_2
REMARK    2  A    between atoms: O_2  and  C_3
REMARK    3  A    between atoms: C_3  and  C_4
REMARK    4  A    between atoms: C_4  and  C_5
REMARK    5  A    between atoms: C_8  and  O_9
REMARK    6  A    between atoms: C_10  and  C_11
REMARK    7  A    between atoms: C_11  and  C_13
REMARK    8  A    between atoms: C_16  and  O_17
REMARK    9  A    between atoms: O_17  and  C_18
REMARK   10  A    between atoms: C_19  and  C_20
REMARK   11  A    between atoms: C_22  and  C_23
REMARK                            x       y       z     vdW  Elec       q    Type
REMARK                         _______ _______ _______ _____ _____    ______ ____
ROOT
ATOM      1  C   UNL     1       3.962   2.396  17.683  0.00  0.00    +0.000 C 
ATOM      2  C   UNL     1       2.562   2.914  17.520  0.00  0.00    +0.000 C 
ATOM      3  O   UNL     1       1.593   2.303  17.096  0.00  0.00    +0.000 OA
ATOM      4  C   UNL     1       2.437   4.285  18.046  0.00  0.00    +0.000 C 
ATOM      5  C   UNL     1       3.675   4.725  18.312  0.00  0.00    +0.000 C 
ATOM      6  C   UNL     1       4.735   3.724  17.883  0.00  0.00    +0.000 C 
ENDROOT
BRANCH   6   7
ATOM      7  C   UNL     1       5.503   4.095  16.610  0.00  0.00    +0.000 A 
ATOM      8  C   UNL     1       4.935   3.882  15.337  0.00  0.00    +0.000 A 
ATOM      9  C   UNL     1       5.625   4.224  14.169  0.00  0.00    +0.000 A 
ATOM     10  C   UNL     1       6.894   4.784  14.252  0.00  0.00    +0.000 A 
ATOM     11 CL   UNL     1       7.731   5.222  12.815  0.00  0.00    +0.000 Cl
ATOM     12  C   UNL     1       7.493   4.980  15.490  0.00  0.00    +0.000 A 
ATOM     13  C   UNL     1       6.812   4.623  16.658  0.00  0.00    +0.000 A 
ATOM     14 CL   UNL     1       7.656   4.857  18.151  0.00  0.00    +0.000 Cl
ENDBRANCH   6   7
BRANCH   4  15
ATOM     15  O   UNL     1       1.227   4.882  18.208  0.00  0.00    +0.000 OA
ATOM     16  H   UNL     1       0.941   4.677  19.121  0.00  0.00    +0.000 HD
ENDBRANCH   4  15
BRANCH   5  17
ATOM     17  C   UNL     1       3.893   6.005  19.044  0.00  0.00    +0.000 C 
ATOM     18  O   UNL     1       4.856   6.144  19.796  0.00  0.00    +0.000 OA
BRANCH  17  19
ATOM     19  C   UNL     1       2.958   7.158  18.927  0.00  0.00    +0.000 A 
ATOM     20  C   UNL     1       2.839   7.959  17.805  0.00  0.00    +0.000 A 
ATOM     21  C   UNL     1       1.873   8.964  17.760  0.00  0.00    +0.000 A 
ATOM     22  C   UNL     1       1.047   9.259  18.856  0.00  0.00    +0.000 A 
ATOM     23  C   UNL     1       1.224   8.538  20.044  0.00  0.00    +0.000 A 
ATOM     24  C   UNL     1       0.438   8.677  21.317  0.00  0.00    +0.000 C 
ATOM     25  C   UNL     1       2.183   7.488  20.051  0.00  0.00    +0.000 A 
BRANCH  22  26
ATOM     26  O   UNL     1       0.174  10.251  18.523  0.00  0.00    +0.000 OA
ATOM     27  C   UNL     1       0.424  11.600  18.850  0.00  0.00    +0.000 C 
ENDBRANCH  22  26
ENDBRANCH  17  19
ENDBRANCH   5  17
BRANCH   1  28
ATOM     28  C   UNL     1       4.056   1.503  18.935  0.00  0.00    +0.000 C 
BRANCH  28  29
ATOM     29  C   UNL     1       4.043   2.286  20.244  0.00  0.00    +0.000 C 
BRANCH  29  31
ATOM     30  C   UNL     1       2.433   3.362  21.574  0.00  0.00    +0.000 C 
ATOM     31  O   UNL     1       2.740   2.201  20.813  0.00  0.00    +0.000 OA
ENDBRANCH  29  31
ENDBRANCH  28  29
ENDBRANCH   1  28
TORSDOF 8
ENDMDL
MODEL 6
REMARK VINA RESULT:      -7.1      0.792      1.603
REMARK  Name = 
REMARK  11 active torsions:
REMARK  status: ('A' for Active; 'I' for Inactive)
REMARK    1  A    between atoms: C_1  and  O_2
REMARK    2  A    between atoms: O_2  and  C_3
REMARK    3  A    between atoms: C_3  and  C_4
REMARK    4  A    between atoms: C_4  and  C_5
REMARK    5  A    between atoms: C_8  and  O_9
REMARK    6  A    between atoms: C_10  and  C_11
REMARK    7  A    between atoms: C_11  and  C_13
REMARK    8  A    between atoms: C_16  and  O_17
REMARK    9  A    between atoms: O_17  and  C_18
REMARK   10  A    between atoms: C_19  and  C_20
REMARK   11  A    between atoms: C_22  and  C_23
REMARK                            x       y       z     vdW  Elec       q    Type
REMARK                         _______ _______ _______ _____ _____    ______ ____
ROOT
ATOM      1  C   UNL     1       4.116   3.431  18.100  0.00  0.00    +0.000 C 
ATOM      2  C   UNL     1       2.660   3.680  17.828  0.00  0.00    +0.000 C 
ATOM      3  O   UNL     1       1.766   2.850  17.775  0.00  0.00    +0.000 OA
ATOM      4  C   UNL     1       2.377   5.123  17.726  0.00  0.00    +0.000 C 
ATOM      5  C   UNL     1       3.557   5.759  17.691  0.00  0.00    +0.000 C 
ATOM      6  C   UNL     1       4.724   4.786  17.659  0.00  0.00    +0.000 C 
ENDROOT
BRANCH   6   7
ATOM      7  C   UNL     1       5.417   4.647  16.299  0.00  0.00    +0.000 A 
ATOM      8  C   UNL     1       4.839   3.873  15.271  0.00  0.00    +0.000 A 
ATOM      9  C   UNL     1       5.460   3.746  14.024  0.00  0.00    +0.000 A 
ATOM     10  C   UNL     1       6.669   4.388  13.782  0.00  0.00    +0.000 A 
ATOM     11 CL   UNL     1       7.419   4.246  12.241  0.00  0.00    +0.000 Cl
ATOM     12  C   UNL     1       7.278   5.134  14.783  0.00  0.00    +0.000 A 
ATOM     13  C   UNL     1       6.667   5.249  16.036  0.00  0.00    +0.000 A 
ATOM     14 CL   UNL     1       7.523   6.155  17.237  0.00  0.00    +0.000 Cl
ENDBRANCH   6   7
BRANCH   4  15
ATOM     15  O   UNL     1       1.106   5.603  17.702  0.00  0.00    +0.000 OA
ATOM     16  H   UNL     1       0.668   5.260  18.506  0.00  0.00    +0.000 HD
ENDBRANCH   4  15
BRANCH   5  17
ATOM     17  C   UNL     1       3.630   7.245  17.789  0.00  0.00    +0.000 C 
ATOM     18  O   UNL     1       4.640   7.851  17.435  0.00  0.00    +0.000 OA
BRANCH  17  19
ATOM     19  C   UNL     1       2.511   8.063  18.336  0.00  0.00    +0.000 A 
ATOM     20  C   UNL     1       1.764   8.961  17.596  0.00  0.00    +0.000 A 
ATOM     21  C   UNL     1       0.680   9.618  18.178  0.00  0.00    +0.000 A 
ATOM     22  C   UNL     1       0.351   9.466  19.534  0.00  0.00    +0.000 A 
ATOM     23  C   UNL     1       1.161   8.648  20.334  0.00  0.00    +0.000 A 
ATOM     24  C   UNL     1       0.975   8.331  21.791  0.00  0.00    +0.000 C 
ATOM     25  C   UNL     1       2.231   7.953  19.708  0.00  0.00    +0.000 A 
BRANCH  22  26
ATOM     26  O   UNL     1      -0.770  10.186  19.822  0.00  0.00    +0.000 OA
ATOM     27  C   UNL     1      -1.619  10.673  18.807  0.00  0.00    +0.000 C 
ENDBRANCH  22  26
ENDBRANCH  17  19
ENDBRANCH   5  17
BRANCH   1  28
ATOM     28  C   UNL     1       4.343   3.182  19.604  0.00  0.00    +0.000 C 
BRANCH  28  29
ATOM     29  C   UNL     1       3.407   2.133  20.195  0.00  0.00    +0.000 C 
BRANCH  29  31
ATOM     30  C   UNL     1       1.481   2.851  21.331  0.00  0.00    +0.000 C 
ATOM     31  O   UNL     1       2.883   2.628  21.422  0.00  0.00    +0.000 OA
ENDBRANCH  29  31
ENDBRANCH  28  29
ENDBRANCH   1  28
TORSDOF 8
ENDMDL
MODEL 7
REMARK VINA RESULT:      -6.9      4.495      9.419
REMARK  Name = 
REMARK  11 active torsions:
REMARK  status: ('A' for Active; 'I' for Inactive)
REMARK    1  A    between atoms: C_1  and  O_2
REMARK    2  A    between atoms: O_2  and  C_3
REMARK    3  A    between atoms: C_3  and  C_4
REMARK    4  A    between atoms: C_4  and  C_5
REMARK    5  A    between atoms: C_8  and  O_9
REMARK    6  A    between atoms: C_10  and  C_11
REMARK    7  A    between atoms: C_11  and  C_13
REMARK    8  A    between atoms: C_16  and  O_17
REMARK    9  A    between atoms: O_17  and  C_18
REMARK   10  A    between atoms: C_19  and  C_20
REMARK   11  A    between atoms: C_22  and  C_23
REMARK                            x       y       z     vdW  Elec       q    Type
REMARK                         _______ _______ _______ _____ _____    ______ ____
ROOT
ATOM      1  C   UNL     1      -1.754  13.256  20.471  0.00  0.00    +0.000 C 
ATOM      2  C   UNL     1      -0.274  13.497  20.377  0.00  0.00    +0.000 C 
ATOM      3  O   UNL     1       0.289  14.565  20.186  0.00  0.00    +0.000 OA
ATOM      4  C   UNL     1       0.485  12.266  20.654  0.00  0.00    +0.000 C 
ATOM      5  C   UNL     1      -0.395  11.254  20.691  0.00  0.00    +0.000 C 
ATOM      6  C   UNL     1      -1.799  11.713  20.334  0.00  0.00    +0.000 C 
ENDROOT
BRANCH   6   7
ATOM      7  C   UNL     1      -2.278  11.311  18.935  0.00  0.00    +0.000 A 
ATOM      8  C   UNL     1      -1.401  10.692  18.021  0.00  0.00    +0.000 A 
ATOM      9  C   UNL     1      -1.831  10.316  16.745  0.00  0.00    +0.000 A 
ATOM     10  C   UNL     1      -3.144  10.552  16.358  0.00  0.00    +0.000 A 
ATOM     11 CL   UNL     1      -3.675  10.069  14.795  0.00  0.00    +0.000 Cl
ATOM     12  C   UNL     1      -4.026  11.186  17.224  0.00  0.00    +0.000 A 
ATOM     13  C   UNL     1      -3.594  11.578  18.495  0.00  0.00    +0.000 A 
ATOM     14 CL   UNL     1      -4.746  12.407  19.485  0.00  0.00    +0.000 Cl
ENDBRANCH   6   7
BRANCH   4  15
ATOM     15  O   UNL     1       1.831  12.281  20.842  0.00  0.00    +0.000 OA
ATOM     16  H   UNL     1       2.182  11.500  20.370  0.00  0.00    +0.000 HD
ENDBRANCH   4  15
BRANCH   5  17
ATOM     17  C   UNL     1       0.018   9.895  21.146  0.00  0.00    +0.000 C 
ATOM     18  O   UNL     1      -0.308   9.477  22.256  0.00  0.00    +0.000 OA
BRANCH  17  19
ATOM     19  C   UNL     1       0.855   8.995  20.306  0.00  0.00    +0.000 A 
ATOM     20  C   UNL     1       1.313   9.308  19.039  0.00  0.00    +0.000 A 
ATOM     21  C   UNL     1       2.162   8.432  18.364  0.00  0.00    +0.000 A 
ATOM     22  C   UNL     1       2.522   7.181  18.891  0.00  0.00    +0.000 A 
ATOM     23  C   UNL     1       1.981   6.791  20.123  0.00  0.00    +0.000 A 
ATOM     24  C   UNL     1       2.250   5.516  20.871  0.00  0.00    +0.000 C 
ATOM     25  C   UNL     1       1.155   7.720  20.813  0.00  0.00    +0.000 A 
BRANCH  22  26
ATOM     26  O   UNL     1       3.389   6.555  18.046  0.00  0.00    +0.000 OA
ATOM     27  C   UNL     1       3.211   5.208  17.665  0.00  0.00    +0.000 C 
ENDBRANCH  22  26
ENDBRANCH  17  19
ENDBRANCH   5  17
BRANCH   1  28
ATOM     28  C   UNL     1      -2.281  13.708  21.847  0.00  0.00    +0.000 C 
BRANCH  28  29
ATOM     29  C   UNL     1      -2.834  12.566  22.692  0.00  0.00    +0.000 C 
BRANCH  29  31
ATOM     30  C   UNL     1      -4.286  12.534  24.538  0.00  0.00    +0.000 C 
ATOM     31  O   UNL     1      -4.115  12.943  23.187  0.00  0.00    +0.000 OA
ENDBRANCH  29  31
ENDBRANCH  28  29
ENDBRANCH   1  28
TORSDOF 8
ENDMDL
MODEL 8
REMARK VINA RESULT:      -6.9      7.750     10.584
REMARK  Name = 
REMARK  11 active torsions:
REMARK  status: ('A' for Active; 'I' for Inactive)
REMARK    1  A    between atoms: C_1  and  O_2
REMARK    2  A    between atoms: O_2  and  C_3
REMARK    3  A    between atoms: C_3  and  C_4
REMARK    4  A    between atoms: C_4  and  C_5
REMARK    5  A    between atoms: C_8  and  O_9
REMARK    6  A    between atoms: C_10  and  C_11
REMARK    7  A    between atoms: C_11  and  C_13
REMARK    8  A    between atoms: C_16  and  O_17
REMARK    9  A    between atoms: O_17  and  C_18
REMARK   10  A    between atoms: C_19  and  C_20
REMARK   11  A    between atoms: C_22  and  C_23
REMARK                            x       y       z     vdW  Elec       q    Type
REMARK                         _______ _______ _______ _____ _____    ______ ____
ROOT
ATOM      1  C   UNL     1      -0.160  12.591  18.756  0.00  0.00    +0.000 C 
ATOM      2  C   UNL     1       0.589  11.309  18.988  0.00  0.00    +0.000 C 
ATOM      3  O   UNL     1       1.314  10.725  18.197  0.00  0.00    +0.000 OA
ATOM      4  C   UNL     1       0.437  10.848  20.379  0.00  0.00    +0.000 C 
ATOM      5  C   UNL     1      -0.508  11.609  20.951  0.00  0.00    +0.000 C 
ATOM      6  C   UNL     1      -1.140  12.568  19.957  0.00  0.00    +0.000 C 
ENDROOT
BRANCH   6   7
ATOM      7  C   UNL     1      -2.550  12.187  19.492  0.00  0.00    +0.000 A 
ATOM      8  C   UNL     1      -2.754  11.087  18.634  0.00  0.00    +0.000 A 
ATOM      9  C   UNL     1      -4.037  10.727  18.210  0.00  0.00    +0.000 A 
ATOM     10  C   UNL     1      -5.139  11.460  18.634  0.00  0.00    +0.000 A 
ATOM     11 CL   UNL     1      -6.717  11.002  18.127  0.00  0.00    +0.000 Cl
ATOM     12  C   UNL     1      -4.969  12.567  19.456  0.00  0.00    +0.000 A 
ATOM     13  C   UNL     1      -3.685  12.938  19.868  0.00  0.00    +0.000 A 
ATOM     14 CL   UNL     1      -3.565  14.359  20.848  0.00  0.00    +0.000 Cl
ENDBRANCH   6   7
BRANCH   4  15
ATOM     15  O   UNL     1       1.192   9.837  20.884  0.00  0.00    +0.000 OA
ATOM     16  H   UNL     1       0.668   9.438  21.607  0.00  0.00    +0.000 HD
ENDBRANCH   4  15
BRANCH   5  17
ATOM     17  C   UNL     1      -0.766  11.536  22.418  0.00  0.00    +0.000 C 
ATOM     18  O   UNL     1      -0.316  10.610  23.091  0.00  0.00    +0.000 OA
BRANCH  17  19
ATOM     19  C   UNL     1      -1.592  12.549  23.132  0.00  0.00    +0.000 A 
ATOM     20  C   UNL     1      -1.153  13.813  23.479  0.00  0.00    +0.000 A 
ATOM     21  C   UNL     1      -2.029  14.722  24.072  0.00  0.00    +0.000 A 
ATOM     22  C   UNL     1      -3.347  14.379  24.412  0.00  0.00    +0.000 A 
ATOM     23  C   UNL     1      -3.784  13.069  24.174  0.00  0.00    +0.000 A 
ATOM     24  C   UNL     1      -5.150  12.504  24.438  0.00  0.00    +0.000 C 
ATOM     25  C   UNL     1      -2.887  12.175  23.527  0.00  0.00    +0.000 A 
BRANCH  22  26
ATOM     26  O   UNL     1      -3.987  15.463  24.935  0.00  0.00    +0.000 OA
ATOM     27  C   UNL     1      -3.486  16.771  24.769  0.00  0.00    +0.000 C 
ENDBRANCH  22  26
ENDBRANCH  17  19
ENDBRANCH   5  17
BRANCH   1  28
ATOM     28  C   UNL     1       0.801  13.792  18.845  0.00  0.00    +0.000 C 
BRANCH  28  29
ATOM     29  C   UNL     1       0.175  15.026  19.489  0.00  0.00    +0.000 C 
BRANCH  29  31
ATOM     30  C   UNL     1       0.482  17.335  19.191  0.00  0.00    +0.000 C 
ATOM     31  O   UNL     1       0.207  16.096  18.550  0.00  0.00    +0.000 OA
ENDBRANCH  29  31
ENDBRANCH  28  29
ENDBRANCH   1  28
TORSDOF 8
ENDMDL
MODEL 9
REMARK VINA RESULT:      -6.9      3.000      7.207
REMARK  Name = 
REMARK  11 active torsions:
REMARK  status: ('A' for Active; 'I' for Inactive)
REMARK    1  A    between atoms: C_1  and  O_2
REMARK    2  A    between atoms: O_2  and  C_3
REMARK    3  A    between atoms: C_3  and  C_4
REMARK    4  A    between atoms: C_4  and  C_5
REMARK    5  A    between atoms: C_8  and  O_9
REMARK    6  A    between atoms: C_10  and  C_11
REMARK    7  A    between atoms: C_11  and  C_13
REMARK    8  A    between atoms: C_16  and  O_17
REMARK    9  A    between atoms: O_17  and  C_18
REMARK   10  A    between atoms: C_19  and  C_20
REMARK   11  A    between atoms: C_22  and  C_23
REMARK                            x       y       z     vdW  Elec       q    Type
REMARK                         _______ _______ _______ _____ _____    ______ ____
ROOT
ATOM      1  C   UNL     1       3.361   3.897  18.647  0.00  0.00    +0.000 C 
ATOM      2  C   UNL     1       4.739   3.776  19.233  0.00  0.00    +0.000 C 
ATOM      3  O   UNL     1       5.072   3.120  20.209  0.00  0.00    +0.000 OA
ATOM      4  C   UNL     1       5.732   4.488  18.410  0.00  0.00    +0.000 C 
ATOM      5  C   UNL     1       5.056   5.210  17.504  0.00  0.00    +0.000 C 
ATOM      6  C   UNL     1       3.555   5.123  17.719  0.00  0.00    +0.000 C 
ENDROOT
BRANCH   6   7
ATOM      7  C   UNL     1       2.913   6.371  18.335  0.00  0.00    +0.000 A 
ATOM      8  C   UNL     1       2.859   7.584  17.618  0.00  0.00    +0.000 A 
ATOM      9  C   UNL     1       2.269   8.725  18.168  0.00  0.00    +0.000 A 
ATOM     10  C   UNL     1       1.723   8.677  19.445  0.00  0.00    +0.000 A 
ATOM     11 CL   UNL     1       0.980  10.078  20.112  0.00  0.00    +0.000 Cl
ATOM     12  C   UNL     1       1.785   7.505  20.190  0.00  0.00    +0.000 A 
ATOM     13  C   UNL     1       2.390   6.367  19.647  0.00  0.00    +0.000 A 
ATOM     14 CL   UNL     1       2.467   4.970  20.665  0.00  0.00    +0.000 Cl
ENDBRANCH   6   7
BRANCH   4  15
ATOM     15  O   UNL     1       7.068   4.342  18.613  0.00  0.00    +0.000 OA
ATOM     16  H   UNL     1       7.444   4.047  17.760  0.00  0.00    +0.000 HD
ENDBRANCH   4  15
BRANCH   5  17
ATOM     17  C   UNL     1       5.765   5.895  16.385  0.00  0.00    +0.000 C 
ATOM     18  O   UNL     1       6.054   7.088  16.461  0.00  0.00    +0.000 OA
BRANCH  17  19
ATOM     19  C   UNL     1       6.134   5.191  15.126  0.00  0.00    +0.000 A 
ATOM     20  C   UNL     1       5.525   4.036  14.668  0.00  0.00    +0.000 A 
ATOM     21  C   UNL     1       5.884   3.497  13.433  0.00  0.00    +0.000 A 
ATOM     22  C   UNL     1       6.913   4.041  12.648  0.00  0.00    +0.000 A 
ATOM     23  C   UNL     1       7.623   5.144  13.141  0.00  0.00    +0.000 A 
ATOM     24  C   UNL     1       8.735   5.888  12.458  0.00  0.00    +0.000 C 
ATOM     25  C   UNL     1       7.208   5.704  14.381  0.00  0.00    +0.000 A 
BRANCH  22  26
ATOM     26  O   UNL     1       7.022   3.346  11.481  0.00  0.00    +0.000 OA
ATOM     27  C   UNL     1       6.324   2.138  11.269  0.00  0.00    +0.000 C 
ENDBRANCH  22  26
ENDBRANCH  17  19
ENDBRANCH   5  17
BRANCH   1  28
ATOM     28  C   UNL     1       3.014   2.634  17.837  0.00  0.00    +0.000 C 
BRANCH  28  29
ATOM     29  C   UNL     1       2.501   1.482  18.695  0.00  0.00    +0.000 C 
BRANCH  29  31
ATOM     30  C   UNL     1       0.411   2.488  19.064  0.00  0.00    +0.000 C 
ATOM     31  O   UNL     1       1.603   2.005  19.669  0.00  0.00    +0.000 OA
ENDBRANCH  29  31
ENDBRANCH  28  29
ENDBRANCH   1  28
TORSDOF 8
ENDMDL
