MODEL 1
REMARK VINA RESULT:      -8.3      0.000      0.000
REMARK  Name = 
REMARK  6 active torsions:
REMARK  status: ('A' for Active; 'I' for Inactive)
REMARK    1  A    between atoms: C_1  and  C_2
REMARK    2  A    between atoms: C_5  and  C_6
REMARK    3  A    between atoms: C_7  and  C_8
REMARK    4  A    between atoms: C_8  and  C_10
REMARK    5  A    between atoms: C_15  and  C_16
REMARK    6  A    between atoms: C_16  and  C_17
REMARK                            x       y       z     vdW  Elec       q    Type
REMARK                         _______ _______ _______ _____ _____    ______ ____
ROOT
ATOM      1  C   UNL     1       3.087   3.245  19.058  0.00  0.00    +0.000 A 
ATOM      2  C   UNL     1       2.369   2.174  18.483  0.00  0.00    +0.000 A 
ATOM      3  C   UNL     1       0.981   2.078  18.598  0.00  0.00    +0.000 A 
ATOM      4  C   UNL     1       0.277   3.057  19.283  0.00  0.00    +0.000 A 
ATOM      5  C   UNL     1       0.959   4.137  19.836  0.00  0.00    +0.000 A 
ATOM      6  C   UNL     1       2.366   4.271  19.724  0.00  0.00    +0.000 A 
ENDROOT
BRANCH   1   7
ATOM      7  C   UNL     1       4.593   3.244  18.888  0.00  0.00    +0.000 C 
ATOM      8  N   UNL     1       5.304   2.479  19.653  0.00  0.00    +0.000 NA
ATOM      9  H   UNL     1       6.290   2.494  19.388  0.00  0.00    +0.000 HD
BRANCH   7  16
ATOM     10  C   UNL     1       5.246   4.122  13.998  0.00  0.00    +0.000 C 
ATOM     11  C   UNL     1       5.575   4.476  15.418  0.00  0.00    +0.000 A 
ATOM     12  C   UNL     1       6.490   5.485  15.707  0.00  0.00    +0.000 A 
ATOM     13  C   UNL     1       6.795   5.797  17.031  0.00  0.00    +0.000 A 
ATOM     14  C   UNL     1       6.191   5.113  18.105  0.00  0.00    +0.000 A 
ATOM     15  C   UNL     1       6.572   5.564  19.492  0.00  0.00    +0.000 C 
ATOM     16  C   UNL     1       5.259   4.086  17.821  0.00  0.00    +0.000 A 
ATOM     17  C   UNL     1       4.967   3.782  16.477  0.00  0.00    +0.000 A 
ENDBRANCH   7  16
ENDBRANCH   1   7
BRANCH   6  18
ATOM     18  C   UNL     1       2.951   5.559  20.277  0.00  0.00    +0.000 C 
BRANCH  18  19
ATOM     19  C   UNL     1       2.615   6.856  19.567  0.00  0.00    +0.000 A 
ATOM     20  C   UNL     1       3.005   7.057  18.237  0.00  0.00    +0.000 A 
ATOM     21  C   UNL     1       2.562   8.171  17.523  0.00  0.00    +0.000 A 
ATOM     22  C   UNL     1       1.731   9.111  18.132  0.00  0.00    +0.000 A 
ATOM     23  C   UNL     1       1.361   8.943  19.461  0.00  0.00    +0.000 A 
ATOM     24  C   UNL     1       1.803   7.824  20.181  0.00  0.00    +0.000 A 
ENDBRANCH  18  19
ENDBRANCH   6  18
TORSDOF 4
ENDMDL
MODEL 2
REMARK VINA RESULT:      -8.2      0.840      2.221
REMARK  Name = 
REMARK  6 active torsions:
REMARK  status: ('A' for Active; 'I' for Inactive)
REMARK    1  A    between atoms: C_1  and  C_2
REMARK    2  A    between atoms: C_5  and  C_6
REMARK    3  A    between atoms: C_7  and  C_8
REMARK    4  A    between atoms: C_8  and  C_10
REMARK    5  A    between atoms: C_15  and  C_16
REMARK    6  A    between atoms: C_16  and  C_17
REMARK                            x       y       z     vdW  Elec       q    Type
REMARK                         _______ _______ _______ _____ _____    ______ ____
ROOT
ATOM      1  C   UNL     1       3.076   3.323  19.450  0.00  0.00    +0.000 A 
ATOM      2  C   UNL     1       2.349   2.169  19.087  0.00  0.00    +0.000 A 
ATOM      3  C   UNL     1       0.969   2.082  19.285  0.00  0.00    +0.000 A 
ATOM      4  C   UNL     1       0.284   3.151  19.842  0.00  0.00    +0.000 A 
ATOM      5  C   UNL     1       0.974   4.311  20.183  0.00  0.00    +0.000 A 
ATOM      6  C   UNL     1       2.372   4.436  19.981  0.00  0.00    +0.000 A 
ENDROOT
BRANCH   1   7
ATOM      7  C   UNL     1       4.573   3.306  19.208  0.00  0.00    +0.000 C 
ATOM      8  N   UNL     1       5.282   2.377  19.763  0.00  0.00    +0.000 NA
ATOM      9  H   UNL     1       6.255   2.413  19.457  0.00  0.00    +0.000 HD
BRANCH   7  16
ATOM     10  C   UNL     1       8.063   6.865  18.693  0.00  0.00    +0.000 C 
ATOM     11  C   UNL     1       6.933   6.082  18.091  0.00  0.00    +0.000 A 
ATOM     12  C   UNL     1       6.496   6.344  16.795  0.00  0.00    +0.000 A 
ATOM     13  C   UNL     1       5.438   5.617  16.252  0.00  0.00    +0.000 A 
ATOM     14  C   UNL     1       4.789   4.602  16.987  0.00  0.00    +0.000 A 
ATOM     15  C   UNL     1       3.685   3.859  16.280  0.00  0.00    +0.000 C 
ATOM     16  C   UNL     1       5.229   4.329  18.304  0.00  0.00    +0.000 A 
ATOM     17  C   UNL     1       6.296   5.077  18.837  0.00  0.00    +0.000 A 
ENDBRANCH   7  16
ENDBRANCH   1   7
BRANCH   6  18
ATOM     18  C   UNL     1       2.963   5.799  20.294  0.00  0.00    +0.000 C 
BRANCH  18  19
ATOM     19  C   UNL     1       2.387   7.006  19.580  0.00  0.00    +0.000 A 
ATOM     20  C   UNL     1       1.631   7.952  20.283  0.00  0.00    +0.000 A 
ATOM     21  C   UNL     1       1.235   9.146  19.678  0.00  0.00    +0.000 A 
ATOM     22  C   UNL     1       1.578   9.408  18.352  0.00  0.00    +0.000 A 
ATOM     23  C   UNL     1       2.301   8.466  17.629  0.00  0.00    +0.000 A 
ATOM     24  C   UNL     1       2.700   7.266  18.235  0.00  0.00    +0.000 A 
ENDBRANCH  18  19
ENDBRANCH   6  18
TORSDOF 4
ENDMDL
MODEL 3
REMARK VINA RESULT:      -8.2      0.273      1.032
REMARK  Name = 
REMARK  6 active torsions:
REMARK  status: ('A' for Active; 'I' for Inactive)
REMARK    1  A    between atoms: C_1  and  C_2
REMARK    2  A    between atoms: C_5  and  C_6
REMARK    3  A    between atoms: C_7  and  C_8
REMARK    4  A    between atoms: C_8  and  C_10
REMARK    5  A    between atoms: C_15  and  C_16
REMARK    6  A    between atoms: C_16  and  C_17
REMARK                            x       y       z     vdW  Elec       q    Type
REMARK                         _______ _______ _______ _____ _____    ______ ____
ROOT
ATOM      1  C   UNL     1       3.157   3.296  19.082  0.00  0.00    +0.000 A 
ATOM      2  C   UNL     1       2.439   2.173  18.616  0.00  0.00    +0.000 A 
ATOM      3  C   UNL     1       1.051   2.089  18.741  0.00  0.00    +0.000 A 
ATOM      4  C   UNL     1       0.347   3.130  19.327  0.00  0.00    +0.000 A 
ATOM      5  C   UNL     1       1.029   4.260  19.770  0.00  0.00    +0.000 A 
ATOM      6  C   UNL     1       2.436   4.383  19.645  0.00  0.00    +0.000 A 
ENDROOT
BRANCH   1   7
ATOM      7  C   UNL     1       4.663   3.278  18.913  0.00  0.00    +0.000 C 
ATOM      8  N   UNL     1       5.367   2.517  19.688  0.00  0.00    +0.000 NA
ATOM      9  H   UNL     1       6.353   2.519  19.423  0.00  0.00    +0.000 HD
BRANCH   7  16
ATOM     10  C   UNL     1       5.290   4.114  14.011  0.00  0.00    +0.000 C 
ATOM     11  C   UNL     1       5.639   4.470  15.427  0.00  0.00    +0.000 A 
ATOM     12  C   UNL     1       6.577   5.462  15.701  0.00  0.00    +0.000 A 
ATOM     13  C   UNL     1       6.901   5.775  17.020  0.00  0.00    +0.000 A 
ATOM     14  C   UNL     1       6.292   5.109  18.105  0.00  0.00    +0.000 A 
ATOM     15  C   UNL     1       6.695   5.561  19.485  0.00  0.00    +0.000 C 
ATOM     16  C   UNL     1       5.337   4.100  17.834  0.00  0.00    +0.000 A 
ATOM     17  C   UNL     1       5.026   3.795  16.495  0.00  0.00    +0.000 A 
ENDBRANCH   7  16
ENDBRANCH   1   7
BRANCH   6  18
ATOM     18  C   UNL     1       3.021   5.719  20.067  0.00  0.00    +0.000 C 
BRANCH  18  19
ATOM     19  C   UNL     1       2.385   6.980  19.517  0.00  0.00    +0.000 A 
ATOM     20  C   UNL     1       1.668   7.839  20.359  0.00  0.00    +0.000 A 
ATOM     21  C   UNL     1       1.221   9.080  19.904  0.00  0.00    +0.000 A 
ATOM     22  C   UNL     1       1.471   9.478  18.591  0.00  0.00    +0.000 A 
ATOM     23  C   UNL     1       2.153   8.625  17.732  0.00  0.00    +0.000 A 
ATOM     24  C   UNL     1       2.605   7.378  18.187  0.00  0.00    +0.000 A 
ENDBRANCH  18  19
ENDBRANCH   6  18
TORSDOF 4
ENDMDL
MODEL 4
REMARK VINA RESULT:      -8.2      0.783      1.969
REMARK  Name = 
REMARK  6 active torsions:
REMARK  status: ('A' for Active; 'I' for Inactive)
REMARK    1  A    between atoms: C_1  and  C_2
REMARK    2  A    between atoms: C_5  and  C_6
REMARK    3  A    between atoms: C_7  and  C_8
REMARK    4  A    between atoms: C_8  and  C_10
REMARK    5  A    between atoms: C_15  and  C_16
REMARK    6  A    between atoms: C_16  and  C_17
REMARK                            x       y       z     vdW  Elec       q    Type
REMARK                         _______ _______ _______ _____ _____    ______ ____
ROOT
ATOM      1  C   UNL     1       3.022   3.334  19.338  0.00  0.00    +0.000 A 
ATOM      2  C   UNL     1       2.312   2.232  18.813  0.00  0.00    +0.000 A 
ATOM      3  C   UNL     1       0.923   2.137  18.924  0.00  0.00    +0.000 A 
ATOM      4  C   UNL     1       0.211   3.146  19.555  0.00  0.00    +0.000 A 
ATOM      5  C   UNL     1       0.885   4.256  20.056  0.00  0.00    +0.000 A 
ATOM      6  C   UNL     1       2.293   4.390  19.947  0.00  0.00    +0.000 A 
ENDROOT
BRANCH   1   7
ATOM      7  C   UNL     1       4.529   3.330  19.178  0.00  0.00    +0.000 C 
ATOM      8  N   UNL     1       5.218   2.425  19.797  0.00  0.00    +0.000 NA
ATOM      9  H   UNL     1       6.205   2.465  19.544  0.00  0.00    +0.000 HD
BRANCH   7  16
ATOM     10  C   UNL     1       8.048   6.870  18.733  0.00  0.00    +0.000 C 
ATOM     11  C   UNL     1       6.939   6.079  18.103  0.00  0.00    +0.000 A 
ATOM     12  C   UNL     1       6.551   6.320  16.787  0.00  0.00    +0.000 A 
ATOM     13  C   UNL     1       5.512   5.586  16.217  0.00  0.00    +0.000 A 
ATOM     14  C   UNL     1       4.833   4.586  16.945  0.00  0.00    +0.000 A 
ATOM     15  C   UNL     1       3.753   3.834  16.210  0.00  0.00    +0.000 C 
ATOM     16  C   UNL     1       5.222   4.335  18.282  0.00  0.00    +0.000 A 
ATOM     17  C   UNL     1       6.271   5.089  18.842  0.00  0.00    +0.000 A 
ENDBRANCH   7  16
ENDBRANCH   1   7
BRANCH   6  18
ATOM     18  C   UNL     1       2.869   5.706  20.437  0.00  0.00    +0.000 C 
BRANCH  18  19
ATOM     19  C   UNL     1       2.490   6.970  19.692  0.00  0.00    +0.000 A 
ATOM     20  C   UNL     1       2.798   7.112  18.333  0.00  0.00    +0.000 A 
ATOM     21  C   UNL     1       2.312   8.194  17.598  0.00  0.00    +0.000 A 
ATOM     22  C   UNL     1       1.520   9.163  18.214  0.00  0.00    +0.000 A 
ATOM     23  C   UNL     1       1.231   9.054  19.570  0.00  0.00    +0.000 A 
ATOM     24  C   UNL     1       1.717   7.968  20.311  0.00  0.00    +0.000 A 
ENDBRANCH  18  19
ENDBRANCH   6  18
TORSDOF 4
ENDMDL
MODEL 5
REMARK VINA RESULT:      -7.9      1.172      1.635
REMARK  Name = 
REMARK  6 active torsions:
REMARK  status: ('A' for Active; 'I' for Inactive)
REMARK    1  A    between atoms: C_1  and  C_2
REMARK    2  A    between atoms: C_5  and  C_6
REMARK    3  A    between atoms: C_7  and  C_8
REMARK    4  A    between atoms: C_8  and  C_10
REMARK    5  A    between atoms: C_15  and  C_16
REMARK    6  A    between atoms: C_16  and  C_17
REMARK                            x       y       z     vdW  Elec       q    Type
REMARK                         _______ _______ _______ _____ _____    ______ ____
ROOT
ATOM      1  C   UNL     1       3.766   3.846  18.052  0.00  0.00    +0.000 A 
ATOM      2  C   UNL     1       3.299   2.525  18.225  0.00  0.00    +0.000 A 
ATOM      3  C   UNL     1       1.937   2.239  18.332  0.00  0.00    +0.000 A 
ATOM      4  C   UNL     1       1.009   3.267  18.261  0.00  0.00    +0.000 A 
ATOM      5  C   UNL     1       1.443   4.575  18.063  0.00  0.00    +0.000 A 
ATOM      6  C   UNL     1       2.818   4.897  17.935  0.00  0.00    +0.000 A 
ENDROOT
BRANCH   1   7
ATOM      7  C   UNL     1       5.266   4.047  17.963  0.00  0.00    +0.000 C 
ATOM      8  N   UNL     1       5.990   3.796  19.007  0.00  0.00    +0.000 NA
ATOM      9  H   UNL     1       6.986   3.880  18.803  0.00  0.00    +0.000 HD
BRANCH   7  16
ATOM     10  C   UNL     1       5.714   3.405  13.013  0.00  0.00    +0.000 C 
ATOM     11  C   UNL     1       6.132   4.140  14.253  0.00  0.00    +0.000 A 
ATOM     12  C   UNL     1       7.110   5.130  14.199  0.00  0.00    +0.000 A 
ATOM     13  C   UNL     1       7.498   5.797  15.360  0.00  0.00    +0.000 A 
ATOM     14  C   UNL     1       6.914   5.499  16.609  0.00  0.00    +0.000 A 
ATOM     15  C   UNL     1       7.387   6.313  17.785  0.00  0.00    +0.000 C 
ATOM     16  C   UNL     1       5.919   4.495  16.672  0.00  0.00    +0.000 A 
ATOM     17  C   UNL     1       5.544   3.828  15.489  0.00  0.00    +0.000 A 
ENDBRANCH   7  16
ENDBRANCH   1   7
BRANCH   6  18
ATOM     18  C   UNL     1       3.128   6.347  17.608  0.00  0.00    +0.000 C 
BRANCH  18  19
ATOM     19  C   UNL     1       2.479   7.422  18.457  0.00  0.00    +0.000 A 
ATOM     20  C   UNL     1       1.954   8.575  17.861  0.00  0.00    +0.000 A 
ATOM     21  C   UNL     1       1.211   9.491  18.606  0.00  0.00    +0.000 A 
ATOM     22  C   UNL     1       0.992   9.277  19.967  0.00  0.00    +0.000 A 
ATOM     23  C   UNL     1       1.534   8.154  20.582  0.00  0.00    +0.000 A 
ATOM     24  C   UNL     1       2.279   7.231  19.835  0.00  0.00    +0.000 A 
ENDBRANCH  18  19
ENDBRANCH   6  18
TORSDOF 4
ENDMDL
MODEL 6
REMARK VINA RESULT:      -7.9      1.204      1.773
REMARK  Name = 
REMARK  6 active torsions:
REMARK  status: ('A' for Active; 'I' for Inactive)
REMARK    1  A    between atoms: C_1  and  C_2
REMARK    2  A    between atoms: C_5  and  C_6
REMARK    3  A    between atoms: C_7  and  C_8
REMARK    4  A    between atoms: C_8  and  C_10
REMARK    5  A    between atoms: C_15  and  C_16
REMARK    6  A    between atoms: C_16  and  C_17
REMARK                            x       y       z     vdW  Elec       q    Type
REMARK                         _______ _______ _______ _____ _____    ______ ____
ROOT
ATOM      1  C   UNL     1       3.811   3.853  18.035  0.00  0.00    +0.000 A 
ATOM      2  C   UNL     1       3.326   2.529  18.102  0.00  0.00    +0.000 A 
ATOM      3  C   UNL     1       1.961   2.256  18.211  0.00  0.00    +0.000 A 
ATOM      4  C   UNL     1       1.049   3.301  18.247  0.00  0.00    +0.000 A 
ATOM      5  C   UNL     1       1.501   4.614  18.155  0.00  0.00    +0.000 A 
ATOM      6  C   UNL     1       2.879   4.925  18.028  0.00  0.00    +0.000 A 
ENDROOT
BRANCH   1   7
ATOM      7  C   UNL     1       5.312   4.039  17.935  0.00  0.00    +0.000 C 
ATOM      8  N   UNL     1       6.042   3.774  18.971  0.00  0.00    +0.000 NA
ATOM      9  H   UNL     1       7.038   3.848  18.759  0.00  0.00    +0.000 HD
BRANCH   7  16
ATOM     10  C   UNL     1       5.758   3.382  12.987  0.00  0.00    +0.000 C 
ATOM     11  C   UNL     1       6.171   4.125  14.223  0.00  0.00    +0.000 A 
ATOM     12  C   UNL     1       7.141   5.123  14.163  0.00  0.00    +0.000 A 
ATOM     13  C   UNL     1       7.524   5.798  15.321  0.00  0.00    +0.000 A 
ATOM     14  C   UNL     1       6.946   5.499  16.572  0.00  0.00    +0.000 A 
ATOM     15  C   UNL     1       7.413   6.323  17.745  0.00  0.00    +0.000 C 
ATOM     16  C   UNL     1       5.959   4.487  16.641  0.00  0.00    +0.000 A 
ATOM     17  C   UNL     1       5.588   3.813  15.462  0.00  0.00    +0.000 A 
ENDBRANCH   7  16
ENDBRANCH   1   7
BRANCH   6  18
ATOM     18  C   UNL     1       3.207   6.393  17.823  0.00  0.00    +0.000 C 
BRANCH  18  19
ATOM     19  C   UNL     1       2.338   7.421  18.521  0.00  0.00    +0.000 A 
ATOM     20  C   UNL     1       2.110   7.337  19.900  0.00  0.00    +0.000 A 
ATOM     21  C   UNL     1       1.453   8.363  20.581  0.00  0.00    +0.000 A 
ATOM     22  C   UNL     1       0.999   9.486  19.890  0.00  0.00    +0.000 A 
ATOM     23  C   UNL     1       1.189   9.570  18.515  0.00  0.00    +0.000 A 
ATOM     24  C   UNL     1       1.850   8.542  17.829  0.00  0.00    +0.000 A 
ENDBRANCH  18  19
ENDBRANCH   6  18
TORSDOF 4
ENDMDL
MODEL 7
REMARK VINA RESULT:      -7.8      1.664      6.421
REMARK  Name = 
REMARK  6 active torsions:
REMARK  status: ('A' for Active; 'I' for Inactive)
REMARK    1  A    between atoms: C_1  and  C_2
REMARK    2  A    between atoms: C_5  and  C_6
REMARK    3  A    between atoms: C_7  and  C_8
REMARK    4  A    between atoms: C_8  and  C_10
REMARK    5  A    between atoms: C_15  and  C_16
REMARK    6  A    between atoms: C_16  and  C_17
REMARK                            x       y       z     vdW  Elec       q    Type
REMARK                         _______ _______ _______ _____ _____    ______ ____
ROOT
ATOM      1  C   UNL     1       5.810   5.033  18.113  0.00  0.00    +0.000 A 
ATOM      2  C   UNL     1       6.522   5.187  19.323  0.00  0.00    +0.000 A 
ATOM      3  C   UNL     1       7.637   6.024  19.414  0.00  0.00    +0.000 A 
ATOM      4  C   UNL     1       8.059   6.733  18.299  0.00  0.00    +0.000 A 
ATOM      5  C   UNL     1       7.357   6.620  17.103  0.00  0.00    +0.000 A 
ATOM      6  C   UNL     1       6.214   5.790  16.981  0.00  0.00    +0.000 A 
ENDROOT
BRANCH   1   7
ATOM      7  C   UNL     1       4.626   4.087  18.119  0.00  0.00    +0.000 C 
ATOM      8  N   UNL     1       4.660   3.043  17.355  0.00  0.00    +0.000 NA
ATOM      9  H   UNL     1       3.854   2.437  17.509  0.00  0.00    +0.000 HD
BRANCH   7  16
ATOM     10  C   UNL     1       1.687   2.337  21.781  0.00  0.00    +0.000 C 
ATOM     11  C   UNL     1       2.005   3.433  20.807  0.00  0.00    +0.000 A 
ATOM     12  C   UNL     1       1.201   4.567  20.724  0.00  0.00    +0.000 A 
ATOM     13  C   UNL     1       1.501   5.573  19.807  0.00  0.00    +0.000 A 
ATOM     14  C   UNL     1       2.616   5.477  18.949  0.00  0.00    +0.000 A 
ATOM     15  C   UNL     1       2.860   6.645  18.028  0.00  0.00    +0.000 C 
ATOM     16  C   UNL     1       3.439   4.328  19.028  0.00  0.00    +0.000 A 
ATOM     17  C   UNL     1       3.117   3.320  19.958  0.00  0.00    +0.000 A 
ENDBRANCH   7  16
ENDBRANCH   1   7
BRANCH   6  18
ATOM     18  C   UNL     1       5.488   5.860  15.649  0.00  0.00    +0.000 C 
BRANCH  18  19
ATOM     19  C   UNL     1       6.052   5.062  14.490  0.00  0.00    +0.000 A 
ATOM     20  C   UNL     1       5.294   4.047  13.893  0.00  0.00    +0.000 A 
ATOM     21  C   UNL     1       5.731   3.419  12.726  0.00  0.00    +0.000 A 
ATOM     22  C   UNL     1       6.943   3.788  12.142  0.00  0.00    +0.000 A 
ATOM     23  C   UNL     1       7.723   4.771  12.739  0.00  0.00    +0.000 A 
ATOM     24  C   UNL     1       7.286   5.404  13.911  0.00  0.00    +0.000 A 
ENDBRANCH  18  19
ENDBRANCH   6  18
TORSDOF 4
ENDMDL
MODEL 8
REMARK VINA RESULT:      -7.5      1.753      2.372
REMARK  Name = 
REMARK  6 active torsions:
REMARK  status: ('A' for Active; 'I' for Inactive)
REMARK    1  A    between atoms: C_1  and  C_2
REMARK    2  A    between atoms: C_5  and  C_6
REMARK    3  A    between atoms: C_7  and  C_8
REMARK    4  A    between atoms: C_8  and  C_10
REMARK    5  A    between atoms: C_15  and  C_16
REMARK    6  A    between atoms: C_16  and  C_17
REMARK                            x       y       z     vdW  Elec       q    Type
REMARK                         _______ _______ _______ _____ _____    ______ ____
ROOT
ATOM      1  C   UNL     1       2.714   5.230  18.375  0.00  0.00    +0.000 A 
ATOM      2  C   UNL     1       2.218   4.048  17.784  0.00  0.00    +0.000 A 
ATOM      3  C   UNL     1       1.315   3.219  18.453  0.00  0.00    +0.000 A 
ATOM      4  C   UNL     1       0.880   3.558  19.725  0.00  0.00    +0.000 A 
ATOM      5  C   UNL     1       1.334   4.733  20.319  0.00  0.00    +0.000 A 
ATOM      6  C   UNL     1       2.239   5.603  19.660  0.00  0.00    +0.000 A 
ENDROOT
BRANCH   1   7
ATOM      7  C   UNL     1       3.703   6.048  17.569  0.00  0.00    +0.000 C 
ATOM      8  N   UNL     1       3.453   7.302  17.365  0.00  0.00    +0.000 NA
ATOM      9  H   UNL     1       4.227   7.768  16.891  0.00  0.00    +0.000 HD
BRANCH   7  16
ATOM     10  C   UNL     1       6.134   4.059  13.664  0.00  0.00    +0.000 C 
ATOM     11  C   UNL     1       6.136   4.442  15.115  0.00  0.00    +0.000 A 
ATOM     12  C   UNL     1       7.241   4.176  15.920  0.00  0.00    +0.000 A 
ATOM     13  C   UNL     1       7.226   4.526  17.269  0.00  0.00    +0.000 A 
ATOM     14  C   UNL     1       6.108   5.157  17.852  0.00  0.00    +0.000 A 
ATOM     15  C   UNL     1       6.224   5.522  19.310  0.00  0.00    +0.000 C 
ATOM     16  C   UNL     1       4.981   5.431  17.041  0.00  0.00    +0.000 A 
ATOM     17  C   UNL     1       5.013   5.066  15.681  0.00  0.00    +0.000 A 
ENDBRANCH   7  16
ENDBRANCH   1   7
BRANCH   6  18
ATOM     18  C   UNL     1       2.552   6.900  20.386  0.00  0.00    +0.000 C 
BRANCH  18  19
ATOM     19  C   UNL     1       1.488   7.979  20.404  0.00  0.00    +0.000 A 
ATOM     20  C   UNL     1       0.676   8.155  21.532  0.00  0.00    +0.000 A 
ATOM     21  C   UNL     1      -0.191   9.245  21.627  0.00  0.00    +0.000 A 
ATOM     22  C   UNL     1      -0.271  10.171  20.588  0.00  0.00    +0.000 A 
ATOM     23  C   UNL     1       0.503   9.994  19.448  0.00  0.00    +0.000 A 
ATOM     24  C   UNL     1       1.376   8.901  19.350  0.00  0.00    +0.000 A 
ENDBRANCH  18  19
ENDBRANCH   6  18
TORSDOF 4
ENDMDL
MODEL 9
REMARK VINA RESULT:      -7.5      1.740      2.163
REMARK  Name = 
REMARK  6 active torsions:
REMARK  status: ('A' for Active; 'I' for Inactive)
REMARK    1  A    between atoms: C_1  and  C_2
REMARK    2  A    between atoms: C_5  and  C_6
REMARK    3  A    between atoms: C_7  and  C_8
REMARK    4  A    between atoms: C_8  and  C_10
REMARK    5  A    between atoms: C_15  and  C_16
REMARK    6  A    between atoms: C_16  and  C_17
REMARK                            x       y       z     vdW  Elec       q    Type
REMARK                         _______ _______ _______ _____ _____    ______ ____
ROOT
ATOM      1  C   UNL     1       2.706   5.243  18.346  0.00  0.00    +0.000 A 
ATOM      2  C   UNL     1       2.159   4.091  17.740  0.00  0.00    +0.000 A 
ATOM      3  C   UNL     1       1.247   3.274  18.412  0.00  0.00    +0.000 A 
ATOM      4  C   UNL     1       0.854   3.596  19.702  0.00  0.00    +0.000 A 
ATOM      5  C   UNL     1       1.357   4.742  20.311  0.00  0.00    +0.000 A 
ATOM      6  C   UNL     1       2.273   5.600  19.652  0.00  0.00    +0.000 A 
ENDROOT
BRANCH   1   7
ATOM      7  C   UNL     1       3.700   6.051  17.536  0.00  0.00    +0.000 C 
ATOM      8  N   UNL     1       3.452   7.302  17.315  0.00  0.00    +0.000 NA
ATOM      9  H   UNL     1       4.230   7.761  16.840  0.00  0.00    +0.000 HD
BRANCH   7  16
ATOM     10  C   UNL     1       6.155   4.020  13.667  0.00  0.00    +0.000 C 
ATOM     11  C   UNL     1       6.147   4.416  15.114  0.00  0.00    +0.000 A 
ATOM     12  C   UNL     1       7.245   4.155  15.930  0.00  0.00    +0.000 A 
ATOM     13  C   UNL     1       7.221   4.517  17.276  0.00  0.00    +0.000 A 
ATOM     14  C   UNL     1       6.100   5.155  17.845  0.00  0.00    +0.000 A 
ATOM     15  C   UNL     1       6.207   5.533  19.300  0.00  0.00    +0.000 C 
ATOM     16  C   UNL     1       4.980   5.425  17.023  0.00  0.00    +0.000 A 
ATOM     17  C   UNL     1       5.021   5.048  15.667  0.00  0.00    +0.000 A 
ENDBRANCH   7  16
ENDBRANCH   1   7
BRANCH   6  18
ATOM     18  C   UNL     1       2.643   6.869  20.399  0.00  0.00    +0.000 C 
BRANCH  18  19
ATOM     19  C   UNL     1       1.641   8.006  20.409  0.00  0.00    +0.000 A 
ATOM     20  C   UNL     1       1.499   8.835  19.289  0.00  0.00    +0.000 A 
ATOM     21  C   UNL     1       0.472   9.777  19.221  0.00  0.00    +0.000 A 
ATOM     22  C   UNL     1      -0.424   9.917  20.281  0.00  0.00    +0.000 A 
ATOM     23  C   UNL     1      -0.278   9.124  21.413  0.00  0.00    +0.000 A 
ATOM     24  C   UNL     1       0.752   8.176  21.484  0.00  0.00    +0.000 A 
ENDBRANCH  18  19
ENDBRANCH   6  18
TORSDOF 4
ENDMDL
