MODEL 1
REMARK VINA RESULT:      -6.0      0.000      0.000
REMARK  Name = 
REMARK  12 active torsions:
REMARK  status: ('A' for Active; 'I' for Inactive)
REMARK    1  A    between atoms: C_1  and  O_2
REMARK    2  A    between atoms: O_2  and  C_3
REMARK    3  A    between atoms: C_3  and  C_4
REMARK    4  A    between atoms: C_4  and  N_5
REMARK    5  A    between atoms: C_6  and  C_8
REMARK    6  A    between atoms: C_8  and  C_9
REMARK    7  A    between atoms: C_11  and  O_12
REMARK    8  A    between atoms: O_12  and  C_13
REMARK    9  A    between atoms: C_14  and  O_15
REMARK   10  A    between atoms: O_15  and  C_16
REMARK   11  A    between atoms: C_17  and  O_18
REMARK   12  A    between atoms: O_18  and  C_19
REMARK                            x       y       z     vdW  Elec       q    Type
REMARK                         _______ _______ _______ _____ _____    ______ ____
ROOT
ATOM      1  C   UNL     1       5.346   5.451  18.561  0.00  0.00    +0.000 A 
ATOM      2  C   UNL     1       4.294   6.263  18.960  0.00  0.00    +0.000 A 
ATOM      3  C   UNL     1       3.148   5.747  19.569  0.00  0.00    +0.000 A 
ATOM      4  C   UNL     1       3.052   4.346  19.794  0.00  0.00    +0.000 A 
ATOM      5  C   UNL     1       4.118   3.512  19.387  0.00  0.00    +0.000 A 
ATOM      6  C   UNL     1       5.246   4.074  18.759  0.00  0.00    +0.000 A 
ENDROOT
BRANCH   3   7
ATOM      7  O   UNL     1       2.127   6.569  19.989  0.00  0.00    +0.000 OA
ATOM      8  C   UNL     1       2.066   7.835  19.318  0.00  0.00    +0.000 C 
ENDBRANCH   3   7
BRANCH   4   9
ATOM      9  O   UNL     1       1.933   3.937  20.469  0.00  0.00    +0.000 OA
ATOM     10  C   UNL     1       0.873   3.344  19.713  0.00  0.00    +0.000 C 
ENDBRANCH   4   9
BRANCH   5  11
ATOM     11  O   UNL     1       4.053   2.170  19.672  0.00  0.00    +0.000 OA
ATOM     12  C   UNL     1       3.669   1.272  18.636  0.00  0.00    +0.000 C 
ENDBRANCH   5  11
BRANCH   1  13
ATOM     13  C   UNL     1       6.592   6.084  17.984  0.00  0.00    +0.000 C 
BRANCH  13  15
ATOM     14  N   UNL     1       6.519   5.617  15.588  0.00  0.00    +0.000 N 
ATOM     15  C   UNL     1       7.114   5.299  16.790  0.00  0.00    +0.000 C 
ATOM     16  O   UNL     1       7.980   4.432  16.884  0.00  0.00    +0.000 OA
ATOM     17  H   UNL     1       5.970   6.459  15.500  0.00  0.00    +0.000 HD
BRANCH  14  18
ATOM     18  C   UNL     1       6.957   4.952  14.376  0.00  0.00    +0.000 C 
BRANCH  18  19
ATOM     19  C   UNL     1       5.986   3.865  13.923  0.00  0.00    +0.000 C 
BRANCH  19  21
ATOM     20  C   UNL     1       5.119   3.132  11.858  0.00  0.00    +0.000 C 
ATOM     21  O   UNL     1       6.291   3.494  12.576  0.00  0.00    +0.000 OA
ENDBRANCH  19  21
ENDBRANCH  18  19
ENDBRANCH  14  18
ENDBRANCH  13  15
ENDBRANCH   1  13
TORSDOF 8
ENDMDL
MODEL 2
REMARK VINA RESULT:      -5.9      2.485      6.559
REMARK  Name = 
REMARK  12 active torsions:
REMARK  status: ('A' for Active; 'I' for Inactive)
REMARK    1  A    between atoms: C_1  and  O_2
REMARK    2  A    between atoms: O_2  and  C_3
REMARK    3  A    between atoms: C_3  and  C_4
REMARK    4  A    between atoms: C_4  and  N_5
REMARK    5  A    between atoms: C_6  and  C_8
REMARK    6  A    between atoms: C_8  and  C_9
REMARK    7  A    between atoms: C_11  and  O_12
REMARK    8  A    between atoms: O_12  and  C_13
REMARK    9  A    between atoms: C_14  and  O_15
REMARK   10  A    between atoms: O_15  and  C_16
REMARK   11  A    between atoms: C_17  and  O_18
REMARK   12  A    between atoms: O_18  and  C_19
REMARK                            x       y       z     vdW  Elec       q    Type
REMARK                         _______ _______ _______ _____ _____    ______ ____
ROOT
ATOM      1  C   UNL     1       4.147   3.988  16.923  0.00  0.00    +0.000 A 
ATOM      2  C   UNL     1       5.330   4.033  16.199  0.00  0.00    +0.000 A 
ATOM      3  C   UNL     1       6.074   5.206  16.067  0.00  0.00    +0.000 A 
ATOM      4  C   UNL     1       5.613   6.397  16.695  0.00  0.00    +0.000 A 
ATOM      5  C   UNL     1       4.408   6.360  17.432  0.00  0.00    +0.000 A 
ATOM      6  C   UNL     1       3.680   5.159  17.522  0.00  0.00    +0.000 A 
ENDROOT
BRANCH   3   7
ATOM      7  O   UNL     1       7.264   5.228  15.373  0.00  0.00    +0.000 OA
ATOM      8  C   UNL     1       7.169   4.777  14.015  0.00  0.00    +0.000 C 
ENDBRANCH   3   7
BRANCH   4   9
ATOM      9  O   UNL     1       6.446   7.478  16.581  0.00  0.00    +0.000 OA
ATOM     10  C   UNL     1       7.469   7.644  17.566  0.00  0.00    +0.000 C 
ENDBRANCH   4   9
BRANCH   5  11
ATOM     11  O   UNL     1       4.005   7.491  18.096  0.00  0.00    +0.000 OA
ATOM     12  C   UNL     1       2.803   8.133  17.681  0.00  0.00    +0.000 C 
ENDBRANCH   5  11
BRANCH   1  13
ATOM     13  C   UNL     1       3.435   2.666  17.097  0.00  0.00    +0.000 C 
BRANCH  13  15
ATOM     14  N   UNL     1       2.708   2.390  19.412  0.00  0.00    +0.000 N 
ATOM     15  C   UNL     1       2.331   2.760  18.139  0.00  0.00    +0.000 C 
ATOM     16  O   UNL     1       1.185   3.115  17.872  0.00  0.00    +0.000 OA
ATOM     17  H   UNL     1       3.686   2.303  19.647  0.00  0.00    +0.000 HD
BRANCH  14  18
ATOM     18  C   UNL     1       1.745   2.466  20.494  0.00  0.00    +0.000 C 
BRANCH  18  19
ATOM     19  C   UNL     1       1.896   3.741  21.320  0.00  0.00    +0.000 C 
BRANCH  19  21
ATOM     20  C   UNL     1       1.839   5.983  20.593  0.00  0.00    +0.000 C 
ATOM     21  O   UNL     1       1.101   4.777  20.734  0.00  0.00    +0.000 OA
ENDBRANCH  19  21
ENDBRANCH  18  19
ENDBRANCH  14  18
ENDBRANCH  13  15
ENDBRANCH   1  13
TORSDOF 8
ENDMDL
MODEL 3
REMARK VINA RESULT:      -5.9      1.275      1.404
REMARK  Name = 
REMARK  12 active torsions:
REMARK  status: ('A' for Active; 'I' for Inactive)
REMARK    1  A    between atoms: C_1  and  O_2
REMARK    2  A    between atoms: O_2  and  C_3
REMARK    3  A    between atoms: C_3  and  C_4
REMARK    4  A    between atoms: C_4  and  N_5
REMARK    5  A    between atoms: C_6  and  C_8
REMARK    6  A    between atoms: C_8  and  C_9
REMARK    7  A    between atoms: C_11  and  O_12
REMARK    8  A    between atoms: O_12  and  C_13
REMARK    9  A    between atoms: C_14  and  O_15
REMARK   10  A    between atoms: O_15  and  C_16
REMARK   11  A    between atoms: C_17  and  O_18
REMARK   12  A    between atoms: O_18  and  C_19
REMARK                            x       y       z     vdW  Elec       q    Type
REMARK                         _______ _______ _______ _____ _____    ______ ____
ROOT
ATOM      1  C   UNL     1       4.481   5.861  17.115  0.00  0.00    +0.000 A 
ATOM      2  C   UNL     1       3.701   6.739  17.854  0.00  0.00    +0.000 A 
ATOM      3  C   UNL     1       2.991   6.329  18.985  0.00  0.00    +0.000 A 
ATOM      4  C   UNL     1       3.070   4.970  19.399  0.00  0.00    +0.000 A 
ATOM      5  C   UNL     1       3.859   4.069  18.650  0.00  0.00    +0.000 A 
ATOM      6  C   UNL     1       4.542   4.523  17.505  0.00  0.00    +0.000 A 
ENDROOT
BRANCH   3   7
ATOM      7  O   UNL     1       2.248   7.218  19.728  0.00  0.00    +0.000 OA
ATOM      8  C   UNL     1       1.910   8.431  19.041  0.00  0.00    +0.000 C 
ENDBRANCH   3   7
BRANCH   4   9
ATOM      9  O   UNL     1       2.409   4.674  20.562  0.00  0.00    +0.000 OA
ATOM     10  C   UNL     1       1.141   4.020  20.466  0.00  0.00    +0.000 C 
ENDBRANCH   4   9
BRANCH   5  11
ATOM     11  O   UNL     1       3.990   2.777  19.095  0.00  0.00    +0.000 OA
ATOM     12  C   UNL     1       3.412   1.729  18.323  0.00  0.00    +0.000 C 
ENDBRANCH   5  11
BRANCH   1  13
ATOM     13  C   UNL     1       5.289   6.388  15.952  0.00  0.00    +0.000 C 
BRANCH  13  15
ATOM     14  N   UNL     1       5.627   4.642  14.278  0.00  0.00    +0.000 N 
ATOM     15  C   UNL     1       6.176   5.307  15.353  0.00  0.00    +0.000 C 
ATOM     16  O   UNL     1       7.286   5.026  15.801  0.00  0.00    +0.000 OA
ATOM     17  H   UNL     1       4.819   5.020  13.805  0.00  0.00    +0.000 HD
BRANCH  14  18
ATOM     18  C   UNL     1       6.394   3.609  13.609  0.00  0.00    +0.000 C 
BRANCH  18  19
ATOM     19  C   UNL     1       5.848   3.285  12.220  0.00  0.00    +0.000 C 
BRANCH  19  21
ATOM     20  C   UNL     1       3.860   3.148  10.961  0.00  0.00    +0.000 C 
ATOM     21  O   UNL     1       4.440   3.538  12.199  0.00  0.00    +0.000 OA
ENDBRANCH  19  21
ENDBRANCH  18  19
ENDBRANCH  14  18
ENDBRANCH  13  15
ENDBRANCH   1  13
TORSDOF 8
ENDMDL
MODEL 4
REMARK VINA RESULT:      -5.9      0.855      2.929
REMARK  Name = 
REMARK  12 active torsions:
REMARK  status: ('A' for Active; 'I' for Inactive)
REMARK    1  A    between atoms: C_1  and  O_2
REMARK    2  A    between atoms: O_2  and  C_3
REMARK    3  A    between atoms: C_3  and  C_4
REMARK    4  A    between atoms: C_4  and  N_5
REMARK    5  A    between atoms: C_6  and  C_8
REMARK    6  A    between atoms: C_8  and  C_9
REMARK    7  A    between atoms: C_11  and  O_12
REMARK    8  A    between atoms: O_12  and  C_13
REMARK    9  A    between atoms: C_14  and  O_15
REMARK   10  A    between atoms: O_15  and  C_16
REMARK   11  A    between atoms: C_17  and  O_18
REMARK   12  A    between atoms: O_18  and  C_19
REMARK                            x       y       z     vdW  Elec       q    Type
REMARK                         _______ _______ _______ _____ _____    ______ ____
ROOT
ATOM      1  C   UNL     1       5.388   5.404  18.578  0.00  0.00    +0.000 A 
ATOM      2  C   UNL     1       5.044   4.119  18.971  0.00  0.00    +0.000 A 
ATOM      3  C   UNL     1       3.717   3.736  19.175  0.00  0.00    +0.000 A 
ATOM      4  C   UNL     1       2.680   4.688  18.971  0.00  0.00    +0.000 A 
ATOM      5  C   UNL     1       3.022   6.000  18.573  0.00  0.00    +0.000 A 
ATOM      6  C   UNL     1       4.375   6.347  18.398  0.00  0.00    +0.000 A 
ENDROOT
BRANCH   3   7
ATOM      7  O   UNL     1       3.388   2.448  19.533  0.00  0.00    +0.000 OA
ATOM      8  C   UNL     1       3.586   1.473  18.500  0.00  0.00    +0.000 C 
ENDBRANCH   3   7
BRANCH   4   9
ATOM      9  O   UNL     1       1.406   4.205  19.114  0.00  0.00    +0.000 OA
ATOM     10  C   UNL     1       0.845   4.171  20.429  0.00  0.00    +0.000 C 
ENDBRANCH   4   9
BRANCH   5  11
ATOM     11  O   UNL     1       2.015   6.894  18.306  0.00  0.00    +0.000 OA
ATOM     12  C   UNL     1       2.365   8.195  17.845  0.00  0.00    +0.000 C 
ENDBRANCH   5  11
BRANCH   1  13
ATOM     13  C   UNL     1       6.837   5.729  18.293  0.00  0.00    +0.000 C 
BRANCH  13  15
ATOM     14  N   UNL     1       6.673   5.507  15.866  0.00  0.00    +0.000 N 
ATOM     15  C   UNL     1       7.313   5.071  17.007  0.00  0.00    +0.000 C 
ATOM     16  O   UNL     1       8.182   4.202  16.979  0.00  0.00    +0.000 OA
ATOM     17  H   UNL     1       6.122   6.352  15.885  0.00  0.00    +0.000 HD
BRANCH  14  18
ATOM     18  C   UNL     1       7.065   4.971  14.577  0.00  0.00    +0.000 C 
BRANCH  18  19
ATOM     19  C   UNL     1       6.268   3.726  14.197  0.00  0.00    +0.000 C 
BRANCH  19  21
ATOM     20  C   UNL     1       5.435   3.193  12.058  0.00  0.00    +0.000 C 
ATOM     21  O   UNL     1       5.326   4.065  13.174  0.00  0.00    +0.000 OA
ENDBRANCH  19  21
ENDBRANCH  18  19
ENDBRANCH  14  18
ENDBRANCH  13  15
ENDBRANCH   1  13
TORSDOF 8
ENDMDL
MODEL 5
REMARK VINA RESULT:      -5.9      2.790      4.355
REMARK  Name = 
REMARK  12 active torsions:
REMARK  status: ('A' for Active; 'I' for Inactive)
REMARK    1  A    between atoms: C_1  and  O_2
REMARK    2  A    between atoms: O_2  and  C_3
REMARK    3  A    between atoms: C_3  and  C_4
REMARK    4  A    between atoms: C_4  and  N_5
REMARK    5  A    between atoms: C_6  and  C_8
REMARK    6  A    between atoms: C_8  and  C_9
REMARK    7  A    between atoms: C_11  and  O_12
REMARK    8  A    between atoms: O_12  and  C_13
REMARK    9  A    between atoms: C_14  and  O_15
REMARK   10  A    between atoms: O_15  and  C_16
REMARK   11  A    between atoms: C_17  and  O_18
REMARK   12  A    between atoms: O_18  and  C_19
REMARK                            x       y       z     vdW  Elec       q    Type
REMARK                         _______ _______ _______ _____ _____    ______ ____
ROOT
ATOM      1  C   UNL     1       4.933   5.484  16.815  0.00  0.00    +0.000 A 
ATOM      2  C   UNL     1       4.185   6.459  17.460  0.00  0.00    +0.000 A 
ATOM      3  C   UNL     1       2.979   6.167  18.100  0.00  0.00    +0.000 A 
ATOM      4  C   UNL     1       2.498   4.828  18.097  0.00  0.00    +0.000 A 
ATOM      5  C   UNL     1       3.252   3.830  17.440  0.00  0.00    +0.000 A 
ATOM      6  C   UNL     1       4.452   4.174  16.791  0.00  0.00    +0.000 A 
ENDROOT
BRANCH   3   7
ATOM      7  O   UNL     1       2.265   7.139  18.764  0.00  0.00    +0.000 OA
ATOM      8  C   UNL     1       2.108   8.365  18.036  0.00  0.00    +0.000 C 
ENDBRANCH   3   7
BRANCH   4   9
ATOM      9  O   UNL     1       1.351   4.617  18.816  0.00  0.00    +0.000 OA
ATOM     10  C   UNL     1       1.480   4.234  20.188  0.00  0.00    +0.000 C 
ENDBRANCH   4   9
BRANCH   5  11
ATOM     11  O   UNL     1       2.821   2.528  17.502  0.00  0.00    +0.000 OA
ATOM     12  C   UNL     1       3.508   1.625  18.363  0.00  0.00    +0.000 C 
ENDBRANCH   5  11
BRANCH   1  13
ATOM     13  C   UNL     1       6.270   5.853  16.215  0.00  0.00    +0.000 C 
BRANCH  13  15
ATOM     14  N   UNL     1       7.485   7.716  17.224  0.00  0.00    +0.000 N 
ATOM     15  C   UNL     1       7.235   6.361  17.276  0.00  0.00    +0.000 C 
ATOM     16  O   UNL     1       7.772   5.627  18.102  0.00  0.00    +0.000 OA
ATOM     17  H   UNL     1       6.887   8.323  16.682  0.00  0.00    +0.000 HD
BRANCH  14  18
ATOM     18  C   UNL     1       8.368   8.318  18.204  0.00  0.00    +0.000 C 
BRANCH  18  19
ATOM     19  C   UNL     1       8.481   9.831  18.035  0.00  0.00    +0.000 C 
BRANCH  19  21
ATOM     20  C   UNL     1      10.131  11.020  19.227  0.00  0.00    +0.000 C 
ATOM     21  O   UNL     1       8.845  10.417  19.289  0.00  0.00    +0.000 OA
ENDBRANCH  19  21
ENDBRANCH  18  19
ENDBRANCH  14  18
ENDBRANCH  13  15
ENDBRANCH   1  13
TORSDOF 8
ENDMDL
MODEL 6
REMARK VINA RESULT:      -5.9      1.485      3.153
REMARK  Name = 
REMARK  12 active torsions:
REMARK  status: ('A' for Active; 'I' for Inactive)
REMARK    1  A    between atoms: C_1  and  O_2
REMARK    2  A    between atoms: O_2  and  C_3
REMARK    3  A    between atoms: C_3  and  C_4
REMARK    4  A    between atoms: C_4  and  N_5
REMARK    5  A    between atoms: C_6  and  C_8
REMARK    6  A    between atoms: C_8  and  C_9
REMARK    7  A    between atoms: C_11  and  O_12
REMARK    8  A    between atoms: O_12  and  C_13
REMARK    9  A    between atoms: C_14  and  O_15
REMARK   10  A    between atoms: O_15  and  C_16
REMARK   11  A    between atoms: C_17  and  O_18
REMARK   12  A    between atoms: O_18  and  C_19
REMARK                            x       y       z     vdW  Elec       q    Type
REMARK                         _______ _______ _______ _____ _____    ______ ____
ROOT
ATOM      1  C   UNL     1       3.568   6.004  17.935  0.00  0.00    +0.000 A 
ATOM      2  C   UNL     1       3.290   4.673  17.660  0.00  0.00    +0.000 A 
ATOM      3  C   UNL     1       2.421   3.918  18.449  0.00  0.00    +0.000 A 
ATOM      4  C   UNL     1       1.793   4.529  19.571  0.00  0.00    +0.000 A 
ATOM      5  C   UNL     1       2.073   5.883  19.860  0.00  0.00    +0.000 A 
ATOM      6  C   UNL     1       2.972   6.600  19.047  0.00  0.00    +0.000 A 
ENDROOT
BRANCH   3   7
ATOM      7  O   UNL     1       2.128   2.608  18.144  0.00  0.00    +0.000 OA
ATOM      8  C   UNL     1       3.256   1.722  18.182  0.00  0.00    +0.000 C 
ENDBRANCH   3   7
BRANCH   4   9
ATOM      9  O   UNL     1       0.894   3.740  20.239  0.00  0.00    +0.000 OA
ATOM     10  C   UNL     1       1.364   2.993  21.364  0.00  0.00    +0.000 C 
ENDBRANCH   4   9
BRANCH   5  11
ATOM     11  O   UNL     1       1.410   6.489  20.898  0.00  0.00    +0.000 OA
ATOM     12  C   UNL     1       1.379   7.912  20.948  0.00  0.00    +0.000 C 
ENDBRANCH   5  11
BRANCH   1  13
ATOM     13  C   UNL     1       4.453   6.786  16.992  0.00  0.00    +0.000 C 
BRANCH  13  15
ATOM     14  N   UNL     1       5.911   5.817  15.289  0.00  0.00    +0.000 N 
ATOM     15  C   UNL     1       5.714   6.011  16.639  0.00  0.00    +0.000 C 
ATOM     16  O   UNL     1       6.488   5.569  17.485  0.00  0.00    +0.000 OA
ATOM     17  H   UNL     1       5.386   6.356  14.616  0.00  0.00    +0.000 HD
BRANCH  14  18
ATOM     18  C   UNL     1       7.096   5.115  14.833  0.00  0.00    +0.000 C 
BRANCH  18  19
ATOM     19  C   UNL     1       6.929   4.540  13.429  0.00  0.00    +0.000 C 
BRANCH  19  21
ATOM     20  C   UNL     1       5.569   3.132  12.115  0.00  0.00    +0.000 C 
ATOM     21  O   UNL     1       5.747   3.734  13.390  0.00  0.00    +0.000 OA
ENDBRANCH  19  21
ENDBRANCH  18  19
ENDBRANCH  14  18
ENDBRANCH  13  15
ENDBRANCH   1  13
TORSDOF 8
ENDMDL
MODEL 7
REMARK VINA RESULT:      -5.8      3.555      5.836
REMARK  Name = 
REMARK  12 active torsions:
REMARK  status: ('A' for Active; 'I' for Inactive)
REMARK    1  A    between atoms: C_1  and  O_2
REMARK    2  A    between atoms: O_2  and  C_3
REMARK    3  A    between atoms: C_3  and  C_4
REMARK    4  A    between atoms: C_4  and  N_5
REMARK    5  A    between atoms: C_6  and  C_8
REMARK    6  A    between atoms: C_8  and  C_9
REMARK    7  A    between atoms: C_11  and  O_12
REMARK    8  A    between atoms: O_12  and  C_13
REMARK    9  A    between atoms: C_14  and  O_15
REMARK   10  A    between atoms: O_15  and  C_16
REMARK   11  A    between atoms: C_17  and  O_18
REMARK   12  A    between atoms: O_18  and  C_19
REMARK                            x       y       z     vdW  Elec       q    Type
REMARK                         _______ _______ _______ _____ _____    ______ ____
ROOT
ATOM      1  C   UNL     1       6.698   5.425  18.385  0.00  0.00    +0.000 A 
ATOM      2  C   UNL     1       6.601   4.790  17.155  0.00  0.00    +0.000 A 
ATOM      3  C   UNL     1       5.418   4.188  16.722  0.00  0.00    +0.000 A 
ATOM      4  C   UNL     1       4.270   4.227  17.563  0.00  0.00    +0.000 A 
ATOM      5  C   UNL     1       4.362   4.868  18.819  0.00  0.00    +0.000 A 
ATOM      6  C   UNL     1       5.581   5.445  19.222  0.00  0.00    +0.000 A 
ENDROOT
BRANCH   3   7
ATOM      7  O   UNL     1       5.327   3.591  15.485  0.00  0.00    +0.000 OA
ATOM      8  C   UNL     1       6.344   3.988  14.555  0.00  0.00    +0.000 C 
ENDBRANCH   3   7
BRANCH   4   9
ATOM      9  O   UNL     1       3.133   3.684  17.026  0.00  0.00    +0.000 OA
ATOM     10  C   UNL     1       2.639   2.466  17.591  0.00  0.00    +0.000 C 
ENDBRANCH   4   9
BRANCH   5  11
ATOM     11  O   UNL     1       3.234   4.967  19.594  0.00  0.00    +0.000 OA
ATOM     12  C   UNL     1       2.588   6.232  19.698  0.00  0.00    +0.000 C 
ENDBRANCH   5  11
BRANCH   1  13
ATOM     13  C   UNL     1       7.983   6.129  18.755  0.00  0.00    +0.000 C 
BRANCH  13  15
ATOM     14  N   UNL     1       8.710   8.452  18.953  0.00  0.00    +0.000 N 
ATOM     15  C   UNL     1       8.035   7.535  18.176  0.00  0.00    +0.000 C 
ATOM     16  O   UNL     1       7.500   7.844  17.114  0.00  0.00    +0.000 OA
ATOM     17  H   UNL     1       9.308   8.140  19.704  0.00  0.00    +0.000 HD
BRANCH  14  18
ATOM     18  C   UNL     1       8.849   9.819  18.488  0.00  0.00    +0.000 C 
BRANCH  18  19
ATOM     19  C   UNL     1       9.420  10.744  19.559  0.00  0.00    +0.000 C 
BRANCH  19  21
ATOM     20  C   UNL     1      11.319  12.020  20.125  0.00  0.00    +0.000 C 
ATOM     21  O   UNL     1      10.675  11.264  19.108  0.00  0.00    +0.000 OA
ENDBRANCH  19  21
ENDBRANCH  18  19
ENDBRANCH  14  18
ENDBRANCH  13  15
ENDBRANCH   1  13
TORSDOF 8
ENDMDL
MODEL 8
REMARK VINA RESULT:      -5.8      2.415      6.164
REMARK  Name = 
REMARK  12 active torsions:
REMARK  status: ('A' for Active; 'I' for Inactive)
REMARK    1  A    between atoms: C_1  and  O_2
REMARK    2  A    between atoms: O_2  and  C_3
REMARK    3  A    between atoms: C_3  and  C_4
REMARK    4  A    between atoms: C_4  and  N_5
REMARK    5  A    between atoms: C_6  and  C_8
REMARK    6  A    between atoms: C_8  and  C_9
REMARK    7  A    between atoms: C_11  and  O_12
REMARK    8  A    between atoms: O_12  and  C_13
REMARK    9  A    between atoms: C_14  and  O_15
REMARK   10  A    between atoms: O_15  and  C_16
REMARK   11  A    between atoms: C_17  and  O_18
REMARK   12  A    between atoms: O_18  and  C_19
REMARK                            x       y       z     vdW  Elec       q    Type
REMARK                         _______ _______ _______ _____ _____    ______ ____
ROOT
ATOM      1  C   UNL     1       4.290   4.029  16.721  0.00  0.00    +0.000 A 
ATOM      2  C   UNL     1       3.905   5.200  17.359  0.00  0.00    +0.000 A 
ATOM      3  C   UNL     1       4.695   6.350  17.338  0.00  0.00    +0.000 A 
ATOM      4  C   UNL     1       5.934   6.330  16.638  0.00  0.00    +0.000 A 
ATOM      5  C   UNL     1       6.335   5.140  15.989  0.00  0.00    +0.000 A 
ATOM      6  C   UNL     1       5.515   3.998  16.053  0.00  0.00    +0.000 A 
ENDROOT
BRANCH   3   7
ATOM      7  O   UNL     1       4.285   7.515  17.947  0.00  0.00    +0.000 OA
ATOM      8  C   UNL     1       2.869   7.738  17.913  0.00  0.00    +0.000 C 
ENDBRANCH   3   7
BRANCH   4   9
ATOM      9  O   UNL     1       6.605   7.523  16.600  0.00  0.00    +0.000 OA
ATOM     10  C   UNL     1       7.640   7.743  17.561  0.00  0.00    +0.000 C 
ENDBRANCH   4   9
BRANCH   5  11
ATOM     11  O   UNL     1       7.495   5.146  15.254  0.00  0.00    +0.000 OA
ATOM     12  C   UNL     1       7.408   4.963  13.845  0.00  0.00    +0.000 C 
ENDBRANCH   5  11
BRANCH   1  13
ATOM     13  C   UNL     1       3.349   2.847  16.713  0.00  0.00    +0.000 C 
BRANCH  13  15
ATOM     14  N   UNL     1       1.487   3.100  18.274  0.00  0.00    +0.000 N 
ATOM     15  C   UNL     1       2.757   2.596  18.092  0.00  0.00    +0.000 C 
ATOM     16  O   UNL     1       3.365   2.011  18.987  0.00  0.00    +0.000 OA
ATOM     17  H   UNL     1       0.936   3.387  17.479  0.00  0.00    +0.000 HD
BRANCH  14  18
ATOM     18  C   UNL     1       0.811   2.895  19.541  0.00  0.00    +0.000 C 
BRANCH  18  19
ATOM     19  C   UNL     1       0.891   4.120  20.448  0.00  0.00    +0.000 C 
BRANCH  19  21
ATOM     20  C   UNL     1       1.796   2.528  21.933  0.00  0.00    +0.000 C 
ATOM     21  O   UNL     1       1.849   3.875  21.483  0.00  0.00    +0.000 OA
ENDBRANCH  19  21
ENDBRANCH  18  19
ENDBRANCH  14  18
ENDBRANCH  13  15
ENDBRANCH   1  13
TORSDOF 8
ENDMDL
MODEL 9
REMARK VINA RESULT:      -5.8      3.621      5.641
REMARK  Name = 
REMARK  12 active torsions:
REMARK  status: ('A' for Active; 'I' for Inactive)
REMARK    1  A    between atoms: C_1  and  O_2
REMARK    2  A    between atoms: O_2  and  C_3
REMARK    3  A    between atoms: C_3  and  C_4
REMARK    4  A    between atoms: C_4  and  N_5
REMARK    5  A    between atoms: C_6  and  C_8
REMARK    6  A    between atoms: C_8  and  C_9
REMARK    7  A    between atoms: C_11  and  O_12
REMARK    8  A    between atoms: O_12  and  C_13
REMARK    9  A    between atoms: C_14  and  O_15
REMARK   10  A    between atoms: O_15  and  C_16
REMARK   11  A    between atoms: C_17  and  O_18
REMARK   12  A    between atoms: O_18  and  C_19
REMARK                            x       y       z     vdW  Elec       q    Type
REMARK                         _______ _______ _______ _____ _____    ______ ____
ROOT
ATOM      1  C   UNL     1       6.890   5.586  18.322  0.00  0.00    +0.000 A 
ATOM      2  C   UNL     1       5.770   5.515  19.138  0.00  0.00    +0.000 A 
ATOM      3  C   UNL     1       4.642   4.770  18.789  0.00  0.00    +0.000 A 
ATOM      4  C   UNL     1       4.637   4.054  17.559  0.00  0.00    +0.000 A 
ATOM      5  C   UNL     1       5.773   4.123  16.721  0.00  0.00    +0.000 A 
ATOM      6  C   UNL     1       6.879   4.903  17.105  0.00  0.00    +0.000 A 
ENDROOT
BRANCH   3   7
ATOM      7  O   UNL     1       3.551   4.683  19.624  0.00  0.00    +0.000 OA
ATOM      8  C   UNL     1       2.717   5.849  19.638  0.00  0.00    +0.000 C 
ENDBRANCH   3   7
BRANCH   4   9
ATOM      9  O   UNL     1       3.526   3.285  17.334  0.00  0.00    +0.000 OA
ATOM     10  C   UNL     1       3.495   1.970  17.895  0.00  0.00    +0.000 C 
ENDBRANCH   4   9
BRANCH   5  11
ATOM     11  O   UNL     1       5.793   3.373  15.571  0.00  0.00    +0.000 OA
ATOM     12  C   UNL     1       6.190   4.000  14.356  0.00  0.00    +0.000 C 
ENDBRANCH   5  11
BRANCH   1  13
ATOM     13  C   UNL     1       8.107   6.343  18.800  0.00  0.00    +0.000 C 
BRANCH  13  15
ATOM     14  N   UNL     1       8.858   8.656  19.028  0.00  0.00    +0.000 N 
ATOM     15  C   UNL     1       8.119   7.770  18.273  0.00  0.00    +0.000 C 
ATOM     16  O   UNL     1       7.503   8.119  17.268  0.00  0.00    +0.000 OA
ATOM     17  H   UNL     1       9.512   8.314  19.716  0.00  0.00    +0.000 HD
BRANCH  14  18
ATOM     18  C   UNL     1       8.965  10.039  18.605  0.00  0.00    +0.000 C 
BRANCH  18  19
ATOM     19  C   UNL     1       9.545  10.938  19.693  0.00  0.00    +0.000 C 
BRANCH  19  21
ATOM     20  C   UNL     1      11.166  12.646  19.817  0.00  0.00    +0.000 C 
ATOM     21  O   UNL     1      10.858  11.356  19.306  0.00  0.00    +0.000 OA
ENDBRANCH  19  21
ENDBRANCH  18  19
ENDBRANCH  14  18
ENDBRANCH  13  15
ENDBRANCH   1  13
TORSDOF 8
ENDMDL
