MODEL 1
REMARK VINA RESULT:      -7.4      0.000      0.000
REMARK  Name = 
REMARK  9 active torsions:
REMARK  status: ('A' for Active; 'I' for Inactive)
REMARK    1  A    between atoms: C_1  and  C_2
REMARK    2  A    between atoms: C_2  and  C_3
REMARK    3  A    between atoms: C_2  and  C_4
REMARK    4  A    between atoms: C_2  and  C_5
REMARK    5  A    between atoms: N_7  and  C_8
REMARK    6  A    between atoms: C_8  and  C_9
REMARK    7  A    between atoms: C_9  and  C_10
REMARK    8  A    between atoms: N_13  and  C_14
REMARK    9  A    between atoms: C_20  and  C_21
REMARK                            x       y       z     vdW  Elec       q    Type
REMARK                         _______ _______ _______ _____ _____    ______ ____
ROOT
ATOM      1  C   UNL     1       0.093   9.817  19.131  0.00  0.00    +0.000 C 
ATOM      2  C   UNL     1       0.271   9.055  20.460  0.00  0.00    +0.000 C 
ATOM      3  C   UNL     1       1.720   8.595  20.654  0.00  0.00    +0.000 C 
ATOM      4  N   UNL     1       2.109   7.800  19.499  0.00  0.00    +0.000 N 
ATOM      5  C   UNL     1       2.085   8.487  18.213  0.00  0.00    +0.000 C 
ATOM      6  C   UNL     1       0.646   8.960  17.969  0.00  0.00    +0.000 C 
ENDROOT
BRANCH   4   7
ATOM      7  C   UNL     1       2.555   6.500  19.576  0.00  0.00    +0.000 A 
ATOM      8  N   UNL     1       1.979   5.666  20.481  0.00  0.00    +0.000 NA
ATOM      9  C   UNL     1       2.378   4.388  20.552  0.00  0.00    +0.000 A 
ATOM     10  N   UNL     1       3.323   3.787  19.827  0.00  0.00    +0.000 NA
ATOM     11  C   UNL     1       3.948   4.614  18.955  0.00  0.00    +0.000 A 
ATOM     12  C   UNL     1       5.008   4.220  18.084  0.00  0.00    +0.000 A 
ATOM     13  C   UNL     1       5.493   5.263  17.320  0.00  0.00    +0.000 A 
ATOM     14  S   UNL     1       4.687   6.710  17.698  0.00  0.00    +0.000 S 
ATOM     15  C   UNL     1       3.610   5.956  18.812  0.00  0.00    +0.000 A 
BRANCH  13  16
ATOM     16  C   UNL     1       6.549   5.222  16.328  0.00  0.00    +0.000 C 
ATOM     17  N   UNL     1       7.694   4.553  16.670  0.00  0.00    +0.000 N 
ATOM     18  O   UNL     1       6.475   5.750  15.219  0.00  0.00    +0.000 OA
ATOM     19  H   UNL     1       7.800   4.094  17.563  0.00  0.00    +0.000 HD
ATOM     20  H   UNL     1       8.440   4.507  15.991  0.00  0.00    +0.000 HD
ENDBRANCH  13  16
ENDBRANCH   4   7
BRANCH   1  21
ATOM     21  C   UNL     1       0.735  11.213  19.241  0.00  0.00    +0.000 C 
BRANCH  21  22
ATOM     22  C   UNL     1      -0.051  12.307  18.528  0.00  0.00    +0.000 C 
BRANCH  22  25
ATOM     23  C   UNL     1      -2.414  11.722  18.182  0.00  0.00    +0.000 C 
ATOM     24  O   UNL     1      -2.722  12.187  19.278  0.00  0.00    +0.000 OA
ATOM     25  N   UNL     1      -1.112  11.741  17.724  0.00  0.00    +0.000 N 
ATOM     26  H   UNL     1      -0.865  11.239  16.882  0.00  0.00    +0.000 HD
BRANCH  23  28
ATOM     27  C   UNL     1      -2.952  11.264  15.780  0.00  0.00    +0.000 C 
ATOM     28  C   UNL     1      -3.441  11.089  17.228  0.00  0.00    +0.000 C 
ATOM     29  C   UNL     1      -4.802  11.781  17.381  0.00  0.00    +0.000 C 
ATOM     30  C   UNL     1      -3.574   9.589  17.528  0.00  0.00    +0.000 C 
ENDBRANCH  23  28
ENDBRANCH  22  25
ENDBRANCH  21  22
ENDBRANCH   1  21
TORSDOF 6
ENDMDL
MODEL 2
REMARK VINA RESULT:      -7.4      3.317      8.471
REMARK  Name = 
REMARK  9 active torsions:
REMARK  status: ('A' for Active; 'I' for Inactive)
REMARK    1  A    between atoms: C_1  and  C_2
REMARK    2  A    between atoms: C_2  and  C_3
REMARK    3  A    between atoms: C_2  and  C_4
REMARK    4  A    between atoms: C_2  and  C_5
REMARK    5  A    between atoms: N_7  and  C_8
REMARK    6  A    between atoms: C_8  and  C_9
REMARK    7  A    between atoms: C_9  and  C_10
REMARK    8  A    between atoms: N_13  and  C_14
REMARK    9  A    between atoms: C_20  and  C_21
REMARK                            x       y       z     vdW  Elec       q    Type
REMARK                         _______ _______ _______ _____ _____    ______ ____
ROOT
ATOM      1  C   UNL     1       2.015   3.600  19.688  0.00  0.00    +0.000 C 
ATOM      2  C   UNL     1       1.307   4.223  18.467  0.00  0.00    +0.000 C 
ATOM      3  C   UNL     1       2.145   5.343  17.842  0.00  0.00    +0.000 C 
ATOM      4  N   UNL     1       2.445   6.324  18.874  0.00  0.00    +0.000 N 
ATOM      5  C   UNL     1       3.222   5.840  20.010  0.00  0.00    +0.000 C 
ATOM      6  C   UNL     1       2.415   4.719  20.677  0.00  0.00    +0.000 C 
ENDROOT
BRANCH   4   7
ATOM      7  C   UNL     1       2.106   7.656  18.789  0.00  0.00    +0.000 A 
ATOM      8  N   UNL     1       2.376   8.325  17.639  0.00  0.00    +0.000 NA
ATOM      9  C   UNL     1       2.027   9.614  17.525  0.00  0.00    +0.000 A 
ATOM     10  N   UNL     1       1.428  10.381  18.437  0.00  0.00    +0.000 NA
ATOM     11  C   UNL     1       1.198   9.748  19.613  0.00  0.00    +0.000 A 
ATOM     12  C   UNL     1       0.590  10.355  20.753  0.00  0.00    +0.000 A 
ATOM     13  C   UNL     1       0.502   9.502  21.834  0.00  0.00    +0.000 A 
ATOM     14  S   UNL     1       1.190   7.993  21.467  0.00  0.00    +0.000 S 
ATOM     15  C   UNL     1       1.528   8.415  19.830  0.00  0.00    +0.000 A 
BRANCH  13  16
ATOM     16  C   UNL     1      -0.065   9.776  23.140  0.00  0.00    +0.000 C 
ATOM     17  N   UNL     1      -1.239  10.480  23.169  0.00  0.00    +0.000 N 
ATOM     18  O   UNL     1       0.445   9.422  24.202  0.00  0.00    +0.000 OA
ATOM     19  H   UNL     1      -1.703  10.784  22.325  0.00  0.00    +0.000 HD
ATOM     20  H   UNL     1      -1.655  10.676  24.068  0.00  0.00    +0.000 HD
ENDBRANCH  13  16
ENDBRANCH   4   7
BRANCH   1  21
ATOM     21  C   UNL     1       3.195   2.729  19.216  0.00  0.00    +0.000 C 
BRANCH  21  22
ATOM     22  C   UNL     1       4.561   3.296  19.584  0.00  0.00    +0.000 C 
BRANCH  22  25
ATOM     23  C   UNL     1       6.162   4.912  18.652  0.00  0.00    +0.000 C 
ATOM     24  O   UNL     1       6.602   5.171  19.770  0.00  0.00    +0.000 OA
ATOM     25  N   UNL     1       5.152   3.991  18.462  0.00  0.00    +0.000 N 
ATOM     26  H   UNL     1       4.722   3.893  17.552  0.00  0.00    +0.000 HD
BRANCH  23  28
ATOM     27  C   UNL     1       7.527   4.552  16.584  0.00  0.00    +0.000 C 
ATOM     28  C   UNL     1       6.698   5.579  17.373  0.00  0.00    +0.000 C 
ATOM     29  C   UNL     1       7.594   6.771  17.734  0.00  0.00    +0.000 C 
ATOM     30  C   UNL     1       5.524   6.045  16.499  0.00  0.00    +0.000 C 
ENDBRANCH  23  28
ENDBRANCH  22  25
ENDBRANCH  21  22
ENDBRANCH   1  21
TORSDOF 6
ENDMDL
MODEL 3
REMARK VINA RESULT:      -7.4      2.109      2.742
REMARK  Name = 
REMARK  9 active torsions:
REMARK  status: ('A' for Active; 'I' for Inactive)
REMARK    1  A    between atoms: C_1  and  C_2
REMARK    2  A    between atoms: C_2  and  C_3
REMARK    3  A    between atoms: C_2  and  C_4
REMARK    4  A    between atoms: C_2  and  C_5
REMARK    5  A    between atoms: N_7  and  C_8
REMARK    6  A    between atoms: C_8  and  C_9
REMARK    7  A    between atoms: C_9  and  C_10
REMARK    8  A    between atoms: N_13  and  C_14
REMARK    9  A    between atoms: C_20  and  C_21
REMARK                            x       y       z     vdW  Elec       q    Type
REMARK                         _______ _______ _______ _____ _____    ______ ____
ROOT
ATOM      1  C   UNL     1       0.480   9.930  18.888  0.00  0.00    +0.000 C 
ATOM      2  C   UNL     1       0.361   9.184  20.233  0.00  0.00    +0.000 C 
ATOM      3  C   UNL     1       1.695   8.552  20.644  0.00  0.00    +0.000 C 
ATOM      4  N   UNL     1       2.147   7.688  19.564  0.00  0.00    +0.000 N 
ATOM      5  C   UNL     1       2.401   8.341  18.286  0.00  0.00    +0.000 C 
ATOM      6  C   UNL     1       1.086   8.984  17.826  0.00  0.00    +0.000 C 
ENDROOT
BRANCH   4   7
ATOM      7  C   UNL     1       2.409   6.344  19.715  0.00  0.00    +0.000 A 
ATOM      8  N   UNL     1       1.679   5.635  20.613  0.00  0.00    +0.000 NA
ATOM      9  C   UNL     1       1.897   4.320  20.754  0.00  0.00    +0.000 A 
ATOM     10  N   UNL     1       2.789   3.567  20.107  0.00  0.00    +0.000 NA
ATOM     11  C   UNL     1       3.566   4.265  19.245  0.00  0.00    +0.000 A 
ATOM     12  C   UNL     1       4.607   3.696  18.451  0.00  0.00    +0.000 A 
ATOM     13  C   UNL     1       5.269   4.631  17.681  0.00  0.00    +0.000 A 
ATOM     14  S   UNL     1       4.647   6.188  17.958  0.00  0.00    +0.000 S 
ATOM     15  C   UNL     1       3.420   5.632  19.034  0.00  0.00    +0.000 A 
BRANCH  13  16
ATOM     16  C   UNL     1       6.361   4.407  16.753  0.00  0.00    +0.000 C 
ATOM     17  N   UNL     1       6.134   3.525  15.731  0.00  0.00    +0.000 N 
ATOM     18  O   UNL     1       7.460   4.954  16.837  0.00  0.00    +0.000 OA
ATOM     19  H   UNL     1       5.245   3.059  15.612  0.00  0.00    +0.000 HD
ATOM     20  H   UNL     1       6.879   3.360  15.071  0.00  0.00    +0.000 HD
ENDBRANCH  13  16
ENDBRANCH   4   7
BRANCH   1  21
ATOM     21  C   UNL     1       1.270  11.238  19.086  0.00  0.00    +0.000 C 
BRANCH  21  22
ATOM     22  C   UNL     1       0.387  12.456  19.328  0.00  0.00    +0.000 C 
BRANCH  22  25
ATOM     23  C   UNL     1      -1.434  12.320  20.975  0.00  0.00    +0.000 C 
ATOM     24  O   UNL     1      -2.265  12.135  20.089  0.00  0.00    +0.000 OA
ATOM     25  N   UNL     1      -0.093  12.485  20.693  0.00  0.00    +0.000 N 
ATOM     26  H   UNL     1       0.547  12.764  21.424  0.00  0.00    +0.000 HD
BRANCH  23  28
ATOM     27  C   UNL     1      -3.335  12.501  22.595  0.00  0.00    +0.000 C 
ATOM     28  C   UNL     1      -1.807  12.375  22.467  0.00  0.00    +0.000 C 
ATOM     29  C   UNL     1      -1.150  13.592  23.131  0.00  0.00    +0.000 C 
ATOM     30  C   UNL     1      -1.356  11.083  23.164  0.00  0.00    +0.000 C 
ENDBRANCH  23  28
ENDBRANCH  22  25
ENDBRANCH  21  22
ENDBRANCH   1  21
TORSDOF 6
ENDMDL
MODEL 4
REMARK VINA RESULT:      -7.4      2.655      3.222
REMARK  Name = 
REMARK  9 active torsions:
REMARK  status: ('A' for Active; 'I' for Inactive)
REMARK    1  A    between atoms: C_1  and  C_2
REMARK    2  A    between atoms: C_2  and  C_3
REMARK    3  A    between atoms: C_2  and  C_4
REMARK    4  A    between atoms: C_2  and  C_5
REMARK    5  A    between atoms: N_7  and  C_8
REMARK    6  A    between atoms: C_8  and  C_9
REMARK    7  A    between atoms: C_9  and  C_10
REMARK    8  A    between atoms: N_13  and  C_14
REMARK    9  A    between atoms: C_20  and  C_21
REMARK                            x       y       z     vdW  Elec       q    Type
REMARK                         _______ _______ _______ _____ _____    ______ ____
ROOT
ATOM      1  C   UNL     1       0.769   9.705  19.341  0.00  0.00    +0.000 C 
ATOM      2  C   UNL     1       0.860   8.475  20.268  0.00  0.00    +0.000 C 
ATOM      3  C   UNL     1       2.172   7.711  20.059  0.00  0.00    +0.000 C 
ATOM      4  N   UNL     1       2.279   7.358  18.651  0.00  0.00    +0.000 N 
ATOM      5  C   UNL     1       2.323   8.474  17.714  0.00  0.00    +0.000 C 
ATOM      6  C   UNL     1       1.021   9.268  17.880  0.00  0.00    +0.000 C 
ENDROOT
BRANCH   4   7
ATOM      7  C   UNL     1       2.414   6.067  18.191  0.00  0.00    +0.000 A 
ATOM      8  N   UNL     1       1.343   5.236  18.261  0.00  0.00    +0.000 NA
ATOM      9  C   UNL     1       1.444   3.984  17.792  0.00  0.00    +0.000 A 
ATOM     10  N   UNL     1       2.513   3.402  17.244  0.00  0.00    +0.000 NA
ATOM     11  C   UNL     1       3.609   4.197  17.214  0.00  0.00    +0.000 A 
ATOM     12  C   UNL     1       4.881   3.802  16.701  0.00  0.00    +0.000 A 
ATOM     13  C   UNL     1       5.840   4.789  16.818  0.00  0.00    +0.000 A 
ATOM     14  S   UNL     1       5.197   6.163  17.583  0.00  0.00    +0.000 S 
ATOM     15  C   UNL     1       3.606   5.507  17.682  0.00  0.00    +0.000 A 
BRANCH  13  16
ATOM     16  C   UNL     1       7.225   4.739  16.394  0.00  0.00    +0.000 C 
ATOM     17  N   UNL     1       7.524   5.322  15.191  0.00  0.00    +0.000 N 
ATOM     18  O   UNL     1       8.127   4.208  17.040  0.00  0.00    +0.000 OA
ATOM     19  H   UNL     1       6.822   5.781  14.628  0.00  0.00    +0.000 HD
ATOM     20  H   UNL     1       8.484   5.304  14.879  0.00  0.00    +0.000 HD
ENDBRANCH  13  16
ENDBRANCH   4   7
BRANCH   1  21
ATOM     21  C   UNL     1       1.725  10.805  19.840  0.00  0.00    +0.000 C 
BRANCH  21  22
ATOM     22  C   UNL     1       1.106  12.198  19.849  0.00  0.00    +0.000 C 
BRANCH  22  25
ATOM     23  C   UNL     1      -0.183  12.987  21.788  0.00  0.00    +0.000 C 
ATOM     24  O   UNL     1       0.757  13.680  22.172  0.00  0.00    +0.000 OA
ATOM     25  N   UNL     1      -0.104  12.221  20.643  0.00  0.00    +0.000 N 
ATOM     26  H   UNL     1      -0.839  11.564  20.422  0.00  0.00    +0.000 HD
BRANCH  23  28
ATOM     27  C   UNL     1      -1.707  11.500  23.105  0.00  0.00    +0.000 C 
ATOM     28  C   UNL     1      -1.525  12.918  22.538  0.00  0.00    +0.000 C 
ATOM     29  C   UNL     1      -2.683  13.222  21.579  0.00  0.00    +0.000 C 
ATOM     30  C   UNL     1      -1.524  13.920  23.701  0.00  0.00    +0.000 C 
ENDBRANCH  23  28
ENDBRANCH  22  25
ENDBRANCH  21  22
ENDBRANCH   1  21
TORSDOF 6
ENDMDL
MODEL 5
REMARK VINA RESULT:      -7.1      2.716      8.686
REMARK  Name = 
REMARK  9 active torsions:
REMARK  status: ('A' for Active; 'I' for Inactive)
REMARK    1  A    between atoms: C_1  and  C_2
REMARK    2  A    between atoms: C_2  and  C_3
REMARK    3  A    between atoms: C_2  and  C_4
REMARK    4  A    between atoms: C_2  and  C_5
REMARK    5  A    between atoms: N_7  and  C_8
REMARK    6  A    between atoms: C_8  and  C_9
REMARK    7  A    between atoms: C_9  and  C_10
REMARK    8  A    between atoms: N_13  and  C_14
REMARK    9  A    between atoms: C_20  and  C_21
REMARK                            x       y       z     vdW  Elec       q    Type
REMARK                         _______ _______ _______ _____ _____    ______ ____
ROOT
ATOM      1  C   UNL     1       2.137   7.348  18.219  0.00  0.00    +0.000 C 
ATOM      2  C   UNL     1       1.589   8.588  17.482  0.00  0.00    +0.000 C 
ATOM      3  C   UNL     1       1.855   9.874  18.271  0.00  0.00    +0.000 C 
ATOM      4  N   UNL     1       1.289   9.721  19.603  0.00  0.00    +0.000 N 
ATOM      5  C   UNL     1       1.843   8.643  20.413  0.00  0.00    +0.000 C 
ATOM      6  C   UNL     1       1.592   7.327  19.666  0.00  0.00    +0.000 C 
ENDROOT
BRANCH   4   7
ATOM      7  C   UNL     1       0.343  10.568  20.137  0.00  0.00    +0.000 A 
ATOM      8  N   UNL     1       0.549  11.072  21.381  0.00  0.00    +0.000 NA
ATOM      9  C   UNL     1      -0.345  11.921  21.908  0.00  0.00    +0.000 A 
ATOM     10  N   UNL     1      -1.478  12.358  21.357  0.00  0.00    +0.000 NA
ATOM     11  C   UNL     1      -1.730  11.826  20.137  0.00  0.00    +0.000 A 
ATOM     12  C   UNL     1      -2.886  12.115  19.351  0.00  0.00    +0.000 A 
ATOM     13  C   UNL     1      -2.918  11.414  18.162  0.00  0.00    +0.000 A 
ATOM     14  S   UNL     1      -1.568  10.389  18.032  0.00  0.00    +0.000 S 
ATOM     15  C   UNL     1      -0.868  10.933  19.510  0.00  0.00    +0.000 A 
BRANCH  13  16
ATOM     16  C   UNL     1      -3.927  11.471  17.123  0.00  0.00    +0.000 C 
ATOM     17  N   UNL     1      -5.038  12.229  17.380  0.00  0.00    +0.000 N 
ATOM     18  O   UNL     1      -3.842  10.882  16.046  0.00  0.00    +0.000 OA
ATOM     19  H   UNL     1      -5.150  12.741  18.244  0.00  0.00    +0.000 HD
ATOM     20  H   UNL     1      -5.750  12.287  16.667  0.00  0.00    +0.000 HD
ENDBRANCH  13  16
ENDBRANCH   4   7
BRANCH   1  21
ATOM     21  C   UNL     1       3.675   7.327  18.128  0.00  0.00    +0.000 C 
BRANCH  21  22
ATOM     22  C   UNL     1       4.232   6.078  17.455  0.00  0.00    +0.000 C 
BRANCH  22  25
ATOM     23  C   UNL     1       3.804   4.026  18.741  0.00  0.00    +0.000 C 
ATOM     24  O   UNL     1       4.836   4.181  19.392  0.00  0.00    +0.000 OA
ATOM     25  N   UNL     1       3.421   4.920  17.761  0.00  0.00    +0.000 N 
ATOM     26  H   UNL     1       2.641   4.702  17.156  0.00  0.00    +0.000 HD
BRANCH  23  28
ATOM     27  C   UNL     1       2.638   2.644  20.472  0.00  0.00    +0.000 C 
ATOM     28  C   UNL     1       2.852   2.838  18.962  0.00  0.00    +0.000 C 
ATOM     29  C   UNL     1       3.459   1.557  18.376  0.00  0.00    +0.000 C 
ATOM     30  C   UNL     1       1.495   3.131  18.304  0.00  0.00    +0.000 C 
ENDBRANCH  23  28
ENDBRANCH  22  25
ENDBRANCH  21  22
ENDBRANCH   1  21
TORSDOF 6
ENDMDL
MODEL 6
REMARK VINA RESULT:      -7.1      2.301      2.821
REMARK  Name = 
REMARK  9 active torsions:
REMARK  status: ('A' for Active; 'I' for Inactive)
REMARK    1  A    between atoms: C_1  and  C_2
REMARK    2  A    between atoms: C_2  and  C_3
REMARK    3  A    between atoms: C_2  and  C_4
REMARK    4  A    between atoms: C_2  and  C_5
REMARK    5  A    between atoms: N_7  and  C_8
REMARK    6  A    between atoms: C_8  and  C_9
REMARK    7  A    between atoms: C_9  and  C_10
REMARK    8  A    between atoms: N_13  and  C_14
REMARK    9  A    between atoms: C_20  and  C_21
REMARK                            x       y       z     vdW  Elec       q    Type
REMARK                         _______ _______ _______ _____ _____    ______ ____
ROOT
ATOM      1  C   UNL     1       0.397   9.992  19.128  0.00  0.00    +0.000 C 
ATOM      2  C   UNL     1       0.461   9.074  20.366  0.00  0.00    +0.000 C 
ATOM      3  C   UNL     1       1.843   8.430  20.517  0.00  0.00    +0.000 C 
ATOM      4  N   UNL     1       2.159   7.726  19.283  0.00  0.00    +0.000 N 
ATOM      5  C   UNL     1       2.239   8.547  18.081  0.00  0.00    +0.000 C 
ATOM      6  C   UNL     1       0.870   9.208  17.882  0.00  0.00    +0.000 C 
ENDROOT
BRANCH   4   7
ATOM      7  C   UNL     1       2.451   6.382  19.220  0.00  0.00    +0.000 A 
ATOM      8  N   UNL     1       1.776   5.529  20.032  0.00  0.00    +0.000 NA
ATOM      9  C   UNL     1       2.023   4.213  19.965  0.00  0.00    +0.000 A 
ATOM     10  N   UNL     1       2.898   3.587  19.176  0.00  0.00    +0.000 NA
ATOM     11  C   UNL     1       3.622   4.424  18.395  0.00  0.00    +0.000 A 
ATOM     12  C   UNL     1       4.636   4.005  17.482  0.00  0.00    +0.000 A 
ATOM     13  C   UNL     1       5.245   5.059  16.832  0.00  0.00    +0.000 A 
ATOM     14  S   UNL     1       4.609   6.542  17.365  0.00  0.00    +0.000 S 
ATOM     15  C   UNL     1       3.443   5.804  18.397  0.00  0.00    +0.000 A 
BRANCH  13  16
ATOM     16  C   UNL     1       6.297   5.003  15.836  0.00  0.00    +0.000 C 
ATOM     17  N   UNL     1       5.909   4.817  14.536  0.00  0.00    +0.000 N 
ATOM     18  O   UNL     1       7.496   5.106  16.092  0.00  0.00    +0.000 OA
ATOM     19  H   UNL     1       4.937   4.738  14.273  0.00  0.00    +0.000 HD
ATOM     20  H   UNL     1       6.625   4.781  13.826  0.00  0.00    +0.000 HD
ENDBRANCH  13  16
ENDBRANCH   4   7
BRANCH   1  21
ATOM     21  C   UNL     1       1.193  11.283  19.396  0.00  0.00    +0.000 C 
BRANCH  21  22
ATOM     22  C   UNL     1       1.069  11.794  20.826  0.00  0.00    +0.000 C 
BRANCH  22  25
ATOM     23  C   UNL     1      -0.932  12.165  22.206  0.00  0.00    +0.000 C 
ATOM     24  O   UNL     1      -0.496  11.433  23.093  0.00  0.00    +0.000 OA
ATOM     25  N   UNL     1      -0.223  12.406  21.047  0.00  0.00    +0.000 N 
ATOM     26  H   UNL     1      -0.658  12.904  20.283  0.00  0.00    +0.000 HD
BRANCH  23  28
ATOM     27  C   UNL     1      -3.043  12.716  20.978  0.00  0.00    +0.000 C 
ATOM     28  C   UNL     1      -2.291  12.877  22.310  0.00  0.00    +0.000 C 
ATOM     29  C   UNL     1      -2.085  14.372  22.587  0.00  0.00    +0.000 C 
ATOM     30  C   UNL     1      -3.127  12.242  23.431  0.00  0.00    +0.000 C 
ENDBRANCH  23  28
ENDBRANCH  22  25
ENDBRANCH  21  22
ENDBRANCH   1  21
TORSDOF 6
ENDMDL
MODEL 7
REMARK VINA RESULT:      -7.0      2.201      2.849
REMARK  Name = 
REMARK  9 active torsions:
REMARK  status: ('A' for Active; 'I' for Inactive)
REMARK    1  A    between atoms: C_1  and  C_2
REMARK    2  A    between atoms: C_2  and  C_3
REMARK    3  A    between atoms: C_2  and  C_4
REMARK    4  A    between atoms: C_2  and  C_5
REMARK    5  A    between atoms: N_7  and  C_8
REMARK    6  A    between atoms: C_8  and  C_9
REMARK    7  A    between atoms: C_9  and  C_10
REMARK    8  A    between atoms: N_13  and  C_14
REMARK    9  A    between atoms: C_20  and  C_21
REMARK                            x       y       z     vdW  Elec       q    Type
REMARK                         _______ _______ _______ _____ _____    ______ ____
ROOT
ATOM      1  C   UNL     1       0.401  10.064  19.186  0.00  0.00    +0.000 C 
ATOM      2  C   UNL     1       0.431   9.105  20.394  0.00  0.00    +0.000 C 
ATOM      3  C   UNL     1       1.807   8.450  20.557  0.00  0.00    +0.000 C 
ATOM      4  N   UNL     1       2.150   7.786  19.308  0.00  0.00    +0.000 N 
ATOM      5  C   UNL     1       2.262   8.646  18.137  0.00  0.00    +0.000 C 
ATOM      6  C   UNL     1       0.900   9.320  17.926  0.00  0.00    +0.000 C 
ENDROOT
BRANCH   4   7
ATOM      7  C   UNL     1       2.439   6.443  19.207  0.00  0.00    +0.000 A 
ATOM      8  N   UNL     1       1.825   5.579  20.056  0.00  0.00    +0.000 NA
ATOM      9  C   UNL     1       2.069   4.265  19.955  0.00  0.00    +0.000 A 
ATOM     10  N   UNL     1       2.885   3.651  19.096  0.00  0.00    +0.000 NA
ATOM     11  C   UNL     1       3.549   4.499  18.275  0.00  0.00    +0.000 A 
ATOM     12  C   UNL     1       4.494   4.093  17.285  0.00  0.00    +0.000 A 
ATOM     13  C   UNL     1       5.053   5.157  16.606  0.00  0.00    +0.000 A 
ATOM     14  S   UNL     1       4.455   6.632  17.202  0.00  0.00    +0.000 S 
ATOM     15  C   UNL     1       3.368   5.878  18.307  0.00  0.00    +0.000 A 
BRANCH  13  16
ATOM     16  C   UNL     1       6.030   5.115  15.535  0.00  0.00    +0.000 C 
ATOM     17  N   UNL     1       7.225   5.742  15.765  0.00  0.00    +0.000 N 
ATOM     18  O   UNL     1       5.844   4.561  14.453  0.00  0.00    +0.000 OA
ATOM     19  H   UNL     1       7.431   6.201  16.641  0.00  0.00    +0.000 HD
ATOM     20  H   UNL     1       7.922   5.719  15.035  0.00  0.00    +0.000 HD
ENDBRANCH  13  16
ENDBRANCH   4   7
BRANCH   1  21
ATOM     21  C   UNL     1       1.195  11.342  19.516  0.00  0.00    +0.000 C 
BRANCH  21  22
ATOM     22  C   UNL     1       0.315  12.553  19.804  0.00  0.00    +0.000 C 
BRANCH  22  25
ATOM     23  C   UNL     1      -1.610  12.955  21.279  0.00  0.00    +0.000 C 
ATOM     24  O   UNL     1      -2.204  13.564  20.392  0.00  0.00    +0.000 OA
ATOM     25  N   UNL     1      -0.357  12.413  21.077  0.00  0.00    +0.000 N 
ATOM     26  H   UNL     1       0.161  12.033  21.858  0.00  0.00    +0.000 HD
BRANCH  23  28
ATOM     27  C   UNL     1      -1.722  11.380  23.223  0.00  0.00    +0.000 C 
ATOM     28  C   UNL     1      -2.208  12.735  22.680  0.00  0.00    +0.000 C 
ATOM     29  C   UNL     1      -3.740  12.720  22.605  0.00  0.00    +0.000 C 
ATOM     30  C   UNL     1      -1.734  13.846  23.628  0.00  0.00    +0.000 C 
ENDBRANCH  23  28
ENDBRANCH  22  25
ENDBRANCH  21  22
ENDBRANCH   1  21
TORSDOF 6
ENDMDL
MODEL 8
REMARK VINA RESULT:      -7.0      2.601      8.592
REMARK  Name = 
REMARK  9 active torsions:
REMARK  status: ('A' for Active; 'I' for Inactive)
REMARK    1  A    between atoms: C_1  and  C_2
REMARK    2  A    between atoms: C_2  and  C_3
REMARK    3  A    between atoms: C_2  and  C_4
REMARK    4  A    between atoms: C_2  and  C_5
REMARK    5  A    between atoms: N_7  and  C_8
REMARK    6  A    between atoms: C_8  and  C_9
REMARK    7  A    between atoms: C_9  and  C_10
REMARK    8  A    between atoms: N_13  and  C_14
REMARK    9  A    between atoms: C_20  and  C_21
REMARK                            x       y       z     vdW  Elec       q    Type
REMARK                         _______ _______ _______ _____ _____    ______ ____
ROOT
ATOM      1  C   UNL     1       2.179   7.395  18.237  0.00  0.00    +0.000 C 
ATOM      2  C   UNL     1       1.656   8.655  17.515  0.00  0.00    +0.000 C 
ATOM      3  C   UNL     1       1.892   9.918  18.349  0.00  0.00    +0.000 C 
ATOM      4  N   UNL     1       1.279   9.728  19.655  0.00  0.00    +0.000 N 
ATOM      5  C   UNL     1       1.805   8.628  20.454  0.00  0.00    +0.000 C 
ATOM      6  C   UNL     1       1.582   7.334  19.662  0.00  0.00    +0.000 C 
ENDROOT
BRANCH   4   7
ATOM      7  C   UNL     1       0.314  10.560  20.178  0.00  0.00    +0.000 A 
ATOM      8  N   UNL     1       0.484  11.044  21.435  0.00  0.00    +0.000 NA
ATOM      9  C   UNL     1      -0.429  11.878  21.953  0.00  0.00    +0.000 A 
ATOM     10  N   UNL     1      -1.550  12.317  21.380  0.00  0.00    +0.000 NA
ATOM     11  C   UNL     1      -1.767  11.804  20.145  0.00  0.00    +0.000 A 
ATOM     12  C   UNL     1      -2.904  12.099  19.334  0.00  0.00    +0.000 A 
ATOM     13  C   UNL     1      -2.900  11.419  18.133  0.00  0.00    +0.000 A 
ATOM     14  S   UNL     1      -1.541  10.405  18.021  0.00  0.00    +0.000 S 
ATOM     15  C   UNL     1      -0.882  10.927  19.526  0.00  0.00    +0.000 A 
BRANCH  13  16
ATOM     16  C   UNL     1      -3.882  11.487  17.068  0.00  0.00    +0.000 C 
ATOM     17  N   UNL     1      -3.410  11.402  15.786  0.00  0.00    +0.000 N 
ATOM     18  O   UNL     1      -5.091  11.618  17.253  0.00  0.00    +0.000 OA
ATOM     19  H   UNL     1      -2.428  11.281  15.582  0.00  0.00    +0.000 HD
ATOM     20  H   UNL     1      -4.078  11.440  15.029  0.00  0.00    +0.000 HD
ENDBRANCH  13  16
ENDBRANCH   4   7
BRANCH   1  21
ATOM     21  C   UNL     1       3.719   7.376  18.200  0.00  0.00    +0.000 C 
BRANCH  21  22
ATOM     22  C   UNL     1       4.306   6.030  17.794  0.00  0.00    +0.000 C 
BRANCH  22  25
ATOM     23  C   UNL     1       3.053   4.047  18.532  0.00  0.00    +0.000 C 
ATOM     24  O   UNL     1       2.435   4.002  17.471  0.00  0.00    +0.000 OA
ATOM     25  N   UNL     1       4.005   5.015  18.781  0.00  0.00    +0.000 N 
ATOM     26  H   UNL     1       4.403   5.108  19.705  0.00  0.00    +0.000 HD
BRANCH  23  28
ATOM     27  C   UNL     1       1.783   2.000  19.216  0.00  0.00    +0.000 C 
ATOM     28  C   UNL     1       2.830   3.033  19.668  0.00  0.00    +0.000 C 
ATOM     29  C   UNL     1       2.314   3.748  20.922  0.00  0.00    +0.000 C 
ATOM     30  C   UNL     1       4.145   2.302  19.977  0.00  0.00    +0.000 C 
ENDBRANCH  23  28
ENDBRANCH  22  25
ENDBRANCH  21  22
ENDBRANCH   1  21
TORSDOF 6
ENDMDL
MODEL 9
REMARK VINA RESULT:      -6.9      2.247      2.814
REMARK  Name = 
REMARK  9 active torsions:
REMARK  status: ('A' for Active; 'I' for Inactive)
REMARK    1  A    between atoms: C_1  and  C_2
REMARK    2  A    between atoms: C_2  and  C_3
REMARK    3  A    between atoms: C_2  and  C_4
REMARK    4  A    between atoms: C_2  and  C_5
REMARK    5  A    between atoms: N_7  and  C_8
REMARK    6  A    between atoms: C_8  and  C_9
REMARK    7  A    between atoms: C_9  and  C_10
REMARK    8  A    between atoms: N_13  and  C_14
REMARK    9  A    between atoms: C_20  and  C_21
REMARK                            x       y       z     vdW  Elec       q    Type
REMARK                         _______ _______ _______ _____ _____    ______ ____
ROOT
ATOM      1  C   UNL     1       0.313  10.030  19.244  0.00  0.00    +0.000 C 
ATOM      2  C   UNL     1       0.423   9.070  20.447  0.00  0.00    +0.000 C 
ATOM      3  C   UNL     1       1.821   8.450  20.545  0.00  0.00    +0.000 C 
ATOM      4  N   UNL     1       2.124   7.798  19.280  0.00  0.00    +0.000 N 
ATOM      5  C   UNL     1       2.161   8.663  18.107  0.00  0.00    +0.000 C 
ATOM      6  C   UNL     1       0.774   9.302  17.961  0.00  0.00    +0.000 C 
ENDROOT
BRANCH   4   7
ATOM      7  C   UNL     1       2.442   6.463  19.162  0.00  0.00    +0.000 A 
ATOM      8  N   UNL     1       1.822   5.571  19.977  0.00  0.00    +0.000 NA
ATOM      9  C   UNL     1       2.095   4.264  19.858  0.00  0.00    +0.000 A 
ATOM     10  N   UNL     1       2.946   3.683  19.012  0.00  0.00    +0.000 NA
ATOM     11  C   UNL     1       3.616   4.559  18.226  0.00  0.00    +0.000 A 
ATOM     12  C   UNL     1       4.597   4.191  17.256  0.00  0.00    +0.000 A 
ATOM     13  C   UNL     1       5.153   5.278  16.613  0.00  0.00    +0.000 A 
ATOM     14  S   UNL     1       4.510   6.729  17.220  0.00  0.00    +0.000 S 
ATOM     15  C   UNL     1       3.407   5.933  18.279  0.00  0.00    +0.000 A 
BRANCH  13  16
ATOM     16  C   UNL     1       6.161   5.275  15.570  0.00  0.00    +0.000 C 
ATOM     17  N   UNL     1       7.372   5.834  15.880  0.00  0.00    +0.000 N 
ATOM     18  O   UNL     1       5.987   4.812  14.444  0.00  0.00    +0.000 OA
ATOM     19  H   UNL     1       7.568   6.218  16.793  0.00  0.00    +0.000 HD
ATOM     20  H   UNL     1       8.090   5.837  15.170  0.00  0.00    +0.000 HD
ENDBRANCH  13  16
ENDBRANCH   4   7
BRANCH   1  21
ATOM     21  C   UNL     1       1.089  11.328  19.542  0.00  0.00    +0.000 C 
BRANCH  21  22
ATOM     22  C   UNL     1       0.765  11.937  20.901  0.00  0.00    +0.000 C 
BRANCH  22  25
ATOM     23  C   UNL     1      -1.215  12.686  22.151  0.00  0.00    +0.000 C 
ATOM     24  O   UNL     1      -0.625  12.562  23.223  0.00  0.00    +0.000 OA
ATOM     25  N   UNL     1      -0.603  12.403  20.946  0.00  0.00    +0.000 N 
ATOM     26  H   UNL     1      -1.147  12.389  20.095  0.00  0.00    +0.000 HD
BRANCH  23  28
ATOM     27  C   UNL     1      -3.496  12.495  23.165  0.00  0.00    +0.000 C 
ATOM     28  C   UNL     1      -2.672  13.170  22.055  0.00  0.00    +0.000 C 
ATOM     29  C   UNL     1      -3.267  12.790  20.693  0.00  0.00    +0.000 C 
ATOM     30  C   UNL     1      -2.728  14.692  22.252  0.00  0.00    +0.000 C 
ENDBRANCH  23  28
ENDBRANCH  22  25
ENDBRANCH  21  22
ENDBRANCH   1  21
TORSDOF 6
ENDMDL
