MODEL 1
REMARK VINA RESULT:      -8.4      0.000      0.000
REMARK  Name = 
REMARK  6 active torsions:
REMARK  status: ('A' for Active; 'I' for Inactive)
REMARK    1  A    between atoms: C_2  and  C_3
REMARK    2  A    between atoms: C_3  and  N_4
REMARK    3  A    between atoms: N_18  and  N_19
REMARK    4  A    between atoms: N_19  and  C_20
REMARK    5  A    between atoms: C_20  and  N_22
REMARK    6  A    between atoms: N_22  and  C_23
REMARK                            x       y       z     vdW  Elec       q    Type
REMARK                         _______ _______ _______ _____ _____    ______ ____
ROOT
ATOM      1  O   UNL     1       0.442   9.166  20.518  0.00  0.00    +0.000 OA
ATOM      2  C   UNL     1       1.146   8.907  19.546  0.00  0.00    +0.000 C 
ATOM      3  N   UNL     1       2.117   7.920  19.551  0.00  0.00    +0.000 N 
ATOM      4  H   UNL     1       2.497   7.610  18.658  0.00  0.00    +0.000 HD
ENDROOT
BRANCH   3   5
ATOM      5  N   UNL     1       2.127   6.955  20.572  0.00  0.00    +0.000 N 
ATOM      6  H   UNL     1       2.311   7.304  21.513  0.00  0.00    +0.000 HD
BRANCH   5   7
ATOM      7  C   UNL     1       2.406   5.626  20.257  0.00  0.00    +0.000 C 
ATOM      8  S   UNL     1       1.295   4.383  20.480  0.00  0.00    +0.000 S 
BRANCH   7   9
ATOM      9  N   UNL     1       3.739   5.477  19.883  0.00  0.00    +0.000 N 
ATOM     10  H   UNL     1       4.300   5.053  20.619  0.00  0.00    +0.000 HD
BRANCH   9  11
ATOM     11  C   UNL     1       4.221   5.242  18.569  0.00  0.00    +0.000 A 
ATOM     12  C   UNL     1       4.523   6.313  17.719  0.00  0.00    +0.000 A 
ATOM     13  C   UNL     1       4.969   6.079  16.417  0.00  0.00    +0.000 A 
ATOM     14  C   UNL     1       5.142   4.772  15.969  0.00  0.00    +0.000 A 
ATOM     15 CL   UNL     1       5.658   4.491  14.351  0.00  0.00    +0.000 Cl
ATOM     16  C   UNL     1       4.894   3.693  16.814  0.00  0.00    +0.000 A 
ATOM     17  C   UNL     1       4.452   3.931  18.118  0.00  0.00    +0.000 A 
ATOM     18 CL   UNL     1       4.149   2.569  19.140  0.00  0.00    +0.000 Cl
ENDBRANCH   9  11
ENDBRANCH   7   9
ENDBRANCH   5   7
ENDBRANCH   3   5
BRANCH   2  19
ATOM     19  C   UNL     1       1.104   9.685  18.221  0.00  0.00    +0.000 C 
BRANCH  19  20
ATOM     20  N   UNL     1       0.279  10.912  18.344  0.00  0.00    +0.000 N 
ATOM     21  C   UNL     1       0.918  12.089  18.806  0.00  0.00    +0.000 A 
ATOM     22  C   UNL     1       2.182  12.468  18.323  0.00  0.00    +0.000 A 
ATOM     23  C   UNL     1       2.755  13.693  18.676  0.00  0.00    +0.000 A 
ATOM     24  C   UNL     1       2.088  14.554  19.539  0.00  0.00    +0.000 A 
ATOM     25  C   UNL     1       0.844  14.194  20.050  0.00  0.00    +0.000 A 
ATOM     26  C   UNL     1       0.253  12.978  19.678  0.00  0.00    +0.000 A 
ATOM     27  S   UNL     1      -1.354  12.587  20.353  0.00  0.00    +0.000 S 
ATOM     28  C   UNL     1      -1.990  11.566  19.031  0.00  0.00    +0.000 A 
ATOM     29  C   UNL     1      -3.377  11.535  18.836  0.00  0.00    +0.000 A 
ATOM     30  C   UNL     1      -3.922  10.788  17.795  0.00  0.00    +0.000 A 
ATOM     31  C   UNL     1      -3.085  10.056  16.962  0.00  0.00    +0.000 A 
ATOM     32  C   UNL     1      -1.701  10.061  17.170  0.00  0.00    +0.000 A 
ATOM     33  C   UNL     1      -1.124  10.812  18.207  0.00  0.00    +0.000 A 
ENDBRANCH  19  20
ENDBRANCH   2  19
TORSDOF 6
ENDMDL
MODEL 2
REMARK VINA RESULT:      -8.1      3.868      8.963
REMARK  Name = 
REMARK  6 active torsions:
REMARK  status: ('A' for Active; 'I' for Inactive)
REMARK    1  A    between atoms: C_2  and  C_3
REMARK    2  A    between atoms: C_3  and  N_4
REMARK    3  A    between atoms: N_18  and  N_19
REMARK    4  A    between atoms: N_19  and  C_20
REMARK    5  A    between atoms: C_20  and  N_22
REMARK    6  A    between atoms: N_22  and  C_23
REMARK                            x       y       z     vdW  Elec       q    Type
REMARK                         _______ _______ _______ _____ _____    ______ ____
ROOT
ATOM      1  O   UNL     1       1.639   6.813  17.630  0.00  0.00    +0.000 OA
ATOM      2  C   UNL     1       2.391   7.490  18.326  0.00  0.00    +0.000 C 
ATOM      3  N   UNL     1       2.403   8.875  18.309  0.00  0.00    +0.000 N 
ATOM      4  H   UNL     1       2.881   9.365  19.065  0.00  0.00    +0.000 HD
ENDROOT
BRANCH   3   5
ATOM      5  N   UNL     1       1.334   9.575  17.725  0.00  0.00    +0.000 N 
ATOM      6  H   UNL     1       1.499   9.937  16.786  0.00  0.00    +0.000 HD
BRANCH   5   7
ATOM      7  C   UNL     1       0.380  10.178  18.543  0.00  0.00    +0.000 C 
ATOM      8  S   UNL     1       0.249   9.847  20.189  0.00  0.00    +0.000 S 
BRANCH   7   9
ATOM      9  N   UNL     1      -0.499  10.951  17.791  0.00  0.00    +0.000 N 
ATOM     10  H   UNL     1      -0.144  11.136  16.855  0.00  0.00    +0.000 HD
BRANCH   9  11
ATOM     11  C   UNL     1      -1.915  10.951  17.892  0.00  0.00    +0.000 A 
ATOM     12  C   UNL     1      -2.680  10.017  17.184  0.00  0.00    +0.000 A 
ATOM     13  C   UNL     1      -4.074  10.037  17.262  0.00  0.00    +0.000 A 
ATOM     14  C   UNL     1      -4.707  10.978  18.071  0.00  0.00    +0.000 A 
ATOM     15 CL   UNL     1      -6.427  11.020  18.135  0.00  0.00    +0.000 Cl
ATOM     16  C   UNL     1      -3.964  11.885  18.822  0.00  0.00    +0.000 A 
ATOM     17  C   UNL     1      -2.569  11.858  18.745  0.00  0.00    +0.000 A 
ATOM     18 CL   UNL     1      -1.675  13.001  19.685  0.00  0.00    +0.000 Cl
ENDBRANCH   9  11
ENDBRANCH   7   9
ENDBRANCH   5   7
ENDBRANCH   3   5
BRANCH   2  19
ATOM     19  C   UNL     1       3.470   6.904  19.250  0.00  0.00    +0.000 C 
BRANCH  19  20
ATOM     20  N   UNL     1       3.723   5.474  18.941  0.00  0.00    +0.000 N 
ATOM     21  C   UNL     1       4.655   5.180  17.915  0.00  0.00    +0.000 A 
ATOM     22  C   UNL     1       5.880   5.861  17.829  0.00  0.00    +0.000 A 
ATOM     23  C   UNL     1       6.856   5.483  16.902  0.00  0.00    +0.000 A 
ATOM     24  C   UNL     1       6.618   4.432  16.025  0.00  0.00    +0.000 A 
ATOM     25  C   UNL     1       5.403   3.753  16.074  0.00  0.00    +0.000 A 
ATOM     26  C   UNL     1       4.432   4.111  17.020  0.00  0.00    +0.000 A 
ATOM     27  S   UNL     1       2.904   3.185  17.043  0.00  0.00    +0.000 S 
ATOM     28  C   UNL     1       2.479   3.360  18.771  0.00  0.00    +0.000 A 
ATOM     29  C   UNL     1       1.725   2.340  19.366  0.00  0.00    +0.000 A 
ATOM     30  C   UNL     1       1.401   2.406  20.719  0.00  0.00    +0.000 A 
ATOM     31  C   UNL     1       1.811   3.500  21.472  0.00  0.00    +0.000 A 
ATOM     32  C   UNL     1       2.540   4.535  20.875  0.00  0.00    +0.000 A 
ATOM     33  C   UNL     1       2.887   4.490  19.514  0.00  0.00    +0.000 A 
ENDBRANCH  19  20
ENDBRANCH   2  19
TORSDOF 6
ENDMDL
MODEL 3
REMARK VINA RESULT:      -8.1      0.994      1.073
REMARK  Name = 
REMARK  6 active torsions:
REMARK  status: ('A' for Active; 'I' for Inactive)
REMARK    1  A    between atoms: C_2  and  C_3
REMARK    2  A    between atoms: C_3  and  N_4
REMARK    3  A    between atoms: N_18  and  N_19
REMARK    4  A    between atoms: N_19  and  C_20
REMARK    5  A    between atoms: C_20  and  N_22
REMARK    6  A    between atoms: N_22  and  C_23
REMARK                            x       y       z     vdW  Elec       q    Type
REMARK                         _______ _______ _______ _____ _____    ______ ____
ROOT
ATOM      1  O   UNL     1       0.812   9.193  20.593  0.00  0.00    +0.000 OA
ATOM      2  C   UNL     1       1.380   8.833  19.565  0.00  0.00    +0.000 C 
ATOM      3  N   UNL     1       2.155   7.688  19.486  0.00  0.00    +0.000 N 
ATOM      4  H   UNL     1       2.402   7.333  18.562  0.00  0.00    +0.000 HD
ENDROOT
BRANCH   3   5
ATOM      5  N   UNL     1       2.071   6.716  20.496  0.00  0.00    +0.000 N 
ATOM      6  H   UNL     1       1.939   7.069  21.444  0.00  0.00    +0.000 HD
BRANCH   5   7
ATOM      7  C   UNL     1       2.656   5.467  20.296  0.00  0.00    +0.000 C 
ATOM      8  S   UNL     1       1.891   4.025  20.708  0.00  0.00    +0.000 S 
BRANCH   7   9
ATOM      9  N   UNL     1       3.969   5.600  19.857  0.00  0.00    +0.000 N 
ATOM     10  H   UNL     1       4.637   5.576  20.625  0.00  0.00    +0.000 HD
BRANCH   9  11
ATOM     11  C   UNL     1       4.489   5.153  18.614  0.00  0.00    +0.000 A 
ATOM     12  C   UNL     1       3.630   4.801  17.567  0.00  0.00    +0.000 A 
ATOM     13  C   UNL     1       4.144   4.334  16.356  0.00  0.00    +0.000 A 
ATOM     14  C   UNL     1       5.522   4.241  16.178  0.00  0.00    +0.000 A 
ATOM     15 CL   UNL     1       6.147   3.630  14.696  0.00  0.00    +0.000 Cl
ATOM     16  C   UNL     1       6.396   4.631  17.190  0.00  0.00    +0.000 A 
ATOM     17  C   UNL     1       5.878   5.103  18.399  0.00  0.00    +0.000 A 
ATOM     18 CL   UNL     1       6.990   5.575  19.636  0.00  0.00    +0.000 Cl
ENDBRANCH   9  11
ENDBRANCH   7   9
ENDBRANCH   5   7
ENDBRANCH   3   5
BRANCH   2  19
ATOM     19  C   UNL     1       1.375   9.632  18.252  0.00  0.00    +0.000 C 
BRANCH  19  20
ATOM     20  N   UNL     1       0.519  10.840  18.362  0.00  0.00    +0.000 N 
ATOM     21  C   UNL     1       1.131  12.040  18.800  0.00  0.00    +0.000 A 
ATOM     22  C   UNL     1       2.381  12.444  18.300  0.00  0.00    +0.000 A 
ATOM     23  C   UNL     1       2.925  13.689  18.628  0.00  0.00    +0.000 A 
ATOM     24  C   UNL     1       2.243  14.547  19.482  0.00  0.00    +0.000 A 
ATOM     25  C   UNL     1       1.013  14.163  20.010  0.00  0.00    +0.000 A 
ATOM     26  C   UNL     1       0.451  12.927  19.662  0.00  0.00    +0.000 A 
ATOM     27  S   UNL     1      -1.141  12.506  20.357  0.00  0.00    +0.000 S 
ATOM     28  C   UNL     1      -1.760  11.447  19.057  0.00  0.00    +0.000 A 
ATOM     29  C   UNL     1      -3.148  11.377  18.874  0.00  0.00    +0.000 A 
ATOM     30  C   UNL     1      -3.681  10.599  17.850  0.00  0.00    +0.000 A 
ATOM     31  C   UNL     1      -2.832   9.874  17.022  0.00  0.00    +0.000 A 
ATOM     32  C   UNL     1      -1.447   9.919  17.219  0.00  0.00    +0.000 A 
ATOM     33  C   UNL     1      -0.882  10.702  18.239  0.00  0.00    +0.000 A 
ENDBRANCH  19  20
ENDBRANCH   2  19
TORSDOF 6
ENDMDL
MODEL 4
REMARK VINA RESULT:      -7.9      3.706      8.824
REMARK  Name = 
REMARK  6 active torsions:
REMARK  status: ('A' for Active; 'I' for Inactive)
REMARK    1  A    between atoms: C_2  and  C_3
REMARK    2  A    between atoms: C_3  and  N_4
REMARK    3  A    between atoms: N_18  and  N_19
REMARK    4  A    between atoms: N_19  and  C_20
REMARK    5  A    between atoms: C_20  and  N_22
REMARK    6  A    between atoms: N_22  and  C_23
REMARK                            x       y       z     vdW  Elec       q    Type
REMARK                         _______ _______ _______ _____ _____    ______ ____
ROOT
ATOM      1  O   UNL     1       1.732   6.812  17.499  0.00  0.00    +0.000 OA
ATOM      2  C   UNL     1       2.414   7.508  18.247  0.00  0.00    +0.000 C 
ATOM      3  N   UNL     1       2.316   8.888  18.303  0.00  0.00    +0.000 N 
ATOM      4  H   UNL     1       2.739   9.372  19.094  0.00  0.00    +0.000 HD
ENDROOT
BRANCH   3   5
ATOM      5  N   UNL     1       1.206   9.533  17.731  0.00  0.00    +0.000 N 
ATOM      6  H   UNL     1       1.349   9.925  16.801  0.00  0.00    +0.000 HD
BRANCH   5   7
ATOM      7  C   UNL     1       0.215  10.054  18.561  0.00  0.00    +0.000 C 
ATOM      8  S   UNL     1      -1.343  10.392  18.020  0.00  0.00    +0.000 S 
BRANCH   7   9
ATOM      9  N   UNL     1       0.734  10.374  19.812  0.00  0.00    +0.000 N 
ATOM     10  H   UNL     1       1.752  10.376  19.816  0.00  0.00    +0.000 HD
BRANCH   9  11
ATOM     11  C   UNL     1       0.142  11.233  20.773  0.00  0.00    +0.000 A 
ATOM     12  C   UNL     1       0.121  12.619  20.575  0.00  0.00    +0.000 A 
ATOM     13  C   UNL     1      -0.437  13.464  21.535  0.00  0.00    +0.000 A 
ATOM     14  C   UNL     1      -1.000  12.923  22.689  0.00  0.00    +0.000 A 
ATOM     15 CL   UNL     1      -1.654  13.974  23.886  0.00  0.00    +0.000 Cl
ATOM     16  C   UNL     1      -1.034  11.545  22.884  0.00  0.00    +0.000 A 
ATOM     17  C   UNL     1      -0.479  10.702  21.918  0.00  0.00    +0.000 A 
ATOM     18 CL   UNL     1      -0.532   8.996  22.193  0.00  0.00    +0.000 Cl
ENDBRANCH   9  11
ENDBRANCH   7   9
ENDBRANCH   5   7
ENDBRANCH   3   5
BRANCH   2  19
ATOM     19  C   UNL     1       3.519   6.959  19.163  0.00  0.00    +0.000 C 
BRANCH  19  20
ATOM     20  N   UNL     1       3.781   5.524  18.890  0.00  0.00    +0.000 N 
ATOM     21  C   UNL     1       4.723   5.210  17.879  0.00  0.00    +0.000 A 
ATOM     22  C   UNL     1       5.947   5.895  17.787  0.00  0.00    +0.000 A 
ATOM     23  C   UNL     1       6.932   5.500  16.878  0.00  0.00    +0.000 A 
ATOM     24  C   UNL     1       6.706   4.427  16.024  0.00  0.00    +0.000 A 
ATOM     25  C   UNL     1       5.493   3.745  16.078  0.00  0.00    +0.000 A 
ATOM     26  C   UNL     1       4.513   4.120  17.007  0.00  0.00    +0.000 A 
ATOM     27  S   UNL     1       2.989   3.188  17.039  0.00  0.00    +0.000 S 
ATOM     28  C   UNL     1       2.548   3.401  18.758  0.00  0.00    +0.000 A 
ATOM     29  C   UNL     1       1.793   2.392  19.371  0.00  0.00    +0.000 A 
ATOM     30  C   UNL     1       1.457   2.488  20.718  0.00  0.00    +0.000 A 
ATOM     31  C   UNL     1       1.856   3.601  21.450  0.00  0.00    +0.000 A 
ATOM     32  C   UNL     1       2.585   4.625  20.835  0.00  0.00    +0.000 A 
ATOM     33  C   UNL     1       2.945   4.550  19.479  0.00  0.00    +0.000 A 
ENDBRANCH  19  20
ENDBRANCH   2  19
TORSDOF 6
ENDMDL
MODEL 5
REMARK VINA RESULT:      -7.8      1.152      1.375
REMARK  Name = 
REMARK  6 active torsions:
REMARK  status: ('A' for Active; 'I' for Inactive)
REMARK    1  A    between atoms: C_2  and  C_3
REMARK    2  A    between atoms: C_3  and  N_4
REMARK    3  A    between atoms: N_18  and  N_19
REMARK    4  A    between atoms: N_19  and  C_20
REMARK    5  A    between atoms: C_20  and  N_22
REMARK    6  A    between atoms: N_22  and  C_23
REMARK                            x       y       z     vdW  Elec       q    Type
REMARK                         _______ _______ _______ _____ _____    ______ ____
ROOT
ATOM      1  O   UNL     1       0.785   9.614  20.853  0.00  0.00    +0.000 OA
ATOM      2  C   UNL     1       1.032   9.358  19.677  0.00  0.00    +0.000 C 
ATOM      3  N   UNL     1       1.858   8.319  19.283  0.00  0.00    +0.000 N 
ATOM      4  H   UNL     1       1.835   8.026  18.306  0.00  0.00    +0.000 HD
ENDROOT
BRANCH   3   5
ATOM      5  N   UNL     1       2.201   7.312  20.200  0.00  0.00    +0.000 N 
ATOM      6  H   UNL     1       2.780   7.605  20.987  0.00  0.00    +0.000 HD
BRANCH   5   7
ATOM      7  C   UNL     1       2.214   5.981  19.785  0.00  0.00    +0.000 C 
ATOM      8  S   UNL     1       2.287   4.690  20.862  0.00  0.00    +0.000 S 
BRANCH   7   9
ATOM      9  N   UNL     1       2.301   5.897  18.398  0.00  0.00    +0.000 N 
ATOM     10  H   UNL     1       1.650   6.527  17.933  0.00  0.00    +0.000 HD
BRANCH   9  11
ATOM     11  C   UNL     1       3.467   5.598  17.646  0.00  0.00    +0.000 A 
ATOM     12  C   UNL     1       4.423   6.587  17.389  0.00  0.00    +0.000 A 
ATOM     13  C   UNL     1       5.554   6.297  16.625  0.00  0.00    +0.000 A 
ATOM     14  C   UNL     1       5.747   5.008  16.135  0.00  0.00    +0.000 A 
ATOM     15 CL   UNL     1       7.126   4.666  15.163  0.00  0.00    +0.000 Cl
ATOM     16  C   UNL     1       4.833   3.996  16.420  0.00  0.00    +0.000 A 
ATOM     17  C   UNL     1       3.704   4.289  17.190  0.00  0.00    +0.000 A 
ATOM     18 CL   UNL     1       2.586   3.012  17.521  0.00  0.00    +0.000 Cl
ENDBRANCH   9  11
ENDBRANCH   7   9
ENDBRANCH   5   7
ENDBRANCH   3   5
BRANCH   2  19
ATOM     19  C   UNL     1       0.528  10.193  18.490  0.00  0.00    +0.000 C 
BRANCH  19  20
ATOM     20  N   UNL     1       0.142  11.560  18.919  0.00  0.00    +0.000 N 
ATOM     21  C   UNL     1       1.183  12.488  19.165  0.00  0.00    +0.000 A 
ATOM     22  C   UNL     1       2.275  12.606  18.289  0.00  0.00    +0.000 A 
ATOM     23  C   UNL     1       3.234  13.609  18.456  0.00  0.00    +0.000 A 
ATOM     24  C   UNL     1       3.135  14.502  19.517  0.00  0.00    +0.000 A 
ATOM     25  C   UNL     1       2.075  14.394  20.413  0.00  0.00    +0.000 A 
ATOM     26  C   UNL     1       1.096  13.407  20.234  0.00  0.00    +0.000 A 
ATOM     27  S   UNL     1      -0.249  13.338  21.408  0.00  0.00    +0.000 S 
ATOM     28  C   UNL     1      -1.524  12.656  20.356  0.00  0.00    +0.000 A 
ATOM     29  C   UNL     1      -2.856  12.981  20.647  0.00  0.00    +0.000 A 
ATOM     30  C   UNL     1      -3.885  12.510  19.837  0.00  0.00    +0.000 A 
ATOM     31  C   UNL     1      -3.588  11.698  18.749  0.00  0.00    +0.000 A 
ATOM     32  C   UNL     1      -2.262  11.348  18.471  0.00  0.00    +0.000 A 
ATOM     33  C   UNL     1      -1.203  11.816  19.268  0.00  0.00    +0.000 A 
ENDBRANCH  19  20
ENDBRANCH   2  19
TORSDOF 6
ENDMDL
MODEL 6
REMARK VINA RESULT:      -7.8      3.801      8.716
REMARK  Name = 
REMARK  6 active torsions:
REMARK  status: ('A' for Active; 'I' for Inactive)
REMARK    1  A    between atoms: C_2  and  C_3
REMARK    2  A    between atoms: C_3  and  N_4
REMARK    3  A    between atoms: N_18  and  N_19
REMARK    4  A    between atoms: N_19  and  C_20
REMARK    5  A    between atoms: C_20  and  N_22
REMARK    6  A    between atoms: N_22  and  C_23
REMARK                            x       y       z     vdW  Elec       q    Type
REMARK                         _______ _______ _______ _____ _____    ______ ____
ROOT
ATOM      1  O   UNL     1       2.491   8.075  19.592  0.00  0.00    +0.000 OA
ATOM      2  C   UNL     1       2.086   8.021  18.434  0.00  0.00    +0.000 C 
ATOM      3  N   UNL     1       1.589   9.118  17.750  0.00  0.00    +0.000 N 
ATOM      4  H   UNL     1       1.487   9.053  16.738  0.00  0.00    +0.000 HD
ENDROOT
BRANCH   3   5
ATOM      5  N   UNL     1       1.819  10.413  18.245  0.00  0.00    +0.000 N 
ATOM      6  H   UNL     1       2.797  10.676  18.366  0.00  0.00    +0.000 HD
BRANCH   5   7
ATOM      7  C   UNL     1       0.831  11.044  19.000  0.00  0.00    +0.000 C 
ATOM      8  S   UNL     1       0.741  10.914  20.676  0.00  0.00    +0.000 S 
BRANCH   7   9
ATOM      9  N   UNL     1      -0.110  11.651  18.174  0.00  0.00    +0.000 N 
ATOM     10  H   UNL     1       0.276  11.890  17.262  0.00  0.00    +0.000 HD
BRANCH   9  11
ATOM     11  C   UNL     1      -1.508  11.409  18.174  0.00  0.00    +0.000 A 
ATOM     12  C   UNL     1      -2.052  10.367  17.414  0.00  0.00    +0.000 A 
ATOM     13  C   UNL     1      -3.431  10.150  17.393  0.00  0.00    +0.000 A 
ATOM     14  C   UNL     1      -4.270  10.959  18.155  0.00  0.00    +0.000 A 
ATOM     15 CL   UNL     1      -5.972  10.708  18.097  0.00  0.00    +0.000 Cl
ATOM     16  C   UNL     1      -3.746  11.970  18.957  0.00  0.00    +0.000 A 
ATOM     17  C   UNL     1      -2.365  12.181  18.979  0.00  0.00    +0.000 A 
ATOM     18 CL   UNL     1      -1.747  13.448  19.980  0.00  0.00    +0.000 Cl
ENDBRANCH   9  11
ENDBRANCH   7   9
ENDBRANCH   5   7
ENDBRANCH   3   5
BRANCH   2  19
ATOM     19  C   UNL     1       1.999   6.726  17.611  0.00  0.00    +0.000 C 
BRANCH  19  20
ATOM     20  N   UNL     1       2.951   5.705  18.114  0.00  0.00    +0.000 N 
ATOM     21  C   UNL     1       4.264   5.713  17.583  0.00  0.00    +0.000 A 
ATOM     22  C   UNL     1       4.973   6.914  17.415  0.00  0.00    +0.000 A 
ATOM     23  C   UNL     1       6.313   6.915  17.017  0.00  0.00    +0.000 A 
ATOM     24  C   UNL     1       6.966   5.716  16.756  0.00  0.00    +0.000 A 
ATOM     25  C   UNL     1       6.281   4.512  16.893  0.00  0.00    +0.000 A 
ATOM     26  C   UNL     1       4.945   4.505  17.317  0.00  0.00    +0.000 A 
ATOM     27  S   UNL     1       4.131   2.924  17.493  0.00  0.00    +0.000 S 
ATOM     28  C   UNL     1       2.957   3.337  18.777  0.00  0.00    +0.000 A 
ATOM     29  C   UNL     1       2.540   2.313  19.638  0.00  0.00    +0.000 A 
ATOM     30  C   UNL     1       1.659   2.588  20.680  0.00  0.00    +0.000 A 
ATOM     31  C   UNL     1       1.178   3.881  20.851  0.00  0.00    +0.000 A 
ATOM     32  C   UNL     1       1.570   4.901  19.977  0.00  0.00    +0.000 A 
ATOM     33  C   UNL     1       2.464   4.653  18.922  0.00  0.00    +0.000 A 
ENDBRANCH  19  20
ENDBRANCH   2  19
TORSDOF 6
ENDMDL
MODEL 7
REMARK VINA RESULT:      -7.7      3.934      8.965
REMARK  Name = 
REMARK  6 active torsions:
REMARK  status: ('A' for Active; 'I' for Inactive)
REMARK    1  A    between atoms: C_2  and  C_3
REMARK    2  A    between atoms: C_3  and  N_4
REMARK    3  A    between atoms: N_18  and  N_19
REMARK    4  A    between atoms: N_19  and  C_20
REMARK    5  A    between atoms: C_20  and  N_22
REMARK    6  A    between atoms: N_22  and  C_23
REMARK                            x       y       z     vdW  Elec       q    Type
REMARK                         _______ _______ _______ _____ _____    ______ ____
ROOT
ATOM      1  O   UNL     1       1.638   6.849  17.583  0.00  0.00    +0.000 OA
ATOM      2  C   UNL     1       2.350   7.542  18.305  0.00  0.00    +0.000 C 
ATOM      3  N   UNL     1       2.285   8.925  18.335  0.00  0.00    +0.000 N 
ATOM      4  H   UNL     1       2.734   9.414  19.109  0.00  0.00    +0.000 HD
ENDROOT
BRANCH   3   5
ATOM      5  N   UNL     1       1.181   9.585  17.770  0.00  0.00    +0.000 N 
ATOM      6  H   UNL     1       1.302   9.914  16.813  0.00  0.00    +0.000 HD
BRANCH   5   7
ATOM      7  C   UNL     1       0.250  10.201  18.605  0.00  0.00    +0.000 C 
ATOM      8  S   UNL     1      -1.323  10.549  18.117  0.00  0.00    +0.000 S 
BRANCH   7   9
ATOM      9  N   UNL     1       0.843  10.596  19.800  0.00  0.00    +0.000 N 
ATOM     10  H   UNL     1       1.853  10.690  19.716  0.00  0.00    +0.000 HD
BRANCH   9  11
ATOM     11  C   UNL     1       0.257  11.420  20.796  0.00  0.00    +0.000 A 
ATOM     12  C   UNL     1      -0.491  10.858  21.838  0.00  0.00    +0.000 A 
ATOM     13  C   UNL     1      -1.090  11.673  22.799  0.00  0.00    +0.000 A 
ATOM     14  C   UNL     1      -0.920  13.054  22.739  0.00  0.00    +0.000 A 
ATOM     15 CL   UNL     1      -1.691  14.056  23.907  0.00  0.00    +0.000 Cl
ATOM     16  C   UNL     1      -0.139  13.631  21.740  0.00  0.00    +0.000 A 
ATOM     17  C   UNL     1       0.463  12.811  20.782  0.00  0.00    +0.000 A 
ATOM     18 CL   UNL     1       1.421  13.558  19.552  0.00  0.00    +0.000 Cl
ENDBRANCH   9  11
ENDBRANCH   7   9
ENDBRANCH   5   7
ENDBRANCH   3   5
BRANCH   2  19
ATOM     19  C   UNL     1       3.457   6.984  19.214  0.00  0.00    +0.000 C 
BRANCH  19  20
ATOM     20  N   UNL     1       3.725   5.555  18.919  0.00  0.00    +0.000 N 
ATOM     21  C   UNL     1       4.666   5.259  17.903  0.00  0.00    +0.000 A 
ATOM     22  C   UNL     1       5.887   5.951  17.819  0.00  0.00    +0.000 A 
ATOM     23  C   UNL     1       6.872   5.573  16.902  0.00  0.00    +0.000 A 
ATOM     24  C   UNL     1       6.649   4.512  16.033  0.00  0.00    +0.000 A 
ATOM     25  C   UNL     1       5.440   3.823  16.080  0.00  0.00    +0.000 A 
ATOM     26  C   UNL     1       4.460   4.181  17.015  0.00  0.00    +0.000 A 
ATOM     27  S   UNL     1       2.940   3.242  17.036  0.00  0.00    +0.000 S 
ATOM     28  C   UNL     1       2.501   3.429  18.760  0.00  0.00    +0.000 A 
ATOM     29  C   UNL     1       1.751   2.407  19.359  0.00  0.00    +0.000 A 
ATOM     30  C   UNL     1       1.417   2.482  20.708  0.00  0.00    +0.000 A 
ATOM     31  C   UNL     1       1.812   3.587  21.455  0.00  0.00    +0.000 A 
ATOM     32  C   UNL     1       2.536   4.622  20.853  0.00  0.00    +0.000 A 
ATOM     33  C   UNL     1       2.894   4.568  19.496  0.00  0.00    +0.000 A 
ENDBRANCH  19  20
ENDBRANCH   2  19
TORSDOF 6
ENDMDL
MODEL 8
REMARK VINA RESULT:      -7.7      3.821      8.548
REMARK  Name = 
REMARK  6 active torsions:
REMARK  status: ('A' for Active; 'I' for Inactive)
REMARK    1  A    between atoms: C_2  and  C_3
REMARK    2  A    between atoms: C_3  and  N_4
REMARK    3  A    between atoms: N_18  and  N_19
REMARK    4  A    between atoms: N_19  and  C_20
REMARK    5  A    between atoms: C_20  and  N_22
REMARK    6  A    between atoms: N_22  and  C_23
REMARK                            x       y       z     vdW  Elec       q    Type
REMARK                         _______ _______ _______ _____ _____    ______ ____
ROOT
ATOM      1  O   UNL     1       1.709   7.280  18.347  0.00  0.00    +0.000 OA
ATOM      2  C   UNL     1       2.407   7.292  19.357  0.00  0.00    +0.000 C 
ATOM      3  N   UNL     1       2.000   7.853  20.556  0.00  0.00    +0.000 N 
ATOM      4  H   UNL     1       2.527   7.628  21.400  0.00  0.00    +0.000 HD
ENDROOT
BRANCH   3   5
ATOM      5  N   UNL     1       0.644   8.155  20.762  0.00  0.00    +0.000 N 
ATOM      6  H   UNL     1      -0.021   7.616  20.207  0.00  0.00    +0.000 HD
BRANCH   5   7
ATOM      7  C   UNL     1       0.287   9.412  21.246  0.00  0.00    +0.000 C 
ATOM      8  S   UNL     1      -0.231   9.668  22.827  0.00  0.00    +0.000 S 
BRANCH   7   9
ATOM      9  N   UNL     1       0.287  10.355  20.222  0.00  0.00    +0.000 N 
ATOM     10  H   UNL     1       1.220  10.516  19.848  0.00  0.00    +0.000 HD
BRANCH   9  11
ATOM     11  C   UNL     1      -0.764  10.593  19.299  0.00  0.00    +0.000 A 
ATOM     12  C   UNL     1      -0.854   9.855  18.114  0.00  0.00    +0.000 A 
ATOM     13  C   UNL     1      -1.872  10.111  17.195  0.00  0.00    +0.000 A 
ATOM     14  C   UNL     1      -2.823  11.091  17.470  0.00  0.00    +0.000 A 
ATOM     15 CL   UNL     1      -4.055  11.426  16.316  0.00  0.00    +0.000 Cl
ATOM     16  C   UNL     1      -2.782  11.804  18.666  0.00  0.00    +0.000 A 
ATOM     17  C   UNL     1      -1.763  11.541  19.586  0.00  0.00    +0.000 A 
ATOM     18 CL   UNL     1      -1.737  12.447  21.059  0.00  0.00    +0.000 Cl
ENDBRANCH   9  11
ENDBRANCH   7   9
ENDBRANCH   5   7
ENDBRANCH   3   5
BRANCH   2  19
ATOM     19  C   UNL     1       3.848   6.762  19.414  0.00  0.00    +0.000 C 
BRANCH  19  20
ATOM     20  N   UNL     1       3.913   5.336  19.006  0.00  0.00    +0.000 N 
ATOM     21  C   UNL     1       4.746   5.005  17.909  0.00  0.00    +0.000 A 
ATOM     22  C   UNL     1       6.037   5.545  17.787  0.00  0.00    +0.000 A 
ATOM     23  C   UNL     1       6.909   5.120  16.781  0.00  0.00    +0.000 A 
ATOM     24  C   UNL     1       6.500   4.163  15.860  0.00  0.00    +0.000 A 
ATOM     25  C   UNL     1       5.218   3.627  15.944  0.00  0.00    +0.000 A 
ATOM     26  C   UNL     1       4.350   4.031  16.967  0.00  0.00    +0.000 A 
ATOM     27  S   UNL     1       2.726   3.287  17.030  0.00  0.00    +0.000 S 
ATOM     28  C   UNL     1       2.420   3.395  18.789  0.00  0.00    +0.000 A 
ATOM     29  C   UNL     1       1.584   2.431  19.368  0.00  0.00    +0.000 A 
ATOM     30  C   UNL     1       1.344   2.445  20.739  0.00  0.00    +0.000 A 
ATOM     31  C   UNL     1       1.921   3.432  21.529  0.00  0.00    +0.000 A 
ATOM     32  C   UNL     1       2.734   4.414  20.950  0.00  0.00    +0.000 A 
ATOM     33  C   UNL     1       2.999   4.419  19.571  0.00  0.00    +0.000 A 
ENDBRANCH  19  20
ENDBRANCH   2  19
TORSDOF 6
ENDMDL
MODEL 9
REMARK VINA RESULT:      -7.7      3.840      8.792
REMARK  Name = 
REMARK  6 active torsions:
REMARK  status: ('A' for Active; 'I' for Inactive)
REMARK    1  A    between atoms: C_2  and  C_3
REMARK    2  A    between atoms: C_3  and  N_4
REMARK    3  A    between atoms: N_18  and  N_19
REMARK    4  A    between atoms: N_19  and  C_20
REMARK    5  A    between atoms: C_20  and  N_22
REMARK    6  A    between atoms: N_22  and  C_23
REMARK                            x       y       z     vdW  Elec       q    Type
REMARK                         _______ _______ _______ _____ _____    ______ ____
ROOT
ATOM      1  O   UNL     1       2.056   8.053  18.712  0.00  0.00    +0.000 OA
ATOM      2  C   UNL     1       2.339   7.331  19.665  0.00  0.00    +0.000 C 
ATOM      3  N   UNL     1       1.666   7.369  20.875  0.00  0.00    +0.000 N 
ATOM      4  H   UNL     1       1.801   6.599  21.529  0.00  0.00    +0.000 HD
ENDROOT
BRANCH   3   5
ATOM      5  N   UNL     1       0.423   8.017  20.962  0.00  0.00    +0.000 N 
ATOM      6  H   UNL     1      -0.293   7.697  20.309  0.00  0.00    +0.000 HD
BRANCH   5   7
ATOM      7  C   UNL     1       0.356   9.305  21.489  0.00  0.00    +0.000 C 
ATOM      8  S   UNL     1       0.099   9.611  23.124  0.00  0.00    +0.000 S 
BRANCH   7   9
ATOM      9  N   UNL     1       0.389  10.257  20.474  0.00  0.00    +0.000 N 
ATOM     10  H   UNL     1       1.322  10.372  20.084  0.00  0.00    +0.000 HD
BRANCH   9  11
ATOM     11  C   UNL     1      -0.665  10.560  19.572  0.00  0.00    +0.000 A 
ATOM     12  C   UNL     1      -0.783   9.875  18.358  0.00  0.00    +0.000 A 
ATOM     13  C   UNL     1      -1.803  10.196  17.460  0.00  0.00    +0.000 A 
ATOM     14  C   UNL     1      -2.726  11.186  17.787  0.00  0.00    +0.000 A 
ATOM     15 CL   UNL     1      -3.960  11.601  16.660  0.00  0.00    +0.000 Cl
ATOM     16  C   UNL     1      -2.656  11.846  19.011  0.00  0.00    +0.000 A 
ATOM     17  C   UNL     1      -1.637  11.519  19.909  0.00  0.00    +0.000 A 
ATOM     18 CL   UNL     1      -1.575  12.361  21.418  0.00  0.00    +0.000 Cl
ENDBRANCH   9  11
ENDBRANCH   7   9
ENDBRANCH   5   7
ENDBRANCH   3   5
BRANCH   2  19
ATOM     19  C   UNL     1       3.519   6.346  19.679  0.00  0.00    +0.000 C 
BRANCH  19  20
ATOM     20  N   UNL     1       3.365   5.309  18.628  0.00  0.00    +0.000 N 
ATOM     21  C   UNL     1       2.537   4.197  18.921  0.00  0.00    +0.000 A 
ATOM     22  C   UNL     1       1.289   4.364  19.545  0.00  0.00    +0.000 A 
ATOM     23  C   UNL     1       0.414   3.287  19.714  0.00  0.00    +0.000 A 
ATOM     24  C   UNL     1       0.776   2.016  19.284  0.00  0.00    +0.000 A 
ATOM     25  C   UNL     1       2.016   1.819  18.682  0.00  0.00    +0.000 A 
ATOM     26  C   UNL     1       2.886   2.900  18.486  0.00  0.00    +0.000 A 
ATOM     27  S   UNL     1       4.453   2.580  17.688  0.00  0.00    +0.000 S 
ATOM     28  C   UNL     1       4.725   4.174  16.923  0.00  0.00    +0.000 A 
ATOM     29  C   UNL     1       5.478   4.213  15.742  0.00  0.00    +0.000 A 
ATOM     30  C   UNL     1       5.687   5.422  15.084  0.00  0.00    +0.000 A 
ATOM     31  C   UNL     1       5.161   6.594  15.615  0.00  0.00    +0.000 A 
ATOM     32  C   UNL     1       4.432   6.563  16.809  0.00  0.00    +0.000 A 
ATOM     33  C   UNL     1       4.200   5.356  17.489  0.00  0.00    +0.000 A 
ENDBRANCH  19  20
ENDBRANCH   2  19
TORSDOF 6
ENDMDL
