MODEL 1
REMARK VINA RESULT:      -8.4      0.000      0.000
REMARK  Name = 
REMARK  4 active torsions:
REMARK  status: ('A' for Active; 'I' for Inactive)
REMARK    1  A    between atoms: C_9  and  O_10
REMARK    2  A    between atoms: C_9  and  C_11
REMARK    3  A    between atoms: C_19  and  C_20
REMARK    4  A    between atoms: N_23  and  C_24
REMARK                            x       y       z     vdW  Elec       q    Type
REMARK                         _______ _______ _______ _____ _____    ______ ____
ROOT
ATOM      1  O   UNL     1       0.796   5.962  20.454  0.00  0.00    +0.000 OA
ATOM      2  C   UNL     1       1.913   5.680  20.040  0.00  0.00    +0.000 C 
ATOM      3  C   UNL     1       2.501   4.399  20.478  0.00  0.00    +0.000 A 
ATOM      4  C   UNL     1       1.979   3.777  21.624  0.00  0.00    +0.000 A 
ATOM      5  C   UNL     1       2.414   2.508  21.999  0.00  0.00    +0.000 A 
ATOM      6  C   UNL     1       3.375   1.858  21.234  0.00  0.00    +0.000 A 
ATOM      7  C   UNL     1       3.918   2.490  20.112  0.00  0.00    +0.000 A 
ATOM      8  C   UNL     1       3.493   3.779  19.718  0.00  0.00    +0.000 A 
ATOM      9  C   UNL     1       4.045   4.443  18.466  0.00  0.00    +0.000 C 
ATOM     10  C   UNL     1       3.635   5.906  18.275  0.00  0.00    +0.000 A 
ATOM     11  C   UNL     1       4.277   6.650  17.260  0.00  0.00    +0.000 A 
ATOM     12  C   UNL     1       3.926   7.965  17.000  0.00  0.00    +0.000 A 
ATOM     13  C   UNL     1       2.956   8.579  17.781  0.00  0.00    +0.000 A 
ATOM     14  C   UNL     1       2.298   7.893  18.825  0.00  0.00    +0.000 A 
ATOM     15  C   UNL     1       2.630   6.529  19.049  0.00  0.00    +0.000 A 
ENDROOT
BRANCH  14  16
ATOM     16  C   UNL     1       1.385   8.684  19.651  0.00  0.00    +0.000 A 
ATOM     17  C   UNL     1       1.272   8.829  21.053  0.00  0.00    +0.000 A 
ATOM     18  N   UNL     1       0.383   9.755  21.412  0.00  0.00    +0.000 NA
ATOM     19  N   UNL     1      -0.072  10.236  20.246  0.00  0.00    +0.000 N 
ATOM     20  C   UNL     1       0.471   9.602  19.162  0.00  0.00    +0.000 A 
BRANCH  19  21
ATOM     21  C   UNL     1      -0.945  11.406  20.216  0.00  0.00    +0.000 C 
ATOM     22  C   UNL     1      -2.073  11.264  19.183  0.00  0.00    +0.000 C 
ATOM     23  C   UNL     1      -1.619  11.594  17.764  0.00  0.00    +0.000 C 
ATOM     24  N   UNL     1      -0.973  12.906  17.690  0.00  0.00    +0.000 NA
ATOM     25  C   UNL     1       0.199  12.962  18.565  0.00  0.00    +0.000 C 
ATOM     26  C   UNL     1      -0.178  12.718  20.024  0.00  0.00    +0.000 C 
ATOM     27  H   UNL     1      -1.636  13.631  17.957  0.00  0.00    +0.000 HD
ENDBRANCH  19  21
ENDBRANCH  14  16
BRANCH   9  28
ATOM     28  C   UNL     1       3.707   3.599  17.169  0.00  0.00    +0.000 C 
ATOM     29  F   UNL     1       4.360   4.040  16.066  0.00  0.00    +0.000 F 
ATOM     30  F   UNL     1       4.004   2.284  17.288  0.00  0.00    +0.000 F 
ATOM     31  F   UNL     1       2.380   3.680  16.881  0.00  0.00    +0.000 F 
ENDBRANCH   9  28
BRANCH   9  32
ATOM     32  O   UNL     1       5.479   4.548  18.693  0.00  0.00    +0.000 OA
ATOM     33  H   UNL     1       5.632   4.948  19.564  0.00  0.00    +0.000 HD
ENDBRANCH   9  32
TORSDOF 4
ENDMDL
MODEL 2
REMARK VINA RESULT:      -8.2      4.217      7.935
REMARK  Name = 
REMARK  4 active torsions:
REMARK  status: ('A' for Active; 'I' for Inactive)
REMARK    1  A    between atoms: C_9  and  O_10
REMARK    2  A    between atoms: C_9  and  C_11
REMARK    3  A    between atoms: C_19  and  C_20
REMARK    4  A    between atoms: N_23  and  C_24
REMARK                            x       y       z     vdW  Elec       q    Type
REMARK                         _______ _______ _______ _____ _____    ______ ____
ROOT
ATOM      1  O   UNL     1       1.325   8.384  22.110  0.00  0.00    +0.000 OA
ATOM      2  C   UNL     1       0.912   9.148  21.248  0.00  0.00    +0.000 C 
ATOM      3  C   UNL     1      -0.036  10.200  21.664  0.00  0.00    +0.000 A 
ATOM      4  C   UNL     1      -0.725  10.042  22.878  0.00  0.00    +0.000 A 
ATOM      5  C   UNL     1      -1.529  11.067  23.372  0.00  0.00    +0.000 A 
ATOM      6  C   UNL     1      -1.651  12.250  22.655  0.00  0.00    +0.000 A 
ATOM      7  C   UNL     1      -0.990  12.395  21.431  0.00  0.00    +0.000 A 
ATOM      8  C   UNL     1      -0.174  11.366  20.910  0.00  0.00    +0.000 A 
ATOM      9  C   UNL     1       0.587  11.546  19.607  0.00  0.00    +0.000 C 
ATOM     10  C   UNL     1       1.272  10.283  19.077  0.00  0.00    +0.000 A 
ATOM     11  C   UNL     1       1.812  10.317  17.772  0.00  0.00    +0.000 A 
ATOM     12  C   UNL     1       2.485   9.227  17.244  0.00  0.00    +0.000 A 
ATOM     13  C   UNL     1       2.594   8.063  17.993  0.00  0.00    +0.000 A 
ATOM     14  C   UNL     1       2.052   7.964  19.293  0.00  0.00    +0.000 A 
ATOM     15  C   UNL     1       1.408   9.104  19.845  0.00  0.00    +0.000 A 
ENDROOT
BRANCH  14  16
ATOM     16  C   UNL     1       2.126   6.648  19.931  0.00  0.00    +0.000 A 
ATOM     17  C   UNL     1       1.221   5.959  20.771  0.00  0.00    +0.000 A 
ATOM     18  N   UNL     1       1.607   4.712  21.042  0.00  0.00    +0.000 NA
ATOM     19  N   UNL     1       2.754   4.573  20.361  0.00  0.00    +0.000 N 
ATOM     20  C   UNL     1       3.125   5.717  19.709  0.00  0.00    +0.000 A 
BRANCH  19  21
ATOM     21  C   UNL     1       3.404   3.269  20.260  0.00  0.00    +0.000 C 
ATOM     22  C   UNL     1       4.342   3.180  19.048  0.00  0.00    +0.000 C 
ATOM     23  C   UNL     1       3.601   2.886  17.747  0.00  0.00    +0.000 C 
ATOM     24  N   UNL     1       2.745   1.704  17.863  0.00  0.00    +0.000 NA
ATOM     25  C   UNL     1       1.750   1.880  18.923  0.00  0.00    +0.000 C 
ATOM     26  C   UNL     1       2.410   2.104  20.281  0.00  0.00    +0.000 C 
ATOM     27  H   UNL     1       3.316   0.884  18.061  0.00  0.00    +0.000 HD
ENDBRANCH  19  21
ENDBRANCH  14  16
BRANCH   9  28
ATOM     28  C   UNL     1       1.624  12.740  19.705  0.00  0.00    +0.000 C 
ATOM     29  F   UNL     1       2.162  12.873  20.941  0.00  0.00    +0.000 F 
ATOM     30  F   UNL     1       2.664  12.623  18.847  0.00  0.00    +0.000 F 
ATOM     31  F   UNL     1       1.014  13.924  19.427  0.00  0.00    +0.000 F 
ENDBRANCH   9  28
BRANCH   9  32
ATOM     32  O   UNL     1      -0.436  11.792  18.600  0.00  0.00    +0.000 OA
ATOM     33  H   UNL     1      -0.157  11.388  17.762  0.00  0.00    +0.000 HD
ENDBRANCH   9  32
TORSDOF 4
ENDMDL
MODEL 3
REMARK VINA RESULT:      -8.0      1.931      3.665
REMARK  Name = 
REMARK  4 active torsions:
REMARK  status: ('A' for Active; 'I' for Inactive)
REMARK    1  A    between atoms: C_9  and  O_10
REMARK    2  A    between atoms: C_9  and  C_11
REMARK    3  A    between atoms: C_19  and  C_20
REMARK    4  A    between atoms: N_23  and  C_24
REMARK                            x       y       z     vdW  Elec       q    Type
REMARK                         _______ _______ _______ _____ _____    ______ ____
ROOT
ATOM      1  O   UNL     1       4.218   7.751  17.850  0.00  0.00    +0.000 OA
ATOM      2  C   UNL     1       3.787   6.606  17.807  0.00  0.00    +0.000 C 
ATOM      3  C   UNL     1       4.422   5.673  16.857  0.00  0.00    +0.000 A 
ATOM      4  C   UNL     1       5.171   6.203  15.793  0.00  0.00    +0.000 A 
ATOM      5  C   UNL     1       5.894   5.362  14.949  0.00  0.00    +0.000 A 
ATOM      6  C   UNL     1       5.868   3.990  15.163  0.00  0.00    +0.000 A 
ATOM      7  C   UNL     1       5.098   3.459  16.202  0.00  0.00    +0.000 A 
ATOM      8  C   UNL     1       4.355   4.295  17.065  0.00  0.00    +0.000 A 
ATOM      9  C   UNL     1       3.561   3.721  18.229  0.00  0.00    +0.000 C 
ATOM     10  C   UNL     1       2.659   4.724  18.954  0.00  0.00    +0.000 A 
ATOM     11  C   UNL     1       1.735   4.225  19.899  0.00  0.00    +0.000 A 
ATOM     12  C   UNL     1       0.919   5.077  20.626  0.00  0.00    +0.000 A 
ATOM     13  C   UNL     1       0.978   6.444  20.391  0.00  0.00    +0.000 A 
ATOM     14  C   UNL     1       1.864   6.997  19.441  0.00  0.00    +0.000 A 
ATOM     15  C   UNL     1       2.732   6.119  18.738  0.00  0.00    +0.000 A 
ENDROOT
BRANCH  14  16
ATOM     16  C   UNL     1       1.745   8.435  19.200  0.00  0.00    +0.000 A 
ATOM     17  C   UNL     1       1.732   9.190  18.003  0.00  0.00    +0.000 A 
ATOM     18  N   UNL     1       1.474  10.482  18.204  0.00  0.00    +0.000 NA
ATOM     19  N   UNL     1       1.293  10.574  19.530  0.00  0.00    +0.000 N 
ATOM     20  C   UNL     1       1.480   9.382  20.174  0.00  0.00    +0.000 A 
BRANCH  19  21
ATOM     21  C   UNL     1       0.811  11.815  20.129  0.00  0.00    +0.000 C 
ATOM     22  C   UNL     1      -0.559  11.642  20.802  0.00  0.00    +0.000 C 
ATOM     23  C   UNL     1      -1.717  11.697  19.811  0.00  0.00    +0.000 C 
ATOM     24  N   UNL     1      -1.666  12.902  18.980  0.00  0.00    +0.000 NA
ATOM     25  C   UNL     1      -0.415  12.961  18.221  0.00  0.00    +0.000 C 
ATOM     26  C   UNL     1       0.801  12.988  19.143  0.00  0.00    +0.000 C 
ATOM     27  H   UNL     1      -1.750  13.729  19.568  0.00  0.00    +0.000 HD
ENDBRANCH  19  21
ENDBRANCH  14  16
BRANCH   9  28
ATOM     28  C   UNL     1       4.506   2.978  19.260  0.00  0.00    +0.000 C 
ATOM     29  F   UNL     1       4.034   3.012  20.530  0.00  0.00    +0.000 F 
ATOM     30  F   UNL     1       4.709   1.673  18.964  0.00  0.00    +0.000 F 
ATOM     31  F   UNL     1       5.730   3.570  19.295  0.00  0.00    +0.000 F 
ENDBRANCH   9  28
BRANCH   9  32
ATOM     32  O   UNL     1       2.596   2.816  17.621  0.00  0.00    +0.000 OA
ATOM     33  H   UNL     1       2.884   1.901  17.772  0.00  0.00    +0.000 HD
ENDBRANCH   9  32
TORSDOF 4
ENDMDL
MODEL 4
REMARK VINA RESULT:      -7.9      1.012      1.395
REMARK  Name = 
REMARK  4 active torsions:
REMARK  status: ('A' for Active; 'I' for Inactive)
REMARK    1  A    between atoms: C_9  and  O_10
REMARK    2  A    between atoms: C_9  and  C_11
REMARK    3  A    between atoms: C_19  and  C_20
REMARK    4  A    between atoms: N_23  and  C_24
REMARK                            x       y       z     vdW  Elec       q    Type
REMARK                         _______ _______ _______ _____ _____    ______ ____
ROOT
ATOM      1  O   UNL     1       1.012   5.851  20.070  0.00  0.00    +0.000 OA
ATOM      2  C   UNL     1       2.146   5.492  19.779  0.00  0.00    +0.000 C 
ATOM      3  C   UNL     1       2.636   4.232  20.370  0.00  0.00    +0.000 A 
ATOM      4  C   UNL     1       1.991   3.729  21.513  0.00  0.00    +0.000 A 
ATOM      5  C   UNL     1       2.334   2.481  22.026  0.00  0.00    +0.000 A 
ATOM      6  C   UNL     1       3.326   1.732  21.405  0.00  0.00    +0.000 A 
ATOM      7  C   UNL     1       3.990   2.245  20.287  0.00  0.00    +0.000 A 
ATOM      8  C   UNL     1       3.659   3.511  19.753  0.00  0.00    +0.000 A 
ATOM      9  C   UNL     1       4.345   4.045  18.505  0.00  0.00    +0.000 C 
ATOM     10  C   UNL     1       4.020   5.501  18.161  0.00  0.00    +0.000 A 
ATOM     11  C   UNL     1       4.779   6.131  17.149  0.00  0.00    +0.000 A 
ATOM     12  C   UNL     1       4.511   7.431  16.753  0.00  0.00    +0.000 A 
ATOM     13  C   UNL     1       3.507   8.146  17.393  0.00  0.00    +0.000 A 
ATOM     14  C   UNL     1       2.733   7.577  18.427  0.00  0.00    +0.000 A 
ATOM     15  C   UNL     1       2.982   6.226  18.790  0.00  0.00    +0.000 A 
ENDROOT
BRANCH  14  16
ATOM     16  C   UNL     1       1.790   8.470  19.102  0.00  0.00    +0.000 A 
ATOM     17  C   UNL     1       1.489   8.658  20.471  0.00  0.00    +0.000 A 
ATOM     18  N   UNL     1       0.651   9.672  20.687  0.00  0.00    +0.000 NA
ATOM     19  N   UNL     1       0.419  10.166  19.462  0.00  0.00    +0.000 N 
ATOM     20  C   UNL     1       1.051   9.459  18.476  0.00  0.00    +0.000 A 
BRANCH  19  21
ATOM     21  C   UNL     1      -0.323  11.413  19.293  0.00  0.00    +0.000 C 
ATOM     22  C   UNL     1       0.555  12.540  18.729  0.00  0.00    +0.000 C 
ATOM     23  C   UNL     1       1.406  13.218  19.799  0.00  0.00    +0.000 C 
ATOM     24  N   UNL     1       0.597  13.671  20.932  0.00  0.00    +0.000 NA
ATOM     25  C   UNL     1      -0.105  12.548  21.556  0.00  0.00    +0.000 C 
ATOM     26  C   UNL     1      -1.044  11.855  20.570  0.00  0.00    +0.000 C 
ATOM     27  H   UNL     1      -0.077  14.366  20.617  0.00  0.00    +0.000 HD
ENDBRANCH  19  21
ENDBRANCH  14  16
BRANCH   9  28
ATOM     28  C   UNL     1       4.080   3.107  17.257  0.00  0.00    +0.000 C 
ATOM     29  F   UNL     1       5.071   3.162  16.333  0.00  0.00    +0.000 F 
ATOM     30  F   UNL     1       3.934   1.802  17.582  0.00  0.00    +0.000 F 
ATOM     31  F   UNL     1       2.942   3.483  16.613  0.00  0.00    +0.000 F 
ENDBRANCH   9  28
BRANCH   9  32
ATOM     32  O   UNL     1       5.758   4.113  18.848  0.00  0.00    +0.000 OA
ATOM     33  H   UNL     1       5.851   4.051  19.813  0.00  0.00    +0.000 HD
ENDBRANCH   9  32
TORSDOF 4
ENDMDL
MODEL 5
REMARK VINA RESULT:      -7.8      0.917      1.404
REMARK  Name = 
REMARK  4 active torsions:
REMARK  status: ('A' for Active; 'I' for Inactive)
REMARK    1  A    between atoms: C_9  and  O_10
REMARK    2  A    between atoms: C_9  and  C_11
REMARK    3  A    between atoms: C_19  and  C_20
REMARK    4  A    between atoms: N_23  and  C_24
REMARK                            x       y       z     vdW  Elec       q    Type
REMARK                         _______ _______ _______ _____ _____    ______ ____
ROOT
ATOM      1  O   UNL     1       1.034   6.017  19.876  0.00  0.00    +0.000 OA
ATOM      2  C   UNL     1       2.153   5.582  19.638  0.00  0.00    +0.000 C 
ATOM      3  C   UNL     1       2.557   4.331  20.308  0.00  0.00    +0.000 A 
ATOM      4  C   UNL     1       1.855   3.926  21.455  0.00  0.00    +0.000 A 
ATOM      5  C   UNL     1       2.115   2.691  22.044  0.00  0.00    +0.000 A 
ATOM      6  C   UNL     1       3.080   1.858  21.491  0.00  0.00    +0.000 A 
ATOM      7  C   UNL     1       3.800   2.273  20.368  0.00  0.00    +0.000 A 
ATOM      8  C   UNL     1       3.555   3.524  19.760  0.00  0.00    +0.000 A 
ATOM      9  C   UNL     1       4.301   3.952  18.506  0.00  0.00    +0.000 C 
ATOM     10  C   UNL     1       4.066   5.403  18.076  0.00  0.00    +0.000 A 
ATOM     11  C   UNL     1       4.886   5.936  17.055  0.00  0.00    +0.000 A 
ATOM     12  C   UNL     1       4.701   7.225  16.584  0.00  0.00    +0.000 A 
ATOM     13  C   UNL     1       3.721   8.027  17.156  0.00  0.00    +0.000 A 
ATOM     14  C   UNL     1       2.891   7.557  18.196  0.00  0.00    +0.000 A 
ATOM     15  C   UNL     1       3.054   6.216  18.636  0.00  0.00    +0.000 A 
ENDROOT
BRANCH  14  16
ATOM     16  C   UNL     1       1.981   8.535  18.795  0.00  0.00    +0.000 A 
ATOM     17  C   UNL     1       1.556   8.728  20.130  0.00  0.00    +0.000 A 
ATOM     18  N   UNL     1       0.813   9.823  20.288  0.00  0.00    +0.000 NA
ATOM     19  N   UNL     1       0.767  10.363  19.061  0.00  0.00    +0.000 N 
ATOM     20  C   UNL     1       1.422   9.609  18.125  0.00  0.00    +0.000 A 
BRANCH  19  21
ATOM     21  C   UNL     1       0.185  11.686  18.853  0.00  0.00    +0.000 C 
ATOM     22  C   UNL     1      -0.054  12.430  20.175  0.00  0.00    +0.000 C 
ATOM     23  C   UNL     1      -1.340  11.998  20.873  0.00  0.00    +0.000 C 
ATOM     24  N   UNL     1      -2.499  12.083  19.982  0.00  0.00    +0.000 NA
ATOM     25  C   UNL     1      -2.315  11.234  18.803  0.00  0.00    +0.000 C 
ATOM     26  C   UNL     1      -1.086  11.650  17.998  0.00  0.00    +0.000 C 
ATOM     27  H   UNL     1      -2.639  13.049  19.691  0.00  0.00    +0.000 HD
ENDBRANCH  19  21
ENDBRANCH  14  16
BRANCH   9  28
ATOM     28  C   UNL     1       4.017   2.964  17.301  0.00  0.00    +0.000 C 
ATOM     29  F   UNL     1       4.975   3.009  16.343  0.00  0.00    +0.000 F 
ATOM     30  F   UNL     1       3.915   1.668  17.677  0.00  0.00    +0.000 F 
ATOM     31  F   UNL     1       2.850   3.290  16.684  0.00  0.00    +0.000 F 
ENDBRANCH   9  28
BRANCH   9  32
ATOM     32  O   UNL     1       5.706   3.963  18.886  0.00  0.00    +0.000 OA
ATOM     33  H   UNL     1       5.802   3.530  19.750  0.00  0.00    +0.000 HD
ENDBRANCH   9  32
TORSDOF 4
ENDMDL
MODEL 6
REMARK VINA RESULT:      -7.8      7.418      9.682
REMARK  Name = 
REMARK  4 active torsions:
REMARK  status: ('A' for Active; 'I' for Inactive)
REMARK    1  A    between atoms: C_9  and  O_10
REMARK    2  A    between atoms: C_9  and  C_11
REMARK    3  A    between atoms: C_19  and  C_20
REMARK    4  A    between atoms: N_23  and  C_24
REMARK                            x       y       z     vdW  Elec       q    Type
REMARK                         _______ _______ _______ _____ _____    ______ ____
ROOT
ATOM      1  O   UNL     1      -2.717  13.470  21.160  0.00  0.00    +0.000 OA
ATOM      2  C   UNL     1      -3.511  12.737  20.585  0.00  0.00    +0.000 C 
ATOM      3  C   UNL     1      -4.871  12.627  21.149  0.00  0.00    +0.000 A 
ATOM      4  C   UNL     1      -5.077  13.007  22.486  0.00  0.00    +0.000 A 
ATOM      5  C   UNL     1      -6.363  13.043  23.019  0.00  0.00    +0.000 A 
ATOM      6  C   UNL     1      -7.447  12.695  22.223  0.00  0.00    +0.000 A 
ATOM      7  C   UNL     1      -7.239  12.287  20.902  0.00  0.00    +0.000 A 
ATOM      8  C   UNL     1      -5.942  12.239  20.343  0.00  0.00    +0.000 A 
ATOM      9  C   UNL     1      -5.722  11.847  18.891  0.00  0.00    +0.000 C 
ATOM     10  C   UNL     1      -4.258  11.657  18.486  0.00  0.00    +0.000 A 
ATOM     11  C   UNL     1      -3.986  11.086  17.222  0.00  0.00    +0.000 A 
ATOM     12  C   UNL     1      -2.686  10.926  16.770  0.00  0.00    +0.000 A 
ATOM     13  C   UNL     1      -1.628  11.292  17.592  0.00  0.00    +0.000 A 
ATOM     14  C   UNL     1      -1.839  11.844  18.874  0.00  0.00    +0.000 A 
ATOM     15  C   UNL     1      -3.177  12.051  19.307  0.00  0.00    +0.000 A 
ENDROOT
BRANCH  14  16
ATOM     16  C   UNL     1      -0.645  12.074  19.689  0.00  0.00    +0.000 A 
ATOM     17  C   UNL     1      -0.077  11.337  20.754  0.00  0.00    +0.000 A 
ATOM     18  N   UNL     1       1.100  11.819  21.152  0.00  0.00    +0.000 NA
ATOM     19  N   UNL     1       1.318  12.860  20.334  0.00  0.00    +0.000 N 
ATOM     20  C   UNL     1       0.284  13.075  19.464  0.00  0.00    +0.000 A 
BRANCH  19  21
ATOM     21  C   UNL     1       2.604  13.550  20.339  0.00  0.00    +0.000 C 
ATOM     22  C   UNL     1       2.710  14.575  21.478  0.00  0.00    +0.000 C 
ATOM     23  C   UNL     1       2.025  15.898  21.148  0.00  0.00    +0.000 C 
ATOM     24  N   UNL     1       2.490  16.449  19.874  0.00  0.00    +0.000 NA
ATOM     25  C   UNL     1       2.229  15.518  18.775  0.00  0.00    +0.000 C 
ATOM     26  C   UNL     1       2.944  14.185  18.986  0.00  0.00    +0.000 C 
ATOM     27  H   UNL     1       3.488  16.646  19.927  0.00  0.00    +0.000 HD
ENDBRANCH  19  21
ENDBRANCH  14  16
BRANCH   9  28
ATOM     28  C   UNL     1      -6.443  12.857  17.906  0.00  0.00    +0.000 C 
ATOM     29  F   UNL     1      -5.899  12.865  16.664  0.00  0.00    +0.000 F 
ATOM     30  F   UNL     1      -7.763  12.603  17.742  0.00  0.00    +0.000 F 
ATOM     31  F   UNL     1      -6.342  14.131  18.372  0.00  0.00    +0.000 F 
ENDBRANCH   9  28
BRANCH   9  32
ATOM     32  O   UNL     1      -6.255  10.497  18.777  0.00  0.00    +0.000 OA
ATOM     33  H   UNL     1      -6.352  10.275  17.837  0.00  0.00    +0.000 HD
ENDBRANCH   9  32
TORSDOF 4
ENDMDL
MODEL 7
REMARK VINA RESULT:      -7.7      4.735      9.034
REMARK  Name = 
REMARK  4 active torsions:
REMARK  status: ('A' for Active; 'I' for Inactive)
REMARK    1  A    between atoms: C_9  and  O_10
REMARK    2  A    between atoms: C_9  and  C_11
REMARK    3  A    between atoms: C_19  and  C_20
REMARK    4  A    between atoms: N_23  and  C_24
REMARK                            x       y       z     vdW  Elec       q    Type
REMARK                         _______ _______ _______ _____ _____    ______ ____
ROOT
ATOM      1  O   UNL     1       1.372  10.674  18.409  0.00  0.00    +0.000 OA
ATOM      2  C   UNL     1       1.202  11.392  19.385  0.00  0.00    +0.000 C 
ATOM      3  C   UNL     1       1.537  12.823  19.248  0.00  0.00    +0.000 A 
ATOM      4  C   UNL     1       2.390  13.216  18.203  0.00  0.00    +0.000 A 
ATOM      5  C   UNL     1       2.629  14.566  17.957  0.00  0.00    +0.000 A 
ATOM      6  C   UNL     1       2.022  15.527  18.755  0.00  0.00    +0.000 A 
ATOM      7  C   UNL     1       1.198  15.136  19.814  0.00  0.00    +0.000 A 
ATOM      8  C   UNL     1       0.947  13.772  20.084  0.00  0.00    +0.000 A 
ATOM      9  C   UNL     1       0.008  13.348  21.202  0.00  0.00    +0.000 C 
ATOM     10  C   UNL     1      -0.016  11.845  21.493  0.00  0.00    +0.000 A 
ATOM     11  C   UNL     1      -0.693  11.402  22.652  0.00  0.00    +0.000 A 
ATOM     12  C   UNL     1      -0.794  10.054  22.955  0.00  0.00    +0.000 A 
ATOM     13  C   UNL     1      -0.180   9.121  22.129  0.00  0.00    +0.000 A 
ATOM     14  C   UNL     1       0.532   9.507  20.973  0.00  0.00    +0.000 A 
ATOM     15  C   UNL     1       0.585  10.889  20.643  0.00  0.00    +0.000 A 
ENDROOT
BRANCH  14  16
ATOM     16  C   UNL     1       1.234   8.443  20.254  0.00  0.00    +0.000 A 
ATOM     17  C   UNL     1       1.945   8.445  19.031  0.00  0.00    +0.000 A 
ATOM     18  N   UNL     1       2.556   7.287  18.782  0.00  0.00    +0.000 NA
ATOM     19  N   UNL     1       2.268   6.531  19.851  0.00  0.00    +0.000 N 
ATOM     20  C   UNL     1       1.449   7.166  20.744  0.00  0.00    +0.000 A 
BRANCH  19  21
ATOM     21  C   UNL     1       2.910   5.233  20.038  0.00  0.00    +0.000 C 
ATOM     22  C   UNL     1       3.166   4.514  18.705  0.00  0.00    +0.000 C 
ATOM     23  C   UNL     1       1.928   3.799  18.172  0.00  0.00    +0.000 C 
ATOM     24  N   UNL     1       1.343   2.903  19.172  0.00  0.00    +0.000 NA
ATOM     25  C   UNL     1       0.957   3.643  20.375  0.00  0.00    +0.000 C 
ATOM     26  C   UNL     1       2.157   4.331  21.021  0.00  0.00    +0.000 C 
ATOM     27  H   UNL     1       2.013   2.176  19.416  0.00  0.00    +0.000 HD
ENDBRANCH  19  21
ENDBRANCH  14  16
BRANCH   9  28
ATOM     28  C   UNL     1      -1.461  13.888  20.957  0.00  0.00    +0.000 C 
ATOM     29  F   UNL     1      -2.102  14.218  22.105  0.00  0.00    +0.000 F 
ATOM     30  F   UNL     1      -1.509  14.984  20.165  0.00  0.00    +0.000 F 
ATOM     31  F   UNL     1      -2.224  12.935  20.358  0.00  0.00    +0.000 F 
ENDBRANCH   9  28
BRANCH   9  32
ATOM     32  O   UNL     1       0.595  13.893  22.418  0.00  0.00    +0.000 OA
ATOM     33  H   UNL     1      -0.073  14.425  22.879  0.00  0.00    +0.000 HD
ENDBRANCH   9  32
TORSDOF 4
ENDMDL
MODEL 8
REMARK VINA RESULT:      -7.6      4.337      8.627
REMARK  Name = 
REMARK  4 active torsions:
REMARK  status: ('A' for Active; 'I' for Inactive)
REMARK    1  A    between atoms: C_9  and  O_10
REMARK    2  A    between atoms: C_9  and  C_11
REMARK    3  A    between atoms: C_19  and  C_20
REMARK    4  A    between atoms: N_23  and  C_24
REMARK                            x       y       z     vdW  Elec       q    Type
REMARK                         _______ _______ _______ _____ _____    ______ ____
ROOT
ATOM      1  O   UNL     1       1.994  10.170  17.418  0.00  0.00    +0.000 OA
ATOM      2  C   UNL     1       1.688  10.600  18.522  0.00  0.00    +0.000 C 
ATOM      3  C   UNL     1       1.720  12.062  18.719  0.00  0.00    +0.000 A 
ATOM      4  C   UNL     1       2.463  12.846  17.820  0.00  0.00    +0.000 A 
ATOM      5  C   UNL     1       2.417  14.236  17.889  0.00  0.00    +0.000 A 
ATOM      6  C   UNL     1       1.631  14.849  18.857  0.00  0.00    +0.000 A 
ATOM      7  C   UNL     1       0.916  14.070  19.771  0.00  0.00    +0.000 A 
ATOM      8  C   UNL     1       0.954  12.659  19.721  0.00  0.00    +0.000 A 
ATOM      9  C   UNL     1       0.133  11.813  20.681  0.00  0.00    +0.000 C 
ATOM     10  C   UNL     1       0.423  10.310  20.630  0.00  0.00    +0.000 A 
ATOM     11  C   UNL     1      -0.138   9.490  21.635  0.00  0.00    +0.000 A 
ATOM     12  C   UNL     1       0.044   8.116  21.627  0.00  0.00    +0.000 A 
ATOM     13  C   UNL     1       0.830   7.538  20.639  0.00  0.00    +0.000 A 
ATOM     14  C   UNL     1       1.436   8.310  19.625  0.00  0.00    +0.000 A 
ATOM     15  C   UNL     1       1.200   9.712  19.613  0.00  0.00    +0.000 A 
ENDROOT
BRANCH  14  16
ATOM     16  C   UNL     1       2.336   7.600  18.716  0.00  0.00    +0.000 A 
ATOM     17  C   UNL     1       3.516   8.010  18.050  0.00  0.00    +0.000 A 
ATOM     18  N   UNL     1       4.123   7.015  17.404  0.00  0.00    +0.000 NA
ATOM     19  N   UNL     1       3.356   5.945  17.663  0.00  0.00    +0.000 N 
ATOM     20  C   UNL     1       2.255   6.252  18.414  0.00  0.00    +0.000 A 
BRANCH  19  21
ATOM     21  C   UNL     1       3.790   4.608  17.270  0.00  0.00    +0.000 C 
ATOM     22  C   UNL     1       3.237   3.519  18.201  0.00  0.00    +0.000 C 
ATOM     23  C   UNL     1       4.043   3.379  19.489  0.00  0.00    +0.000 C 
ATOM     24  N   UNL     1       5.470   3.194  19.221  0.00  0.00    +0.000 NA
ATOM     25  C   UNL     1       6.013   4.327  18.469  0.00  0.00    +0.000 C 
ATOM     26  C   UNL     1       5.311   4.494  17.123  0.00  0.00    +0.000 C 
ATOM     27  H   UNL     1       5.613   2.333  18.696  0.00  0.00    +0.000 HD
ENDBRANCH  19  21
ENDBRANCH  14  16
BRANCH   9  28
ATOM     28  C   UNL     1      -1.418  12.084  20.506  0.00  0.00    +0.000 C 
ATOM     29  F   UNL     1      -2.120  11.904  21.652  0.00  0.00    +0.000 F 
ATOM     30  F   UNL     1      -1.703  13.336  20.078  0.00  0.00    +0.000 F 
ATOM     31  F   UNL     1      -1.952  11.225  19.597  0.00  0.00    +0.000 F 
ENDBRANCH   9  28
BRANCH   9  32
ATOM     32  O   UNL     1       0.606  12.178  22.009  0.00  0.00    +0.000 OA
ATOM     33  H   UNL     1      -0.119  12.061  22.644  0.00  0.00    +0.000 HD
ENDBRANCH   9  32
TORSDOF 4
ENDMDL
MODEL 9
REMARK VINA RESULT:      -7.5      4.400      8.723
REMARK  Name = 
REMARK  4 active torsions:
REMARK  status: ('A' for Active; 'I' for Inactive)
REMARK    1  A    between atoms: C_9  and  O_10
REMARK    2  A    between atoms: C_9  and  C_11
REMARK    3  A    between atoms: C_19  and  C_20
REMARK    4  A    between atoms: N_23  and  C_24
REMARK                            x       y       z     vdW  Elec       q    Type
REMARK                         _______ _______ _______ _____ _____    ______ ____
ROOT
ATOM      1  O   UNL     1       2.074  10.237  17.691  0.00  0.00    +0.000 OA
ATOM      2  C   UNL     1       1.684  10.735  18.739  0.00  0.00    +0.000 C 
ATOM      3  C   UNL     1       1.739  12.205  18.858  0.00  0.00    +0.000 A 
ATOM      4  C   UNL     1       2.581  12.919  17.989  0.00  0.00    +0.000 A 
ATOM      5  C   UNL     1       2.568  14.312  17.979  0.00  0.00    +0.000 A 
ATOM      6  C   UNL     1       1.718  14.996  18.839  0.00  0.00    +0.000 A 
ATOM      7  C   UNL     1       0.903  14.287  19.725  0.00  0.00    +0.000 A 
ATOM      8  C   UNL     1       0.905  12.874  19.755  0.00  0.00    +0.000 A 
ATOM      9  C   UNL     1      -0.021  12.103  20.681  0.00  0.00    +0.000 C 
ATOM     10  C   UNL     1       0.230  10.593  20.738  0.00  0.00    +0.000 A 
ATOM     11  C   UNL     1      -0.441   9.844  21.731  0.00  0.00    +0.000 A 
ATOM     12  C   UNL     1      -0.297   8.468  21.813  0.00  0.00    +0.000 A 
ATOM     13  C   UNL     1       0.556   7.817  20.932  0.00  0.00    +0.000 A 
ATOM     14  C   UNL     1       1.271   8.517  19.936  0.00  0.00    +0.000 A 
ATOM     15  C   UNL     1       1.077   9.921  19.827  0.00  0.00    +0.000 A 
ENDROOT
BRANCH  14  16
ATOM     16  C   UNL     1       2.227   7.737  19.150  0.00  0.00    +0.000 A 
ATOM     17  C   UNL     1       2.822   7.973  17.889  0.00  0.00    +0.000 A 
ATOM     18  N   UNL     1       3.752   7.071  17.573  0.00  0.00    +0.000 NA
ATOM     19  N   UNL     1       3.786   6.255  18.637  0.00  0.00    +0.000 N 
ATOM     20  C   UNL     1       2.866   6.591  19.592  0.00  0.00    +0.000 A 
BRANCH  19  21
ATOM     21  C   UNL     1       4.817   5.228  18.751  0.00  0.00    +0.000 C 
ATOM     22  C   UNL     1       5.355   4.788  17.382  0.00  0.00    +0.000 C 
ATOM     23  C   UNL     1       4.451   3.773  16.690  0.00  0.00    +0.000 C 
ATOM     24  N   UNL     1       4.157   2.627  17.553  0.00  0.00    +0.000 NA
ATOM     25  C   UNL     1       3.495   3.058  18.786  0.00  0.00    +0.000 C 
ATOM     26  C   UNL     1       4.368   4.023  19.585  0.00  0.00    +0.000 C 
ATOM     27  H   UNL     1       5.021   2.137  17.780  0.00  0.00    +0.000 HD
ENDBRANCH  19  21
ENDBRANCH  14  16
BRANCH   9  28
ATOM     28  C   UNL     1      -1.542  12.400  20.354  0.00  0.00    +0.000 C 
ATOM     29  F   UNL     1      -2.343  12.326  21.446  0.00  0.00    +0.000 F 
ATOM     30  F   UNL     1      -1.749  13.622  19.812  0.00  0.00    +0.000 F 
ATOM     31  F   UNL     1      -2.025  11.488  19.468  0.00  0.00    +0.000 F 
ENDBRANCH   9  28
BRANCH   9  32
ATOM     32  O   UNL     1       0.343  12.530  22.025  0.00  0.00    +0.000 OA
ATOM     33  H   UNL     1      -0.466  12.636  22.552  0.00  0.00    +0.000 HD
ENDBRANCH   9  32
TORSDOF 4
ENDMDL
