MODEL 1
REMARK VINA RESULT:      -6.9      0.000      0.000
REMARK  Name = 
REMARK  1 active torsions:
REMARK  status: ('A' for Active; 'I' for Inactive)
REMARK    1  A    between atoms: C_8  and  C_9
REMARK                            x       y       z     vdW  Elec       q    Type
REMARK                         _______ _______ _______ _____ _____    ______ ____
ROOT
ATOM      1  O   UNL     1       7.920   4.861  18.650  0.00  0.00    +0.000 OA
ATOM      2  C   UNL     1       7.064   4.633  17.810  0.00  0.00    +0.000 C 
ATOM      3  N   UNL     1       7.296   4.546  16.466  0.00  0.00    +0.000 N 
ATOM      4  C   UNL     1       6.240   4.281  15.650  0.00  0.00    +0.000 C 
ATOM      5  S   UNL     1       6.363   4.145  14.005  0.00  0.00    +0.000 S 
ATOM      6  S   UNL     1       4.783   4.113  16.603  0.00  0.00    +0.000 S 
ATOM      7  C   UNL     1       5.623   4.396  18.085  0.00  0.00    +0.000 C 
ATOM      8  C   UNL     1       5.128   4.398  19.329  0.00  0.00    +0.000 C 
ATOM      9  H   UNL     1       8.228   4.674  16.105  0.00  0.00    +0.000 HD
ENDROOT
BRANCH   8  10
ATOM     10  C   UNL     1       3.732   4.133  19.679  0.00  0.00    +0.000 A 
ATOM     11  C   UNL     1       2.881   5.199  19.991  0.00  0.00    +0.000 A 
ATOM     12  C   UNL     1       1.547   4.957  20.326  0.00  0.00    +0.000 A 
ATOM     13  C   UNL     1       1.060   3.650  20.349  0.00  0.00    +0.000 A 
ATOM     14  C   UNL     1       1.905   2.585  20.039  0.00  0.00    +0.000 A 
ATOM     15  C   UNL     1       3.240   2.824  19.704  0.00  0.00    +0.000 A 
ENDBRANCH   8  10
TORSDOF 1
ENDMDL
MODEL 2
REMARK VINA RESULT:      -6.9      0.033      1.292
REMARK  Name = 
REMARK  1 active torsions:
REMARK  status: ('A' for Active; 'I' for Inactive)
REMARK    1  A    between atoms: C_8  and  C_9
REMARK                            x       y       z     vdW  Elec       q    Type
REMARK                         _______ _______ _______ _____ _____    ______ ____
ROOT
ATOM      1  O   UNL     1       7.938   4.888  18.643  0.00  0.00    +0.000 OA
ATOM      2  C   UNL     1       7.082   4.650  17.806  0.00  0.00    +0.000 C 
ATOM      3  N   UNL     1       7.312   4.557  16.462  0.00  0.00    +0.000 N 
ATOM      4  C   UNL     1       6.256   4.280  15.649  0.00  0.00    +0.000 C 
ATOM      5  S   UNL     1       6.377   4.136  14.005  0.00  0.00    +0.000 S 
ATOM      6  S   UNL     1       4.801   4.111  16.606  0.00  0.00    +0.000 S 
ATOM      7  C   UNL     1       5.642   4.407  18.084  0.00  0.00    +0.000 C 
ATOM      8  C   UNL     1       5.149   4.414  19.329  0.00  0.00    +0.000 C 
ATOM      9  H   UNL     1       8.243   4.687  16.099  0.00  0.00    +0.000 HD
ENDROOT
BRANCH   8  10
ATOM     10  C   UNL     1       3.755   4.144  19.682  0.00  0.00    +0.000 A 
ATOM     11  C   UNL     1       3.287   2.825  19.706  0.00  0.00    +0.000 A 
ATOM     12  C   UNL     1       1.959   2.557  20.042  0.00  0.00    +0.000 A 
ATOM     13  C   UNL     1       1.095   3.605  20.357  0.00  0.00    +0.000 A 
ATOM     14  C   UNL     1       1.556   4.920  20.335  0.00  0.00    +0.000 A 
ATOM     15  C   UNL     1       2.884   5.191  19.998  0.00  0.00    +0.000 A 
ENDBRANCH   8  10
TORSDOF 1
ENDMDL
MODEL 3
REMARK VINA RESULT:      -6.6      2.443      3.009
REMARK  Name = 
REMARK  1 active torsions:
REMARK  status: ('A' for Active; 'I' for Inactive)
REMARK    1  A    between atoms: C_8  and  C_9
REMARK                            x       y       z     vdW  Elec       q    Type
REMARK                         _______ _______ _______ _____ _____    ______ ____
ROOT
ATOM      1  O   UNL     1       6.811   4.322  14.598  0.00  0.00    +0.000 OA
ATOM      2  C   UNL     1       6.618   4.956  15.623  0.00  0.00    +0.000 C 
ATOM      3  N   UNL     1       7.357   6.034  16.022  0.00  0.00    +0.000 N 
ATOM      4  C   UNL     1       7.020   6.645  17.191  0.00  0.00    +0.000 C 
ATOM      5  S   UNL     1       7.819   7.959  17.803  0.00  0.00    +0.000 S 
ATOM      6  S   UNL     1       5.647   5.833  17.908  0.00  0.00    +0.000 S 
ATOM      7  C   UNL     1       5.546   4.690  16.618  0.00  0.00    +0.000 C 
ATOM      8  C   UNL     1       4.659   3.701  16.457  0.00  0.00    +0.000 C 
ATOM      9  H   UNL     1       8.125   6.358  15.455  0.00  0.00    +0.000 HD
ENDROOT
BRANCH   8  10
ATOM     10  C   UNL     1       3.555   3.404  17.371  0.00  0.00    +0.000 A 
ATOM     11  C   UNL     1       3.611   2.265  18.181  0.00  0.00    +0.000 A 
ATOM     12  C   UNL     1       2.563   1.973  19.056  0.00  0.00    +0.000 A 
ATOM     13  C   UNL     1       1.457   2.819  19.125  0.00  0.00    +0.000 A 
ATOM     14  C   UNL     1       1.396   3.955  18.319  0.00  0.00    +0.000 A 
ATOM     15  C   UNL     1       2.442   4.249  17.442  0.00  0.00    +0.000 A 
ENDBRANCH   8  10
TORSDOF 1
ENDMDL
MODEL 4
REMARK VINA RESULT:      -6.6      2.339      2.642
REMARK  Name = 
REMARK  1 active torsions:
REMARK  status: ('A' for Active; 'I' for Inactive)
REMARK    1  A    between atoms: C_8  and  C_9
REMARK                            x       y       z     vdW  Elec       q    Type
REMARK                         _______ _______ _______ _____ _____    ______ ____
ROOT
ATOM      1  O   UNL     1       6.691   4.065  14.804  0.00  0.00    +0.000 OA
ATOM      2  C   UNL     1       6.530   4.773  15.785  0.00  0.00    +0.000 C 
ATOM      3  N   UNL     1       7.292   5.866  16.088  0.00  0.00    +0.000 N 
ATOM      4  C   UNL     1       6.990   6.564  17.218  0.00  0.00    +0.000 C 
ATOM      5  S   UNL     1       7.820   7.907  17.716  0.00  0.00    +0.000 S 
ATOM      6  S   UNL     1       5.626   5.823  18.024  0.00  0.00    +0.000 S 
ATOM      7  C   UNL     1       5.481   4.592  16.821  0.00  0.00    +0.000 C 
ATOM      8  C   UNL     1       4.578   3.606  16.753  0.00  0.00    +0.000 C 
ATOM      9  H   UNL     1       8.049   6.139  15.481  0.00  0.00    +0.000 HD
ENDROOT
BRANCH   8  10
ATOM     10  C   UNL     1       3.494   3.390  17.711  0.00  0.00    +0.000 A 
ATOM     11  C   UNL     1       2.223   3.915  17.451  0.00  0.00    +0.000 A 
ATOM     12  C   UNL     1       1.182   3.714  18.359  0.00  0.00    +0.000 A 
ATOM     13  C   UNL     1       1.407   2.989  19.529  0.00  0.00    +0.000 A 
ATOM     14  C   UNL     1       2.671   2.465  19.793  0.00  0.00    +0.000 A 
ATOM     15  C   UNL     1       3.715   2.665  18.886  0.00  0.00    +0.000 A 
ENDBRANCH   8  10
TORSDOF 1
ENDMDL
MODEL 5
REMARK VINA RESULT:      -6.4      2.146      2.508
REMARK  Name = 
REMARK  1 active torsions:
REMARK  status: ('A' for Active; 'I' for Inactive)
REMARK    1  A    between atoms: C_8  and  C_9
REMARK                            x       y       z     vdW  Elec       q    Type
REMARK                         _______ _______ _______ _____ _____    ______ ____
ROOT
ATOM      1  O   UNL     1       5.908   3.416  15.504  0.00  0.00    +0.000 OA
ATOM      2  C   UNL     1       5.919   4.257  16.388  0.00  0.00    +0.000 C 
ATOM      3  N   UNL     1       6.751   5.340  16.422  0.00  0.00    +0.000 N 
ATOM      4  C   UNL     1       6.645   6.197  17.474  0.00  0.00    +0.000 C 
ATOM      5  S   UNL     1       7.582   7.551  17.653  0.00  0.00    +0.000 S 
ATOM      6  S   UNL     1       5.395   5.643  18.565  0.00  0.00    +0.000 S 
ATOM      7  C   UNL     1       5.032   4.272  17.581  0.00  0.00    +0.000 C 
ATOM      8  C   UNL     1       4.099   3.333  17.783  0.00  0.00    +0.000 C 
ATOM      9  H   UNL     1       7.416   5.490  15.679  0.00  0.00    +0.000 HD
ENDROOT
BRANCH   8  10
ATOM     10  C   UNL     1       3.166   3.304  18.910  0.00  0.00    +0.000 A 
ATOM     11  C   UNL     1       3.554   2.717  20.119  0.00  0.00    +0.000 A 
ATOM     12  C   UNL     1       2.671   2.684  21.199  0.00  0.00    +0.000 A 
ATOM     13  C   UNL     1       1.397   3.239  21.075  0.00  0.00    +0.000 A 
ATOM     14  C   UNL     1       1.005   3.824  19.873  0.00  0.00    +0.000 A 
ATOM     15  C   UNL     1       1.887   3.858  18.790  0.00  0.00    +0.000 A 
ENDBRANCH   8  10
TORSDOF 1
ENDMDL
MODEL 6
REMARK VINA RESULT:      -6.4      2.172      2.366
REMARK  Name = 
REMARK  1 active torsions:
REMARK  status: ('A' for Active; 'I' for Inactive)
REMARK    1  A    between atoms: C_8  and  C_9
REMARK                            x       y       z     vdW  Elec       q    Type
REMARK                         _______ _______ _______ _____ _____    ______ ____
ROOT
ATOM      1  O   UNL     1       5.719   3.510  15.421  0.00  0.00    +0.000 OA
ATOM      2  C   UNL     1       5.794   4.304  16.345  0.00  0.00    +0.000 C 
ATOM      3  N   UNL     1       6.662   5.358  16.397  0.00  0.00    +0.000 N 
ATOM      4  C   UNL     1       6.627   6.163  17.494  0.00  0.00    +0.000 C 
ATOM      5  S   UNL     1       7.614   7.476  17.700  0.00  0.00    +0.000 S 
ATOM      6  S   UNL     1       5.404   5.594  18.607  0.00  0.00    +0.000 S 
ATOM      7  C   UNL     1       4.957   4.286  17.573  0.00  0.00    +0.000 C 
ATOM      8  C   UNL     1       4.002   3.368  17.767  0.00  0.00    +0.000 C 
ATOM      9  H   UNL     1       7.302   5.524  15.636  0.00  0.00    +0.000 HD
ENDROOT
BRANCH   8  10
ATOM     10  C   UNL     1       3.114   3.311  18.929  0.00  0.00    +0.000 A 
ATOM     11  C   UNL     1       1.827   3.856  18.847  0.00  0.00    +0.000 A 
ATOM     12  C   UNL     1       0.973   3.806  19.949  0.00  0.00    +0.000 A 
ATOM     13  C   UNL     1       1.399   3.211  21.136  0.00  0.00    +0.000 A 
ATOM     14  C   UNL     1       2.680   2.667  21.223  0.00  0.00    +0.000 A 
ATOM     15  C   UNL     1       3.537   2.716  20.122  0.00  0.00    +0.000 A 
ENDBRANCH   8  10
TORSDOF 1
ENDMDL
MODEL 7
REMARK VINA RESULT:      -6.2      1.689      1.715
REMARK  Name = 
REMARK  1 active torsions:
REMARK  status: ('A' for Active; 'I' for Inactive)
REMARK    1  A    between atoms: C_8  and  C_9
REMARK                            x       y       z     vdW  Elec       q    Type
REMARK                         _______ _______ _______ _____ _____    ______ ____
ROOT
ATOM      1  O   UNL     1       7.450   6.513  17.755  0.00  0.00    +0.000 OA
ATOM      2  C   UNL     1       6.983   5.855  16.839  0.00  0.00    +0.000 C 
ATOM      3  N   UNL     1       7.535   5.754  15.593  0.00  0.00    +0.000 N 
ATOM      4  C   UNL     1       6.901   4.978  14.672  0.00  0.00    +0.000 C 
ATOM      5  S   UNL     1       7.448   4.757  13.125  0.00  0.00    +0.000 S 
ATOM      6  S   UNL     1       5.462   4.278  15.379  0.00  0.00    +0.000 S 
ATOM      7  C   UNL     1       5.744   5.037  16.903  0.00  0.00    +0.000 C 
ATOM      8  C   UNL     1       5.017   4.938  18.023  0.00  0.00    +0.000 C 
ATOM      9  H   UNL     1       8.390   6.243  15.378  0.00  0.00    +0.000 HD
ENDROOT
BRANCH   8  10
ATOM     10  C   UNL     1       3.812   4.122  18.174  0.00  0.00    +0.000 A 
ATOM     11  C   UNL     1       2.557   4.682  17.908  0.00  0.00    +0.000 A 
ATOM     12  C   UNL     1       1.401   3.912  18.049  0.00  0.00    +0.000 A 
ATOM     13  C   UNL     1       1.495   2.581  18.454  0.00  0.00    +0.000 A 
ATOM     14  C   UNL     1       2.743   2.019  18.721  0.00  0.00    +0.000 A 
ATOM     15  C   UNL     1       3.901   2.788  18.582  0.00  0.00    +0.000 A 
ENDBRANCH   8  10
TORSDOF 1
ENDMDL
MODEL 8
REMARK VINA RESULT:      -6.2      1.627      2.010
REMARK  Name = 
REMARK  1 active torsions:
REMARK  status: ('A' for Active; 'I' for Inactive)
REMARK    1  A    between atoms: C_8  and  C_9
REMARK                            x       y       z     vdW  Elec       q    Type
REMARK                         _______ _______ _______ _____ _____    ______ ____
ROOT
ATOM      1  O   UNL     1       7.496   6.378  17.888  0.00  0.00    +0.000 OA
ATOM      2  C   UNL     1       7.008   5.765  16.952  0.00  0.00    +0.000 C 
ATOM      3  N   UNL     1       7.556   5.687  15.702  0.00  0.00    +0.000 N 
ATOM      4  C   UNL     1       6.897   4.961  14.758  0.00  0.00    +0.000 C 
ATOM      5  S   UNL     1       7.436   4.774  13.204  0.00  0.00    +0.000 S 
ATOM      6  S   UNL     1       5.437   4.285  15.444  0.00  0.00    +0.000 S 
ATOM      7  C   UNL     1       5.744   4.984  16.992  0.00  0.00    +0.000 C 
ATOM      8  C   UNL     1       5.015   4.872  18.109  0.00  0.00    +0.000 C 
ATOM      9  H   UNL     1       8.426   6.156  15.502  0.00  0.00    +0.000 HD
ENDROOT
BRANCH   8  10
ATOM     10  C   UNL     1       3.784   4.090  18.235  0.00  0.00    +0.000 A 
ATOM     11  C   UNL     1       3.842   2.778  18.719  0.00  0.00    +0.000 A 
ATOM     12  C   UNL     1       2.674   2.024  18.843  0.00  0.00    +0.000 A 
ATOM     13  C   UNL     1       1.445   2.578  18.485  0.00  0.00    +0.000 A 
ATOM     14  C   UNL     1       1.383   3.884  18.002  0.00  0.00    +0.000 A 
ATOM     15  C   UNL     1       2.550   4.641  17.876  0.00  0.00    +0.000 A 
ENDBRANCH   8  10
TORSDOF 1
ENDMDL
MODEL 9
REMARK VINA RESULT:      -6.0      2.277      2.550
REMARK  Name = 
REMARK  1 active torsions:
REMARK  status: ('A' for Active; 'I' for Inactive)
REMARK    1  A    between atoms: C_8  and  C_9
REMARK                            x       y       z     vdW  Elec       q    Type
REMARK                         _______ _______ _______ _____ _____    ______ ____
ROOT
ATOM      1  O   UNL     1       3.618   8.083  17.205  0.00  0.00    +0.000 OA
ATOM      2  C   UNL     1       4.089   6.961  17.114  0.00  0.00    +0.000 C 
ATOM      3  N   UNL     1       5.134   6.619  16.303  0.00  0.00    +0.000 N 
ATOM      4  C   UNL     1       5.554   5.324  16.311  0.00  0.00    +0.000 C 
ATOM      5  S   UNL     1       6.806   4.760  15.386  0.00  0.00    +0.000 S 
ATOM      6  S   UNL     1       4.579   4.393  17.425  0.00  0.00    +0.000 S 
ATOM      7  C   UNL     1       3.629   5.765  17.867  0.00  0.00    +0.000 C 
ATOM      8  C   UNL     1       2.629   5.827  18.755  0.00  0.00    +0.000 C 
ATOM      9  H   UNL     1       5.575   7.317  15.725  0.00  0.00    +0.000 HD
ENDROOT
BRANCH   8  10
ATOM     10  C   UNL     1       2.150   4.703  19.561  0.00  0.00    +0.000 A 
ATOM     11  C   UNL     1       2.557   4.582  20.894  0.00  0.00    +0.000 A 
ATOM     12  C   UNL     1       2.105   3.514  21.672  0.00  0.00    +0.000 A 
ATOM     13  C   UNL     1       1.244   2.566  21.120  0.00  0.00    +0.000 A 
ATOM     14  C   UNL     1       0.836   2.682  19.792  0.00  0.00    +0.000 A 
ATOM     15  C   UNL     1       1.288   3.749  19.012  0.00  0.00    +0.000 A 
ENDBRANCH   8  10
TORSDOF 1
ENDMDL
