MODEL 1
REMARK VINA RESULT:      -9.4      0.000      0.000
REMARK  Name = 
REMARK  5 active torsions:
REMARK  status: ('A' for Active; 'I' for Inactive)
REMARK    1  A    between atoms: C_4  and  C_5
REMARK    2  A    between atoms: C_8  and  C_9
REMARK    3  A    between atoms: C_11  and  C_12
REMARK    4  A    between atoms: C_12  and  N_13
REMARK    5  A    between atoms: C_18  and  C_19
REMARK                            x       y       z     vdW  Elec       q    Type
REMARK                         _______ _______ _______ _____ _____    ______ ____
ROOT
ATOM      1  C   UNL     1       2.879   5.229  18.447  0.00  0.00    +0.000 C 
ATOM      2  N   UNL     1       2.177   4.324  17.838  0.00  0.00    +0.000 NA
ATOM      3  C   UNL     1       3.155   3.252  17.549  0.00  0.00    +0.000 C 
ATOM      4  C   UNL     1       4.522   3.858  17.901  0.00  0.00    +0.000 C 
ATOM      5  O   UNL     1       4.201   5.033  18.644  0.00  0.00    +0.000 OA
ENDROOT
BRANCH   1   9
ATOM      6  C   UNL     1       1.300   8.899  20.052  0.00  0.00    +0.000 A 
ATOM      7  C   UNL     1       1.394   7.724  20.820  0.00  0.00    +0.000 A 
ATOM      8  C   UNL     1       1.925   6.544  20.293  0.00  0.00    +0.000 A 
ATOM      9  C   UNL     1       2.362   6.502  18.970  0.00  0.00    +0.000 A 
ATOM     10  C   UNL     1       2.280   7.654  18.182  0.00  0.00    +0.000 A 
ATOM     11  C   UNL     1       1.760   8.839  18.722  0.00  0.00    +0.000 A 
BRANCH   6  15
ATOM     12  C   UNL     1      -0.293  12.520  21.769  0.00  0.00    +0.000 A 
ATOM     13  C   UNL     1       0.489  12.574  20.621  0.00  0.00    +0.000 A 
ATOM     14  C   UNL     1       0.982  11.395  20.056  0.00  0.00    +0.000 A 
ATOM     15  C   UNL     1       0.724  10.136  20.630  0.00  0.00    +0.000 A 
ATOM     16  C   UNL     1      -0.077  10.111  21.786  0.00  0.00    +0.000 A 
ATOM     17  C   UNL     1      -0.584  11.289  22.347  0.00  0.00    +0.000 A 
ENDBRANCH   6  15
ENDBRANCH   1   9
BRANCH   4  18
ATOM     18  C   UNL     1       5.383   4.259  16.719  0.00  0.00    +0.000 A 
ATOM     19  C   UNL     1       4.957   4.090  15.390  0.00  0.00    +0.000 A 
ATOM     20  C   UNL     1       5.801   4.402  14.323  0.00  0.00    +0.000 A 
ATOM     21  C   UNL     1       7.069   4.922  14.566  0.00  0.00    +0.000 A 
ATOM     22  C   UNL     1       7.484   5.153  15.875  0.00  0.00    +0.000 A 
ATOM     23  C   UNL     1       6.647   4.828  16.945  0.00  0.00    +0.000 A 
ENDBRANCH   4  18
BRANCH   3  24
ATOM     24  C   UNL     1       2.780   2.019  18.377  0.00  0.00    +0.000 C 
BRANCH  24  25
ATOM     25  N   UNL     1       2.422   2.331  19.745  0.00  0.00    +0.000 N 
ATOM     26  C   UNL     1       1.161   2.561  20.214  0.00  0.00    +0.000 A 
ATOM     27  C   UNL     1       1.326   2.822  21.555  0.00  0.00    +0.000 A 
ATOM     28  N   UNL     1       2.647   2.739  21.906  0.00  0.00    +0.000 NA
ATOM     29  C   UNL     1       3.283   2.427  20.800  0.00  0.00    +0.000 A 
ENDBRANCH  24  25
ENDBRANCH   3  24
TORSDOF 5
ENDMDL
MODEL 2
REMARK VINA RESULT:      -9.3      0.230      1.255
REMARK  Name = 
REMARK  5 active torsions:
REMARK  status: ('A' for Active; 'I' for Inactive)
REMARK    1  A    between atoms: C_4  and  C_5
REMARK    2  A    between atoms: C_8  and  C_9
REMARK    3  A    between atoms: C_11  and  C_12
REMARK    4  A    between atoms: C_12  and  N_13
REMARK    5  A    between atoms: C_18  and  C_19
REMARK                            x       y       z     vdW  Elec       q    Type
REMARK                         _______ _______ _______ _____ _____    ______ ____
ROOT
ATOM      1  C   UNL     1       2.869   5.289  18.464  0.00  0.00    +0.000 C 
ATOM      2  N   UNL     1       2.183   4.422  17.788  0.00  0.00    +0.000 NA
ATOM      3  C   UNL     1       3.145   3.327  17.535  0.00  0.00    +0.000 C 
ATOM      4  C   UNL     1       4.503   3.881  17.992  0.00  0.00    +0.000 C 
ATOM      5  O   UNL     1       4.169   5.047  18.742  0.00  0.00    +0.000 OA
ENDROOT
BRANCH   1   9
ATOM      6  C   UNL     1       1.304   8.968  20.064  0.00  0.00    +0.000 A 
ATOM      7  C   UNL     1       1.383   7.791  20.830  0.00  0.00    +0.000 A 
ATOM      8  C   UNL     1       1.910   6.608  20.305  0.00  0.00    +0.000 A 
ATOM      9  C   UNL     1       2.357   6.566  18.986  0.00  0.00    +0.000 A 
ATOM     10  C   UNL     1       2.291   7.720  18.200  0.00  0.00    +0.000 A 
ATOM     11  C   UNL     1       1.776   8.907  18.737  0.00  0.00    +0.000 A 
BRANCH   6  15
ATOM     12  C   UNL     1      -0.446  12.551  21.707  0.00  0.00    +0.000 A 
ATOM     13  C   UNL     1      -0.628  11.328  22.341  0.00  0.00    +0.000 A 
ATOM     14  C   UNL     1      -0.038  10.174  21.817  0.00  0.00    +0.000 A 
ATOM     15  C   UNL     1       0.732  10.208  20.639  0.00  0.00    +0.000 A 
ATOM     16  C   UNL     1       0.906  11.460  20.022  0.00  0.00    +0.000 A 
ATOM     17  C   UNL     1       0.327  12.620  20.553  0.00  0.00    +0.000 A 
ENDBRANCH   6  15
ENDBRANCH   1   9
BRANCH   4  18
ATOM     18  C   UNL     1       5.452   4.283  16.878  0.00  0.00    +0.000 A 
ATOM     19  C   UNL     1       6.452   5.254  17.060  0.00  0.00    +0.000 A 
ATOM     20  C   UNL     1       7.262   5.654  15.996  0.00  0.00    +0.000 A 
ATOM     21  C   UNL     1       7.111   5.063  14.745  0.00  0.00    +0.000 A 
ATOM     22  C   UNL     1       6.167   4.056  14.563  0.00  0.00    +0.000 A 
ATOM     23  C   UNL     1       5.345   3.665  15.622  0.00  0.00    +0.000 A 
ENDBRANCH   4  18
BRANCH   3  24
ATOM     24  C   UNL     1       2.679   2.087  18.305  0.00  0.00    +0.000 C 
BRANCH  24  25
ATOM     25  N   UNL     1       2.383   2.351  19.697  0.00  0.00    +0.000 N 
ATOM     26  C   UNL     1       1.148   2.596  20.225  0.00  0.00    +0.000 A 
ATOM     27  C   UNL     1       1.372   2.795  21.569  0.00  0.00    +0.000 A 
ATOM     28  N   UNL     1       2.703   2.662  21.863  0.00  0.00    +0.000 NA
ATOM     29  C   UNL     1       3.286   2.378  20.721  0.00  0.00    +0.000 A 
ENDBRANCH  24  25
ENDBRANCH   3  24
TORSDOF 5
ENDMDL
MODEL 3
REMARK VINA RESULT:      -9.2      0.400      1.342
REMARK  Name = 
REMARK  5 active torsions:
REMARK  status: ('A' for Active; 'I' for Inactive)
REMARK    1  A    between atoms: C_4  and  C_5
REMARK    2  A    between atoms: C_8  and  C_9
REMARK    3  A    between atoms: C_11  and  C_12
REMARK    4  A    between atoms: C_12  and  N_13
REMARK    5  A    between atoms: C_18  and  C_19
REMARK                            x       y       z     vdW  Elec       q    Type
REMARK                         _______ _______ _______ _____ _____    ______ ____
ROOT
ATOM      1  C   UNL     1       2.940   5.203  18.381  0.00  0.00    +0.000 C 
ATOM      2  N   UNL     1       2.261   4.263  17.801  0.00  0.00    +0.000 NA
ATOM      3  C   UNL     1       3.256   3.192  17.578  0.00  0.00    +0.000 C 
ATOM      4  C   UNL     1       4.609   3.830  17.928  0.00  0.00    +0.000 C 
ATOM      5  O   UNL     1       4.261   5.033  18.610  0.00  0.00    +0.000 OA
ENDROOT
BRANCH   1   9
ATOM      6  C   UNL     1       1.416   9.030  19.634  0.00  0.00    +0.000 A 
ATOM      7  C   UNL     1       1.841   8.788  18.315  0.00  0.00    +0.000 A 
ATOM      8  C   UNL     1       2.316   7.537  17.916  0.00  0.00    +0.000 A 
ATOM      9  C   UNL     1       2.399   6.493  18.836  0.00  0.00    +0.000 A 
ATOM     10  C   UNL     1       1.985   6.704  20.154  0.00  0.00    +0.000 A 
ATOM     11  C   UNL     1       1.495   7.958  20.544  0.00  0.00    +0.000 A 
BRANCH   6  15
ATOM     12  C   UNL     1       0.076  12.952  20.825  0.00  0.00    +0.000 A 
ATOM     13  C   UNL     1       0.709  12.770  19.601  0.00  0.00    +0.000 A 
ATOM     14  C   UNL     1       1.119  11.493  19.210  0.00  0.00    +0.000 A 
ATOM     15  C   UNL     1       0.925  10.369  20.036  0.00  0.00    +0.000 A 
ATOM     16  C   UNL     1       0.276  10.582  21.266  0.00  0.00    +0.000 A 
ATOM     17  C   UNL     1      -0.149  11.859  21.654  0.00  0.00    +0.000 A 
ENDBRANCH   6  15
ENDBRANCH   1   9
BRANCH   4  18
ATOM     18  C   UNL     1       5.488   4.188  16.744  0.00  0.00    +0.000 A 
ATOM     19  C   UNL     1       6.779   4.721  16.904  0.00  0.00    +0.000 A 
ATOM     20  C   UNL     1       7.534   5.107  15.795  0.00  0.00    +0.000 A 
ATOM     21  C   UNL     1       7.028   4.933  14.511  0.00  0.00    +0.000 A 
ATOM     22  C   UNL     1       5.776   4.351  14.333  0.00  0.00    +0.000 A 
ATOM     23  C   UNL     1       5.012   3.977  15.440  0.00  0.00    +0.000 A 
ENDBRANCH   4  18
BRANCH   3  24
ATOM     24  C   UNL     1       2.880   1.993  18.454  0.00  0.00    +0.000 C 
BRANCH  24  25
ATOM     25  N   UNL     1       2.463   2.363  19.790  0.00  0.00    +0.000 N 
ATOM     26  C   UNL     1       1.183   2.606  20.196  0.00  0.00    +0.000 A 
ATOM     27  C   UNL     1       1.290   2.928  21.530  0.00  0.00    +0.000 A 
ATOM     28  N   UNL     1       2.596   2.871  21.938  0.00  0.00    +0.000 NA
ATOM     29  C   UNL     1       3.279   2.513  20.875  0.00  0.00    +0.000 A 
ENDBRANCH  24  25
ENDBRANCH   3  24
TORSDOF 5
ENDMDL
MODEL 4
REMARK VINA RESULT:      -9.2      0.344      1.307
REMARK  Name = 
REMARK  5 active torsions:
REMARK  status: ('A' for Active; 'I' for Inactive)
REMARK    1  A    between atoms: C_4  and  C_5
REMARK    2  A    between atoms: C_8  and  C_9
REMARK    3  A    between atoms: C_11  and  C_12
REMARK    4  A    between atoms: C_12  and  N_13
REMARK    5  A    between atoms: C_18  and  C_19
REMARK                            x       y       z     vdW  Elec       q    Type
REMARK                         _______ _______ _______ _____ _____    ______ ____
ROOT
ATOM      1  C   UNL     1       2.829   5.278  18.397  0.00  0.00    +0.000 C 
ATOM      2  N   UNL     1       2.133   4.366  17.791  0.00  0.00    +0.000 NA
ATOM      3  C   UNL     1       3.111   3.287  17.532  0.00  0.00    +0.000 C 
ATOM      4  C   UNL     1       4.475   3.894  17.897  0.00  0.00    +0.000 C 
ATOM      5  O   UNL     1       4.147   5.080  18.617  0.00  0.00    +0.000 OA
ENDROOT
BRANCH   1   9
ATOM      6  C   UNL     1       1.366   9.088  19.771  0.00  0.00    +0.000 A 
ATOM      7  C   UNL     1       1.766   8.874  18.439  0.00  0.00    +0.000 A 
ATOM      8  C   UNL     1       2.222   7.628  18.001  0.00  0.00    +0.000 A 
ATOM      9  C   UNL     1       2.308   6.561  18.894  0.00  0.00    +0.000 A 
ATOM     10  C   UNL     1       1.918   6.743  20.223  0.00  0.00    +0.000 A 
ATOM     11  C   UNL     1       1.447   7.992  20.652  0.00  0.00    +0.000 A 
BRANCH   6  15
ATOM     12  C   UNL     1      -0.091  12.945  21.035  0.00  0.00    +0.000 A 
ATOM     13  C   UNL     1      -0.341  11.815  21.805  0.00  0.00    +0.000 A 
ATOM     14  C   UNL     1       0.155  10.572  21.403  0.00  0.00    +0.000 A 
ATOM     15  C   UNL     1       0.895  10.421  20.214  0.00  0.00    +0.000 A 
ATOM     16  C   UNL     1       1.139  11.582  19.459  0.00  0.00    +0.000 A 
ATOM     17  C   UNL     1       0.655  12.831  19.867  0.00  0.00    +0.000 A 
ENDBRANCH   6  15
ENDBRANCH   1   9
BRANCH   4  18
ATOM     18  C   UNL     1       5.355   4.275  16.722  0.00  0.00    +0.000 A 
ATOM     19  C   UNL     1       4.989   4.003  15.392  0.00  0.00    +0.000 A 
ATOM     20  C   UNL     1       5.854   4.300  14.338  0.00  0.00    +0.000 A 
ATOM     21  C   UNL     1       7.080   4.908  14.591  0.00  0.00    +0.000 A 
ATOM     22  C   UNL     1       7.432   5.239  15.897  0.00  0.00    +0.000 A 
ATOM     23  C   UNL     1       6.575   4.929  16.955  0.00  0.00    +0.000 A 
ENDBRANCH   4  18
BRANCH   3  24
ATOM     24  C   UNL     1       2.719   2.068  18.372  0.00  0.00    +0.000 C 
BRANCH  24  25
ATOM     25  N   UNL     1       2.384   2.396  19.743  0.00  0.00    +0.000 N 
ATOM     26  C   UNL     1       1.133   2.652  20.226  0.00  0.00    +0.000 A 
ATOM     27  C   UNL     1       1.320   2.919  21.563  0.00  0.00    +0.000 A 
ATOM     28  N   UNL     1       2.644   2.816  21.898  0.00  0.00    +0.000 NA
ATOM     29  C   UNL     1       3.260   2.484  20.786  0.00  0.00    +0.000 A 
ENDBRANCH  24  25
ENDBRANCH   3  24
TORSDOF 5
ENDMDL
MODEL 5
REMARK VINA RESULT:      -9.1      0.495      1.173
REMARK  Name = 
REMARK  5 active torsions:
REMARK  status: ('A' for Active; 'I' for Inactive)
REMARK    1  A    between atoms: C_4  and  C_5
REMARK    2  A    between atoms: C_8  and  C_9
REMARK    3  A    between atoms: C_11  and  C_12
REMARK    4  A    between atoms: C_12  and  N_13
REMARK    5  A    between atoms: C_18  and  C_19
REMARK                            x       y       z     vdW  Elec       q    Type
REMARK                         _______ _______ _______ _____ _____    ______ ____
ROOT
ATOM      1  C   UNL     1       2.985   5.245  18.243  0.00  0.00    +0.000 C 
ATOM      2  N   UNL     1       2.287   4.314  17.670  0.00  0.00    +0.000 NA
ATOM      3  C   UNL     1       3.268   3.234  17.428  0.00  0.00    +0.000 C 
ATOM      4  C   UNL     1       4.632   3.857  17.760  0.00  0.00    +0.000 C 
ATOM      5  O   UNL     1       4.306   5.060  18.452  0.00  0.00    +0.000 OA
ENDROOT
BRANCH   1   9
ATOM      6  C   UNL     1       1.398   8.975  19.695  0.00  0.00    +0.000 A 
ATOM      7  C   UNL     1       1.540   7.848  20.524  0.00  0.00    +0.000 A 
ATOM      8  C   UNL     1       2.073   6.648  20.046  0.00  0.00    +0.000 A 
ATOM      9  C   UNL     1       2.464   6.538  18.712  0.00  0.00    +0.000 A 
ATOM     10  C   UNL     1       2.334   7.641  17.864  0.00  0.00    +0.000 A 
ATOM     11  C   UNL     1       1.812   8.847  18.354  0.00  0.00    +0.000 A 
BRANCH   6  15
ATOM     12  C   UNL     1      -0.197  12.667  21.253  0.00  0.00    +0.000 A 
ATOM     13  C   UNL     1       0.447  12.647  20.021  0.00  0.00    +0.000 A 
ATOM     14  C   UNL     1       0.940  11.443  19.510  0.00  0.00    +0.000 A 
ATOM     15  C   UNL     1       0.820  10.234  20.222  0.00  0.00    +0.000 A 
ATOM     16  C   UNL     1       0.158  10.283  21.462  0.00  0.00    +0.000 A 
ATOM     17  C   UNL     1      -0.349  11.485  21.970  0.00  0.00    +0.000 A 
ENDBRANCH   6  15
ENDBRANCH   1   9
BRANCH   4  18
ATOM     18  C   UNL     1       5.496   4.210  16.564  0.00  0.00    +0.000 A 
ATOM     19  C   UNL     1       6.744   4.843  16.702  0.00  0.00    +0.000 A 
ATOM     20  C   UNL     1       7.482   5.221  15.580  0.00  0.00    +0.000 A 
ATOM     21  C   UNL     1       7.005   4.938  14.303  0.00  0.00    +0.000 A 
ATOM     22  C   UNL     1       5.800   4.257  14.150  0.00  0.00    +0.000 A 
ATOM     23  C   UNL     1       5.052   3.892  15.271  0.00  0.00    +0.000 A 
ENDBRANCH   4  18
BRANCH   3  24
ATOM     24  C   UNL     1       2.892   2.035  18.305  0.00  0.00    +0.000 C 
BRANCH  24  25
ATOM     25  N   UNL     1       2.420   2.409  19.622  0.00  0.00    +0.000 N 
ATOM     26  C   UNL     1       3.198   2.636  20.721  0.00  0.00    +0.000 A 
ATOM     27  C   UNL     1       2.309   2.949  21.723  0.00  0.00    +0.000 A 
ATOM     28  N   UNL     1       1.022   2.931  21.253  0.00  0.00    +0.000 NA
ATOM     29  C   UNL     1       1.120   2.619  19.981  0.00  0.00    +0.000 A 
ENDBRANCH  24  25
ENDBRANCH   3  24
TORSDOF 5
ENDMDL
MODEL 6
REMARK VINA RESULT:      -9.1      0.450      1.149
REMARK  Name = 
REMARK  5 active torsions:
REMARK  status: ('A' for Active; 'I' for Inactive)
REMARK    1  A    between atoms: C_4  and  C_5
REMARK    2  A    between atoms: C_8  and  C_9
REMARK    3  A    between atoms: C_11  and  C_12
REMARK    4  A    between atoms: C_12  and  N_13
REMARK    5  A    between atoms: C_18  and  C_19
REMARK                            x       y       z     vdW  Elec       q    Type
REMARK                         _______ _______ _______ _____ _____    ______ ____
ROOT
ATOM      1  C   UNL     1       2.920   5.277  18.255  0.00  0.00    +0.000 C 
ATOM      2  N   UNL     1       2.212   4.369  17.660  0.00  0.00    +0.000 NA
ATOM      3  C   UNL     1       3.180   3.283  17.393  0.00  0.00    +0.000 C 
ATOM      4  C   UNL     1       4.551   3.881  17.741  0.00  0.00    +0.000 C 
ATOM      5  O   UNL     1       4.239   5.072  18.461  0.00  0.00    +0.000 OA
ENDROOT
BRANCH   1   9
ATOM      6  C   UNL     1       1.376   8.991  19.793  0.00  0.00    +0.000 A 
ATOM      7  C   UNL     1       1.503   7.842  20.595  0.00  0.00    +0.000 A 
ATOM      8  C   UNL     1       2.023   6.649  20.090  0.00  0.00    +0.000 A 
ATOM      9  C   UNL     1       2.413   6.565  18.754  0.00  0.00    +0.000 A 
ATOM     10  C   UNL     1       2.298   7.690  17.932  0.00  0.00    +0.000 A 
ATOM     11  C   UNL     1       1.790   8.889  18.450  0.00  0.00    +0.000 A 
BRANCH   6  15
ATOM     12  C   UNL     1      -0.351  12.605  21.392  0.00  0.00    +0.000 A 
ATOM     13  C   UNL     1      -0.412  11.420  22.116  0.00  0.00    +0.000 A 
ATOM     14  C   UNL     1       0.171  10.258  21.603  0.00  0.00    +0.000 A 
ATOM     15  C   UNL     1       0.812  10.243  20.349  0.00  0.00    +0.000 A 
ATOM     16  C   UNL     1       0.865  11.458  19.643  0.00  0.00    +0.000 A 
ATOM     17  C   UNL     1       0.293  12.627  20.160  0.00  0.00    +0.000 A 
ENDBRANCH   6  15
ENDBRANCH   1   9
BRANCH   4  18
ATOM     18  C   UNL     1       5.421   4.253  16.554  0.00  0.00    +0.000 A 
ATOM     19  C   UNL     1       5.006   4.047  15.227  0.00  0.00    +0.000 A 
ATOM     20  C   UNL     1       5.858   4.332  14.159  0.00  0.00    +0.000 A 
ATOM     21  C   UNL     1       7.122   4.862  14.398  0.00  0.00    +0.000 A 
ATOM     22  C   UNL     1       7.526   5.130  15.703  0.00  0.00    +0.000 A 
ATOM     23  C   UNL     1       6.681   4.831  16.775  0.00  0.00    +0.000 A 
ENDBRANCH   4  18
BRANCH   3  24
ATOM     24  C   UNL     1       2.789   2.068  18.241  0.00  0.00    +0.000 C 
BRANCH  24  25
ATOM     25  N   UNL     1       2.379   2.413  19.587  0.00  0.00    +0.000 N 
ATOM     26  C   UNL     1       3.203   2.572  20.664  0.00  0.00    +0.000 A 
ATOM     27  C   UNL     1       2.362   2.881  21.708  0.00  0.00    +0.000 A 
ATOM     28  N   UNL     1       1.060   2.926  21.285  0.00  0.00    +0.000 NA
ATOM     29  C   UNL     1       1.101   2.656  20.001  0.00  0.00    +0.000 A 
ENDBRANCH  24  25
ENDBRANCH   3  24
TORSDOF 5
ENDMDL
MODEL 7
REMARK VINA RESULT:      -9.0      1.669      2.289
REMARK  Name = 
REMARK  5 active torsions:
REMARK  status: ('A' for Active; 'I' for Inactive)
REMARK    1  A    between atoms: C_4  and  C_5
REMARK    2  A    between atoms: C_8  and  C_9
REMARK    3  A    between atoms: C_11  and  C_12
REMARK    4  A    between atoms: C_12  and  N_13
REMARK    5  A    between atoms: C_18  and  C_19
REMARK                            x       y       z     vdW  Elec       q    Type
REMARK                         _______ _______ _______ _____ _____    ______ ____
ROOT
ATOM      1  C   UNL     1       2.492   6.467  19.173  0.00  0.00    +0.000 C 
ATOM      2  N   UNL     1       2.213   5.781  18.108  0.00  0.00    +0.000 NA
ATOM      3  C   UNL     1       3.248   4.724  18.086  0.00  0.00    +0.000 C 
ATOM      4  C   UNL     1       4.243   5.122  19.187  0.00  0.00    +0.000 C 
ATOM      5  O   UNL     1       3.555   6.124  19.932  0.00  0.00    +0.000 OA
ENDROOT
BRANCH   1   9
ATOM      6  C   UNL     1       0.223   9.804  20.675  0.00  0.00    +0.000 A 
ATOM      7  C   UNL     1       0.474   8.657  21.451  0.00  0.00    +0.000 A 
ATOM      8  C   UNL     1       1.228   7.589  20.959  0.00  0.00    +0.000 A 
ATOM      9  C   UNL     1       1.737   7.630  19.662  0.00  0.00    +0.000 A 
ATOM     10  C   UNL     1       1.503   8.755  18.867  0.00  0.00    +0.000 A 
ATOM     11  C   UNL     1       0.759   9.830  19.373  0.00  0.00    +0.000 A 
BRANCH   6  15
ATOM     12  C   UNL     1      -2.208  12.994  22.259  0.00  0.00    +0.000 A 
ATOM     13  C   UNL     1      -1.674  12.032  23.109  0.00  0.00    +0.000 A 
ATOM     14  C   UNL     1      -0.867  11.015  22.593  0.00  0.00    +0.000 A 
ATOM     15  C   UNL     1      -0.587  10.920  21.216  0.00  0.00    +0.000 A 
ATOM     16  C   UNL     1      -1.135  11.911  20.381  0.00  0.00    +0.000 A 
ATOM     17  C   UNL     1      -1.933  12.939  20.897  0.00  0.00    +0.000 A 
ENDBRANCH   6  15
ENDBRANCH   1   9
BRANCH   4  18
ATOM     18  C   UNL     1       5.557   5.704  18.700  0.00  0.00    +0.000 A 
ATOM     19  C   UNL     1       6.770   5.484  19.375  0.00  0.00    +0.000 A 
ATOM     20  C   UNL     1       7.949   6.093  18.943  0.00  0.00    +0.000 A 
ATOM     21  C   UNL     1       7.943   6.898  17.808  0.00  0.00    +0.000 A 
ATOM     22  C   UNL     1       6.762   7.077  17.092  0.00  0.00    +0.000 A 
ATOM     23  C   UNL     1       5.577   6.482  17.531  0.00  0.00    +0.000 A 
ENDBRANCH   4  18
BRANCH   3  24
ATOM     24  C   UNL     1       2.563   3.372  18.314  0.00  0.00    +0.000 C 
BRANCH  24  25
ATOM     25  N   UNL     1       2.328   3.074  19.712  0.00  0.00    +0.000 N 
ATOM     26  C   UNL     1       1.141   3.203  20.374  0.00  0.00    +0.000 A 
ATOM     27  C   UNL     1       1.414   2.816  21.666  0.00  0.00    +0.000 A 
ATOM     28  N   UNL     1       2.726   2.444  21.793  0.00  0.00    +0.000 NA
ATOM     29  C   UNL     1       3.249   2.594  20.598  0.00  0.00    +0.000 A 
ENDBRANCH  24  25
ENDBRANCH   3  24
TORSDOF 5
ENDMDL
MODEL 8
REMARK VINA RESULT:      -8.9      4.349      6.002
REMARK  Name = 
REMARK  5 active torsions:
REMARK  status: ('A' for Active; 'I' for Inactive)
REMARK    1  A    between atoms: C_4  and  C_5
REMARK    2  A    between atoms: C_8  and  C_9
REMARK    3  A    between atoms: C_11  and  C_12
REMARK    4  A    between atoms: C_12  and  N_13
REMARK    5  A    between atoms: C_18  and  C_19
REMARK                            x       y       z     vdW  Elec       q    Type
REMARK                         _______ _______ _______ _____ _____    ______ ____
ROOT
ATOM      1  C   UNL     1       6.615   5.876  17.152  0.00  0.00    +0.000 C 
ATOM      2  N   UNL     1       5.332   5.688  17.196  0.00  0.00    +0.000 NA
ATOM      3  C   UNL     1       5.145   4.368  16.554  0.00  0.00    +0.000 C 
ATOM      4  C   UNL     1       6.519   4.017  15.965  0.00  0.00    +0.000 C 
ATOM      5  O   UNL     1       7.410   4.946  16.579  0.00  0.00    +0.000 OA
ENDROOT
BRANCH   1   9
ATOM      6  C   UNL     1       8.691   9.352  18.617  0.00  0.00    +0.000 A 
ATOM      7  C   UNL     1       7.795   9.415  17.534  0.00  0.00    +0.000 A 
ATOM      8  C   UNL     1       7.113   8.284  17.080  0.00  0.00    +0.000 A 
ATOM      9  C   UNL     1       7.326   7.047  17.688  0.00  0.00    +0.000 A 
ATOM     10  C   UNL     1       8.211   6.953  18.765  0.00  0.00    +0.000 A 
ATOM     11  C   UNL     1       8.880   8.096  19.226  0.00  0.00    +0.000 A 
BRANCH   6  15
ATOM     12  C   UNL     1      10.865  12.836  19.934  0.00  0.00    +0.000 A 
ATOM     13  C   UNL     1      10.787  12.529  18.581  0.00  0.00    +0.000 A 
ATOM     14  C   UNL     1      10.061  11.413  18.158  0.00  0.00    +0.000 A 
ATOM     15  C   UNL     1       9.410  10.564  19.074  0.00  0.00    +0.000 A 
ATOM     16  C   UNL     1       9.500  10.903  20.437  0.00  0.00    +0.000 A 
ATOM     17  C   UNL     1      10.216  12.029  20.862  0.00  0.00    +0.000 A 
ENDBRANCH   6  15
ENDBRANCH   1   9
BRANCH   4  18
ATOM     18  C   UNL     1       6.640   4.159  14.460  0.00  0.00    +0.000 A 
ATOM     19  C   UNL     1       5.846   3.414  13.570  0.00  0.00    +0.000 A 
ATOM     20  C   UNL     1       6.032   3.514  12.191  0.00  0.00    +0.000 A 
ATOM     21  C   UNL     1       6.986   4.388  11.677  0.00  0.00    +0.000 A 
ATOM     22  C   UNL     1       7.738   5.178  12.542  0.00  0.00    +0.000 A 
ATOM     23  C   UNL     1       7.565   5.069  13.923  0.00  0.00    +0.000 A 
ENDBRANCH   4  18
BRANCH   3  24
ATOM     24  C   UNL     1       4.643   3.383  17.614  0.00  0.00    +0.000 C 
BRANCH  24  25
ATOM     25  N   UNL     1       3.267   3.610  18.006  0.00  0.00    +0.000 N 
ATOM     26  C   UNL     1       2.820   3.848  19.274  0.00  0.00    +0.000 A 
ATOM     27  C   UNL     1       1.457   3.987  19.147  0.00  0.00    +0.000 A 
ATOM     28  N   UNL     1       1.076   3.854  17.838  0.00  0.00    +0.000 NA
ATOM     29  C   UNL     1       2.188   3.644  17.171  0.00  0.00    +0.000 A 
ENDBRANCH  24  25
ENDBRANCH   3  24
TORSDOF 5
ENDMDL
