MODEL 1
REMARK VINA RESULT:      -8.0      0.000      0.000
REMARK  Name = 
REMARK  3 active torsions:
REMARK  status: ('A' for Active; 'I' for Inactive)
REMARK    1  A    between atoms: C_1  and  C_2
REMARK    2  A    between atoms: C_5  and  C_6
REMARK    3  A    between atoms: C_11  and  C_12
REMARK                            x       y       z     vdW  Elec       q    Type
REMARK                         _______ _______ _______ _____ _____    ______ ____
ROOT
ATOM      1  C   UNL     1       2.739   4.843  18.418  0.00  0.00    +0.000 A 
ATOM      2  C   UNL     1       1.638   3.958  18.374  0.00  0.00    +0.000 A 
ATOM      3  C   UNL     1       1.784   2.640  17.958  0.00  0.00    +0.000 A 
ATOM      4  C   UNL     1       3.040   2.172  17.610  0.00  0.00    +0.000 A 
ATOM      5  C   UNL     1       4.151   3.016  17.709  0.00  0.00    +0.000 A 
ATOM      6  C   UNL     1       4.045   4.374  18.091  0.00  0.00    +0.000 A 
ENDROOT
BRANCH   6   7
ATOM      7  C   UNL     1       5.293   5.204  18.198  0.00  0.00    +0.000 A 
ATOM      8  C   UNL     1       6.140   5.048  19.323  0.00  0.00    +0.000 A 
ATOM      9  C   UNL     1       7.295   5.815  19.501  0.00  0.00    +0.000 A 
ATOM     10  C   UNL     1       7.679   6.707  18.516  0.00  0.00    +0.000 A 
ATOM     11  F   UNL     1       8.798   7.426  18.673  0.00  0.00    +0.000 F 
ATOM     12  C   UNL     1       6.915   6.866  17.373  0.00  0.00    +0.000 A 
ATOM     13  C   UNL     1       5.720   6.148  17.226  0.00  0.00    +0.000 A 
ATOM     14 CL   UNL     1       4.796   6.546  15.812  0.00  0.00    +0.000 Cl
ENDBRANCH   6   7
BRANCH   1  19
ATOM     15  C   UNL     1       1.922   9.547  17.873  0.00  0.00    +0.000 C 
ATOM     16  C   UNL     1       2.065   8.280  18.611  0.00  0.00    +0.000 A 
ATOM     17  N   UNL     1       2.010   8.042  19.904  0.00  0.00    +0.000 NA
ATOM     18  N   UNL     1       2.236   6.693  20.045  0.00  0.00    +0.000 NA
ATOM     19  C   UNL     1       2.435   6.205  18.840  0.00  0.00    +0.000 A 
ATOM     20  O   UNL     1       2.309   7.160  17.866  0.00  0.00    +0.000 OA
ENDBRANCH   1  19
TORSDOF 2
ENDMDL
MODEL 2
REMARK VINA RESULT:      -7.9      1.024      1.161
REMARK  Name = 
REMARK  3 active torsions:
REMARK  status: ('A' for Active; 'I' for Inactive)
REMARK    1  A    between atoms: C_1  and  C_2
REMARK    2  A    between atoms: C_5  and  C_6
REMARK    3  A    between atoms: C_11  and  C_12
REMARK                            x       y       z     vdW  Elec       q    Type
REMARK                         _______ _______ _______ _____ _____    ______ ____
ROOT
ATOM      1  C   UNL     1       2.746   4.885  18.368  0.00  0.00    +0.000 A 
ATOM      2  C   UNL     1       1.635   4.013  18.321  0.00  0.00    +0.000 A 
ATOM      3  C   UNL     1       1.768   2.689  17.923  0.00  0.00    +0.000 A 
ATOM      4  C   UNL     1       3.022   2.200  17.597  0.00  0.00    +0.000 A 
ATOM      5  C   UNL     1       4.143   3.030  17.700  0.00  0.00    +0.000 A 
ATOM      6  C   UNL     1       4.050   4.395  18.063  0.00  0.00    +0.000 A 
ENDROOT
BRANCH   6   7
ATOM      7  C   UNL     1       5.307   5.210  18.177  0.00  0.00    +0.000 A 
ATOM      8  C   UNL     1       6.109   5.096  19.340  0.00  0.00    +0.000 A 
ATOM      9  C   UNL     1       7.270   5.854  19.524  0.00  0.00    +0.000 A 
ATOM     10  C   UNL     1       7.706   6.689  18.511  0.00  0.00    +0.000 A 
ATOM     11  F   UNL     1       8.830   7.397  18.674  0.00  0.00    +0.000 F 
ATOM     12  C   UNL     1       6.988   6.803  17.333  0.00  0.00    +0.000 A 
ATOM     13  C   UNL     1       5.786   6.097  17.177  0.00  0.00    +0.000 A 
ATOM     14 CL   UNL     1       4.923   6.437  15.710  0.00  0.00    +0.000 Cl
ENDBRANCH   6   7
BRANCH   1  19
ATOM     15  C   UNL     1       1.378   8.410  21.332  0.00  0.00    +0.000 C 
ATOM     16  C   UNL     1       1.859   7.820  20.072  0.00  0.00    +0.000 A 
ATOM     17  N   UNL     1       2.110   8.388  18.912  0.00  0.00    +0.000 NA
ATOM     18  N   UNL     1       2.509   7.371  18.076  0.00  0.00    +0.000 NA
ATOM     19  C   UNL     1       2.455   6.255  18.770  0.00  0.00    +0.000 A 
ATOM     20  O   UNL     1       2.076   6.470  20.069  0.00  0.00    +0.000 OA
ENDBRANCH   1  19
TORSDOF 2
ENDMDL
MODEL 3
REMARK VINA RESULT:      -7.9      3.477      5.076
REMARK  Name = 
REMARK  3 active torsions:
REMARK  status: ('A' for Active; 'I' for Inactive)
REMARK    1  A    between atoms: C_1  and  C_2
REMARK    2  A    between atoms: C_5  and  C_6
REMARK    3  A    between atoms: C_11  and  C_12
REMARK                            x       y       z     vdW  Elec       q    Type
REMARK                         _______ _______ _______ _____ _____    ______ ____
ROOT
ATOM      1  C   UNL     1       6.551   5.620  16.342  0.00  0.00    +0.000 A 
ATOM      2  C   UNL     1       7.299   5.201  15.219  0.00  0.00    +0.000 A 
ATOM      3  C   UNL     1       6.750   4.368  14.252  0.00  0.00    +0.000 A 
ATOM      4  C   UNL     1       5.430   3.967  14.371  0.00  0.00    +0.000 A 
ATOM      5  C   UNL     1       4.656   4.424  15.442  0.00  0.00    +0.000 A 
ATOM      6  C   UNL     1       5.183   5.241  16.470  0.00  0.00    +0.000 A 
ENDROOT
BRANCH   6   7
ATOM      7  C   UNL     1       4.275   5.711  17.570  0.00  0.00    +0.000 A 
ATOM      8  C   UNL     1       3.572   6.933  17.421  0.00  0.00    +0.000 A 
ATOM      9  C   UNL     1       2.741   7.445  18.422  0.00  0.00    +0.000 A 
ATOM     10  C   UNL     1       2.525   6.707  19.572  0.00  0.00    +0.000 A 
ATOM     11  F   UNL     1       1.712   7.183  20.522  0.00  0.00    +0.000 F 
ATOM     12  C   UNL     1       3.148   5.483  19.751  0.00  0.00    +0.000 A 
ATOM     13  C   UNL     1       4.036   5.003  18.778  0.00  0.00    +0.000 A 
ATOM     14 CL   UNL     1       4.847   3.526  19.193  0.00  0.00    +0.000 Cl
ENDBRANCH   6   7
BRANCH   1  19
ATOM     15  C   UNL     1       8.496   9.671  18.045  0.00  0.00    +0.000 C 
ATOM     16  C   UNL     1       8.120   8.247  18.059  0.00  0.00    +0.000 A 
ATOM     17  N   UNL     1       8.387   7.308  18.941  0.00  0.00    +0.000 NA
ATOM     18  N   UNL     1       7.818   6.158  18.447  0.00  0.00    +0.000 NA
ATOM     19  C   UNL     1       7.264   6.463  17.294  0.00  0.00    +0.000 A 
ATOM     20  O   UNL     1       7.391   7.794  16.994  0.00  0.00    +0.000 OA
ENDBRANCH   1  19
TORSDOF 2
ENDMDL
MODEL 4
REMARK VINA RESULT:      -7.7      3.377      4.895
REMARK  Name = 
REMARK  3 active torsions:
REMARK  status: ('A' for Active; 'I' for Inactive)
REMARK    1  A    between atoms: C_1  and  C_2
REMARK    2  A    between atoms: C_5  and  C_6
REMARK    3  A    between atoms: C_11  and  C_12
REMARK                            x       y       z     vdW  Elec       q    Type
REMARK                         _______ _______ _______ _____ _____    ______ ____
ROOT
ATOM      1  C   UNL     1       6.542   5.327  16.223  0.00  0.00    +0.000 A 
ATOM      2  C   UNL     1       7.184   5.240  14.967  0.00  0.00    +0.000 A 
ATOM      3  C   UNL     1       6.667   4.460  13.940  0.00  0.00    +0.000 A 
ATOM      4  C   UNL     1       5.478   3.778  14.139  0.00  0.00    +0.000 A 
ATOM      5  C   UNL     1       4.796   3.904  15.352  0.00  0.00    +0.000 A 
ATOM      6  C   UNL     1       5.303   4.655  16.439  0.00  0.00    +0.000 A 
ENDROOT
BRANCH   6   7
ATOM      7  C   UNL     1       4.493   4.760  17.699  0.00  0.00    +0.000 A 
ATOM      8  C   UNL     1       4.354   3.624  18.536  0.00  0.00    +0.000 A 
ATOM      9  C   UNL     1       3.583   3.645  19.702  0.00  0.00    +0.000 A 
ATOM     10  C   UNL     1       2.994   4.828  20.108  0.00  0.00    +0.000 A 
ATOM     11  F   UNL     1       2.275   4.857  21.237  0.00  0.00    +0.000 F 
ATOM     12  C   UNL     1       3.136   5.981  19.355  0.00  0.00    +0.000 A 
ATOM     13  C   UNL     1       3.850   5.944  18.149  0.00  0.00    +0.000 A 
ATOM     14 CL   UNL     1       3.833   7.424  17.243  0.00  0.00    +0.000 Cl
ENDBRANCH   6   7
BRANCH   1  19
ATOM     15  C   UNL     1       8.374   9.357  18.091  0.00  0.00    +0.000 C 
ATOM     16  C   UNL     1       8.020   7.928  18.055  0.00  0.00    +0.000 A 
ATOM     17  N   UNL     1       8.276   6.970  18.919  0.00  0.00    +0.000 NA
ATOM     18  N   UNL     1       7.739   5.825  18.378  0.00  0.00    +0.000 NA
ATOM     19  C   UNL     1       7.214   6.154  17.217  0.00  0.00    +0.000 A 
ATOM     20  O   UNL     1       7.329   7.494  16.958  0.00  0.00    +0.000 OA
ENDBRANCH   1  19
TORSDOF 2
ENDMDL
MODEL 5
REMARK VINA RESULT:      -7.5      2.341      2.752
REMARK  Name = 
REMARK  3 active torsions:
REMARK  status: ('A' for Active; 'I' for Inactive)
REMARK    1  A    between atoms: C_1  and  C_2
REMARK    2  A    between atoms: C_5  and  C_6
REMARK    3  A    between atoms: C_11  and  C_12
REMARK                            x       y       z     vdW  Elec       q    Type
REMARK                         _______ _______ _______ _____ _____    ______ ____
ROOT
ATOM      1  C   UNL     1       2.950   5.311  19.384  0.00  0.00    +0.000 A 
ATOM      2  C   UNL     1       2.109   5.118  20.503  0.00  0.00    +0.000 A 
ATOM      3  C   UNL     1       2.102   3.920  21.207  0.00  0.00    +0.000 A 
ATOM      4  C   UNL     1       2.961   2.902  20.824  0.00  0.00    +0.000 A 
ATOM      5  C   UNL     1       3.845   3.099  19.759  0.00  0.00    +0.000 A 
ATOM      6  C   UNL     1       3.861   4.288  18.991  0.00  0.00    +0.000 A 
ENDROOT
BRANCH   6   7
ATOM      7  C   UNL     1       4.863   4.428  17.880  0.00  0.00    +0.000 A 
ATOM      8  C   UNL     1       4.516   4.008  16.571  0.00  0.00    +0.000 A 
ATOM      9  C   UNL     1       5.415   4.077  15.502  0.00  0.00    +0.000 A 
ATOM     10  C   UNL     1       6.661   4.644  15.695  0.00  0.00    +0.000 A 
ATOM     11  F   UNL     1       7.515   4.733  14.668  0.00  0.00    +0.000 F 
ATOM     12  C   UNL     1       7.036   5.115  16.941  0.00  0.00    +0.000 A 
ATOM     13  C   UNL     1       6.162   4.982  18.030  0.00  0.00    +0.000 A 
ATOM     14 CL   UNL     1       6.812   5.490  19.557  0.00  0.00    +0.000 Cl
ENDBRANCH   6   7
BRANCH   1  19
ATOM     15  C   UNL     1       1.269   9.755  18.672  0.00  0.00    +0.000 C 
ATOM     16  C   UNL     1       2.099   8.569  18.402  0.00  0.00    +0.000 A 
ATOM     17  N   UNL     1       2.943   8.331  17.421  0.00  0.00    +0.000 NA
ATOM     18  N   UNL     1       3.423   7.062  17.642  0.00  0.00    +0.000 NA
ATOM     19  C   UNL     1       2.829   6.604  18.722  0.00  0.00    +0.000 A 
ATOM     20  O   UNL     1       1.988   7.529  19.282  0.00  0.00    +0.000 OA
ENDBRANCH   1  19
TORSDOF 2
ENDMDL
MODEL 6
REMARK VINA RESULT:      -7.3      3.032      4.359
REMARK  Name = 
REMARK  3 active torsions:
REMARK  status: ('A' for Active; 'I' for Inactive)
REMARK    1  A    between atoms: C_1  and  C_2
REMARK    2  A    between atoms: C_5  and  C_6
REMARK    3  A    between atoms: C_11  and  C_12
REMARK                            x       y       z     vdW  Elec       q    Type
REMARK                         _______ _______ _______ _____ _____    ______ ____
ROOT
ATOM      1  C   UNL     1       3.938   6.041  17.546  0.00  0.00    +0.000 A 
ATOM      2  C   UNL     1       4.730   6.525  16.480  0.00  0.00    +0.000 A 
ATOM      3  C   UNL     1       5.594   5.691  15.782  0.00  0.00    +0.000 A 
ATOM      4  C   UNL     1       5.658   4.348  16.114  0.00  0.00    +0.000 A 
ATOM      5  C   UNL     1       4.834   3.838  17.122  0.00  0.00    +0.000 A 
ATOM      6  C   UNL     1       3.968   4.657  17.885  0.00  0.00    +0.000 A 
ENDROOT
BRANCH   6   7
ATOM      7  C   UNL     1       3.096   4.024  18.933  0.00  0.00    +0.000 A 
ATOM      8  C   UNL     1       3.667   3.629  20.169  0.00  0.00    +0.000 A 
ATOM      9  C   UNL     1       2.920   3.001  21.170  0.00  0.00    +0.000 A 
ATOM     10  C   UNL     1       1.559   2.824  20.995  0.00  0.00    +0.000 A 
ATOM     11  F   UNL     1       0.837   2.245  21.961  0.00  0.00    +0.000 F 
ATOM     12  C   UNL     1       0.940   3.235  19.827  0.00  0.00    +0.000 A 
ATOM     13  C   UNL     1       1.701   3.801  18.794  0.00  0.00    +0.000 A 
ATOM     14 CL   UNL     1       0.820   4.144  17.339  0.00  0.00    +0.000 Cl
ENDBRANCH   6   7
BRANCH   1  19
ATOM     15  C   UNL     1       1.463  10.136  17.980  0.00  0.00    +0.000 C 
ATOM     16  C   UNL     1       2.002   8.835  18.411  0.00  0.00    +0.000 A 
ATOM     17  N   UNL     1       1.918   8.227  19.574  0.00  0.00    +0.000 NA
ATOM     18  N   UNL     1       2.621   7.054  19.434  0.00  0.00    +0.000 NA
ATOM     19  C   UNL     1       3.104   7.034  18.211  0.00  0.00    +0.000 A 
ATOM     20  O   UNL     1       2.720   8.131  17.485  0.00  0.00    +0.000 OA
ENDBRANCH   1  19
TORSDOF 2
ENDMDL
MODEL 7
REMARK VINA RESULT:      -7.2      3.141      4.504
REMARK  Name = 
REMARK  3 active torsions:
REMARK  status: ('A' for Active; 'I' for Inactive)
REMARK    1  A    between atoms: C_1  and  C_2
REMARK    2  A    between atoms: C_5  and  C_6
REMARK    3  A    between atoms: C_11  and  C_12
REMARK                            x       y       z     vdW  Elec       q    Type
REMARK                         _______ _______ _______ _____ _____    ______ ____
ROOT
ATOM      1  C   UNL     1       3.890   6.223  17.602  0.00  0.00    +0.000 A 
ATOM      2  C   UNL     1       4.709   6.714  16.559  0.00  0.00    +0.000 A 
ATOM      3  C   UNL     1       5.626   5.898  15.911  0.00  0.00    +0.000 A 
ATOM      4  C   UNL     1       5.719   4.563  16.270  0.00  0.00    +0.000 A 
ATOM      5  C   UNL     1       4.873   4.044  17.254  0.00  0.00    +0.000 A 
ATOM      6  C   UNL     1       3.951   4.847  17.967  0.00  0.00    +0.000 A 
ENDROOT
BRANCH   6   7
ATOM      7  C   UNL     1       3.059   4.204  18.991  0.00  0.00    +0.000 A 
ATOM      8  C   UNL     1       3.589   3.858  20.259  0.00  0.00    +0.000 A 
ATOM      9  C   UNL     1       2.823   3.224  21.242  0.00  0.00    +0.000 A 
ATOM     10  C   UNL     1       1.479   2.990  21.013  0.00  0.00    +0.000 A 
ATOM     11  F   UNL     1       0.738   2.405  21.961  0.00  0.00    +0.000 F 
ATOM     12  C   UNL     1       0.897   3.351  19.810  0.00  0.00    +0.000 A 
ATOM     13  C   UNL     1       1.681   3.923  18.798  0.00  0.00    +0.000 A 
ATOM     14 CL   UNL     1       0.852   4.199  17.298  0.00  0.00    +0.000 Cl
ENDBRANCH   6   7
BRANCH   1  19
ATOM     15  C   UNL     1       1.301   8.227  21.118  0.00  0.00    +0.000 C 
ATOM     16  C   UNL     1       1.858   8.097  19.762  0.00  0.00    +0.000 A 
ATOM     17  N   UNL     1       1.646   8.824  18.686  0.00  0.00    +0.000 NA
ATOM     18  N   UNL     1       2.399   8.246  17.690  0.00  0.00    +0.000 NA
ATOM     19  C   UNL     1       2.999   7.199  18.215  0.00  0.00    +0.000 A 
ATOM     20  O   UNL     1       2.723   7.060  19.550  0.00  0.00    +0.000 OA
ENDBRANCH   1  19
TORSDOF 2
ENDMDL
MODEL 8
REMARK VINA RESULT:      -7.2      2.336      2.616
REMARK  Name = 
REMARK  3 active torsions:
REMARK  status: ('A' for Active; 'I' for Inactive)
REMARK    1  A    between atoms: C_1  and  C_2
REMARK    2  A    between atoms: C_5  and  C_6
REMARK    3  A    between atoms: C_11  and  C_12
REMARK                            x       y       z     vdW  Elec       q    Type
REMARK                         _______ _______ _______ _____ _____    ______ ____
ROOT
ATOM      1  C   UNL     1       2.850   4.969  19.862  0.00  0.00    +0.000 A 
ATOM      2  C   UNL     1       2.029   4.765  20.995  0.00  0.00    +0.000 A 
ATOM      3  C   UNL     1       2.048   3.567  21.698  0.00  0.00    +0.000 A 
ATOM      4  C   UNL     1       2.914   2.561  21.302  0.00  0.00    +0.000 A 
ATOM      5  C   UNL     1       3.780   2.769  20.224  0.00  0.00    +0.000 A 
ATOM      6  C   UNL     1       3.768   3.957  19.455  0.00  0.00    +0.000 A 
ENDROOT
BRANCH   6   7
ATOM      7  C   UNL     1       4.750   4.110  18.329  0.00  0.00    +0.000 A 
ATOM      8  C   UNL     1       6.052   4.601  18.600  0.00  0.00    +0.000 A 
ATOM      9  C   UNL     1       7.000   4.802  17.592  0.00  0.00    +0.000 A 
ATOM     10  C   UNL     1       6.699   4.441  16.292  0.00  0.00    +0.000 A 
ATOM     11  F   UNL     1       7.613   4.610  15.329  0.00  0.00    +0.000 F 
ATOM     12  C   UNL     1       5.459   3.911  15.977  0.00  0.00    +0.000 A 
ATOM     13  C   UNL     1       4.484   3.775  16.975  0.00  0.00    +0.000 A 
ATOM     14 CL   UNL     1       2.935   3.227  16.415  0.00  0.00    +0.000 Cl
ENDBRANCH   6   7
BRANCH   1  19
ATOM     15  C   UNL     1       1.269   9.470  19.294  0.00  0.00    +0.000 C 
ATOM     16  C   UNL     1       2.016   8.250  18.944  0.00  0.00    +0.000 A 
ATOM     17  N   UNL     1       2.728   7.970  17.874  0.00  0.00    +0.000 NA
ATOM     18  N   UNL     1       3.182   6.685  18.053  0.00  0.00    +0.000 NA
ATOM     19  C   UNL     1       2.702   6.260  19.202  0.00  0.00    +0.000 A 
ATOM     20  O   UNL     1       1.969   7.223  19.845  0.00  0.00    +0.000 OA
ENDBRANCH   1  19
TORSDOF 2
ENDMDL
MODEL 9
REMARK VINA RESULT:      -7.1      2.923      4.579
REMARK  Name = 
REMARK  3 active torsions:
REMARK  status: ('A' for Active; 'I' for Inactive)
REMARK    1  A    between atoms: C_1  and  C_2
REMARK    2  A    between atoms: C_5  and  C_6
REMARK    3  A    between atoms: C_11  and  C_12
REMARK                            x       y       z     vdW  Elec       q    Type
REMARK                         _______ _______ _______ _____ _____    ______ ____
ROOT
ATOM      1  C   UNL     1       4.187   4.007  18.395  0.00  0.00    +0.000 A 
ATOM      2  C   UNL     1       4.412   2.662  18.022  0.00  0.00    +0.000 A 
ATOM      3  C   UNL     1       3.361   1.812  17.704  0.00  0.00    +0.000 A 
ATOM      4  C   UNL     1       2.065   2.299  17.720  0.00  0.00    +0.000 A 
ATOM      5  C   UNL     1       1.828   3.643  18.024  0.00  0.00    +0.000 A 
ATOM      6  C   UNL     1       2.864   4.536  18.391  0.00  0.00    +0.000 A 
ENDROOT
BRANCH   6   7
ATOM      7  C   UNL     1       2.526   5.972  18.676  0.00  0.00    +0.000 A 
ATOM      8  C   UNL     1       2.615   6.929  17.634  0.00  0.00    +0.000 A 
ATOM      9  C   UNL     1       2.351   8.286  17.842  0.00  0.00    +0.000 A 
ATOM     10  C   UNL     1       1.912   8.713  19.082  0.00  0.00    +0.000 A 
ATOM     11  F   UNL     1       1.635  10.008  19.278  0.00  0.00    +0.000 F 
ATOM     12  C   UNL     1       1.760   7.813  20.124  0.00  0.00    +0.000 A 
ATOM     13  C   UNL     1       2.092   6.464  19.935  0.00  0.00    +0.000 A 
ATOM     14 CL   UNL     1       1.984   5.478  21.359  0.00  0.00    +0.000 Cl
ENDBRANCH   6   7
BRANCH   1  19
ATOM     15  C   UNL     1       7.702   7.214  17.726  0.00  0.00    +0.000 C 
ATOM     16  C   UNL     1       6.931   6.192  18.453  0.00  0.00    +0.000 A 
ATOM     17  N   UNL     1       7.154   5.636  19.625  0.00  0.00    +0.000 NA
ATOM     18  N   UNL     1       6.138   4.729  19.808  0.00  0.00    +0.000 NA
ATOM     19  C   UNL     1       5.379   4.773  18.734  0.00  0.00    +0.000 A 
ATOM     20  O   UNL     1       5.809   5.713  17.835  0.00  0.00    +0.000 OA
ENDBRANCH   1  19
TORSDOF 2
ENDMDL
