MODEL 1
REMARK VINA RESULT:      -8.2      0.000      0.000
REMARK  Name = 
REMARK  8 active torsions:
REMARK  status: ('A' for Active; 'I' for Inactive)
REMARK    1  A    between atoms: C_1  and  O_2
REMARK    2  A    between atoms: O_2  and  C_3
REMARK    3  A    between atoms: C_6  and  C_7
REMARK    4  A    between atoms: C_8  and  C_9
REMARK    5  A    between atoms: C_9  and  N_10
REMARK    6  A    between atoms: N_10  and  C_11
REMARK    7  A    between atoms: N_10  and  C_12
REMARK    8  A    between atoms: C_12  and  C_13
REMARK                            x       y       z     vdW  Elec       q    Type
REMARK                         _______ _______ _______ _____ _____    ______ ____
ROOT
ATOM      1  C   UNL     1       7.250   6.867  17.239  0.00  0.00    +0.000 C 
ENDROOT
BRANCH   1   3
ATOM      2  C   UNL     1       8.450   8.623  18.581  0.00  0.00    +0.000 C 
ATOM      3  C   UNL     1       7.644   8.281  17.563  0.00  0.00    +0.000 C 
BRANCH   2   7
ATOM      4  C   UNL     1       9.907  12.617  19.141  0.00  0.00    +0.000 A 
ATOM      5  C   UNL     1       9.187  12.274  17.994  0.00  0.00    +0.000 A 
ATOM      6  C   UNL     1       8.734  10.962  17.803  0.00  0.00    +0.000 A 
ATOM      7  C   UNL     1       8.990   9.977  18.762  0.00  0.00    +0.000 A 
ATOM      8  C   UNL     1       9.668  10.338  19.933  0.00  0.00    +0.000 A 
ATOM      9  C   UNL     1      10.121  11.641  20.115  0.00  0.00    +0.000 A 
ATOM     10  F   UNL     1      10.741  11.929  21.269  0.00  0.00    +0.000 F 
BRANCH   4  12
ATOM     11  C   UNL     1      10.285  14.630  17.973  0.00  0.00    +0.000 C 
ATOM     12  O   UNL     1      10.303  13.925  19.212  0.00  0.00    +0.000 OA
ENDBRANCH   4  12
ENDBRANCH   2   7
ENDBRANCH   1   3
BRANCH   1  13
ATOM     13  N   UNL     1       5.905   6.832  16.635  0.00  0.00    +0.000 NA
ATOM     14  C   UNL     1       5.750   5.694  15.712  0.00  0.00    +0.000 C 
BRANCH  13  15
ATOM     15  C   UNL     1       4.851   6.733  17.660  0.00  0.00    +0.000 C 
BRANCH  15  16
ATOM     16  C   UNL     1       4.770   5.373  18.270  0.00  0.00    +0.000 A 
ATOM     17  C   UNL     1       5.730   4.761  19.053  0.00  0.00    +0.000 A 
ATOM     18  O   UNL     1       5.285   3.568  19.531  0.00  0.00    +0.000 OA
ATOM     19  C   UNL     1       4.023   3.397  19.055  0.00  0.00    +0.000 A 
ATOM     20  C   UNL     1       3.195   2.318  19.347  0.00  0.00    +0.000 A 
ATOM     21  C   UNL     1       1.923   2.330  18.767  0.00  0.00    +0.000 A 
ATOM     22  C   UNL     1       1.526   3.367  17.920  0.00  0.00    +0.000 A 
ATOM     23  C   UNL     1       2.387   4.444  17.647  0.00  0.00    +0.000 A 
ATOM     24  C   UNL     1       3.663   4.468  18.240  0.00  0.00    +0.000 A 
ENDBRANCH  15  16
ENDBRANCH  13  15
ENDBRANCH   1  13
TORSDOF 6
ENDMDL
MODEL 2
REMARK VINA RESULT:      -8.2      5.449      7.170
REMARK  Name = 
REMARK  8 active torsions:
REMARK  status: ('A' for Active; 'I' for Inactive)
REMARK    1  A    between atoms: C_1  and  O_2
REMARK    2  A    between atoms: O_2  and  C_3
REMARK    3  A    between atoms: C_6  and  C_7
REMARK    4  A    between atoms: C_8  and  C_9
REMARK    5  A    between atoms: C_9  and  N_10
REMARK    6  A    between atoms: N_10  and  C_11
REMARK    7  A    between atoms: N_10  and  C_12
REMARK    8  A    between atoms: C_12  and  C_13
REMARK                            x       y       z     vdW  Elec       q    Type
REMARK                         _______ _______ _______ _____ _____    ______ ____
ROOT
ATOM      1  C   UNL     1       3.076   4.245  17.414  0.00  0.00    +0.000 C 
ENDROOT
BRANCH   1   3
ATOM      2  C   UNL     1       2.972   6.616  18.246  0.00  0.00    +0.000 C 
ATOM      3  C   UNL     1       2.429   5.393  18.138  0.00  0.00    +0.000 C 
BRANCH   2   7
ATOM      4  C   UNL     1       0.736   9.960  19.732  0.00  0.00    +0.000 A 
ATOM      5  C   UNL     1       1.093   9.882  18.384  0.00  0.00    +0.000 A 
ATOM      6  C   UNL     1       1.844   8.800  17.907  0.00  0.00    +0.000 A 
ATOM      7  C   UNL     1       2.244   7.777  18.773  0.00  0.00    +0.000 A 
ATOM      8  C   UNL     1       1.841   7.836  20.113  0.00  0.00    +0.000 A 
ATOM      9  C   UNL     1       1.099   8.916  20.583  0.00  0.00    +0.000 A 
ATOM     10  F   UNL     1       0.723   8.899  21.870  0.00  0.00    +0.000 F 
BRANCH   4  12
ATOM     11  C   UNL     1       0.758  12.109  20.703  0.00  0.00    +0.000 C 
ATOM     12  O   UNL     1       0.010  11.067  20.080  0.00  0.00    +0.000 OA
ENDBRANCH   4  12
ENDBRANCH   2   7
ENDBRANCH   1   3
BRANCH   1  13
ATOM     13  N   UNL     1       4.519   4.195  17.712  0.00  0.00    +0.000 NA
ATOM     14  C   UNL     1       4.783   3.595  19.031  0.00  0.00    +0.000 C 
BRANCH  13  15
ATOM     15  C   UNL     1       5.256   3.415  16.702  0.00  0.00    +0.000 C 
BRANCH  15  16
ATOM     16  C   UNL     1       6.122   4.269  15.837  0.00  0.00    +0.000 A 
ATOM     17  C   UNL     1       6.980   5.266  16.258  0.00  0.00    +0.000 A 
ATOM     18  O   UNL     1       7.695   5.769  15.216  0.00  0.00    +0.000 OA
ATOM     19  C   UNL     1       7.299   5.096  14.103  0.00  0.00    +0.000 A 
ATOM     20  C   UNL     1       7.820   5.280  12.826  0.00  0.00    +0.000 A 
ATOM     21  C   UNL     1       7.288   4.480  11.811  0.00  0.00    +0.000 A 
ATOM     22  C   UNL     1       6.266   3.565  12.075  0.00  0.00    +0.000 A 
ATOM     23  C   UNL     1       5.762   3.403  13.378  0.00  0.00    +0.000 A 
ATOM     24  C   UNL     1       6.302   4.177  14.422  0.00  0.00    +0.000 A 
ENDBRANCH  15  16
ENDBRANCH  13  15
ENDBRANCH   1  13
TORSDOF 6
ENDMDL
MODEL 3
REMARK VINA RESULT:      -8.1      4.702      6.004
REMARK  Name = 
REMARK  8 active torsions:
REMARK  status: ('A' for Active; 'I' for Inactive)
REMARK    1  A    between atoms: C_1  and  O_2
REMARK    2  A    between atoms: O_2  and  C_3
REMARK    3  A    between atoms: C_6  and  C_7
REMARK    4  A    between atoms: C_8  and  C_9
REMARK    5  A    between atoms: C_9  and  N_10
REMARK    6  A    between atoms: N_10  and  C_11
REMARK    7  A    between atoms: N_10  and  C_12
REMARK    8  A    between atoms: C_12  and  C_13
REMARK                            x       y       z     vdW  Elec       q    Type
REMARK                         _______ _______ _______ _____ _____    ______ ____
ROOT
ATOM      1  C   UNL     1       4.857   6.081  16.632  0.00  0.00    +0.000 C 
ENDROOT
BRANCH   1   3
ATOM      2  C   UNL     1       2.852   7.356  17.459  0.00  0.00    +0.000 C 
ATOM      3  C   UNL     1       4.179   7.149  17.445  0.00  0.00    +0.000 C 
BRANCH   2   7
ATOM      4  C   UNL     1       0.794   9.959  20.175  0.00  0.00    +0.000 A 
ATOM      5  C   UNL     1       0.987  10.327  18.841  0.00  0.00    +0.000 A 
ATOM      6  C   UNL     1       1.681   9.485  17.963  0.00  0.00    +0.000 A 
ATOM      7  C   UNL     1       2.187   8.259  18.407  0.00  0.00    +0.000 A 
ATOM      8  C   UNL     1       1.947   7.873  19.732  0.00  0.00    +0.000 A 
ATOM      9  C   UNL     1       1.262   8.716  20.602  0.00  0.00    +0.000 A 
ATOM     10  F   UNL     1       1.043   8.277  21.850  0.00  0.00    +0.000 F 
BRANCH   4  12
ATOM     11  C   UNL     1       0.619  12.197  20.895  0.00  0.00    +0.000 C 
ATOM     12  O   UNL     1       0.110  10.867  20.937  0.00  0.00    +0.000 OA
ENDBRANCH   4  12
ENDBRANCH   2   7
ENDBRANCH   1   3
BRANCH   1  13
ATOM     13  N   UNL     1       5.981   5.496  17.385  0.00  0.00    +0.000 NA
ATOM     14  C   UNL     1       6.983   6.513  17.749  0.00  0.00    +0.000 C 
BRANCH  13  15
ATOM     15  C   UNL     1       5.523   4.845  18.625  0.00  0.00    +0.000 C 
BRANCH  15  16
ATOM     16  C   UNL     1       4.358   3.939  18.402  0.00  0.00    +0.000 A 
ATOM     17  C   UNL     1       4.280   2.905  17.489  0.00  0.00    +0.000 A 
ATOM     18  O   UNL     1       3.115   2.217  17.627  0.00  0.00    +0.000 OA
ATOM     19  C   UNL     1       2.424   2.808  18.638  0.00  0.00    +0.000 A 
ATOM     20  C   UNL     1       1.193   2.380  19.126  0.00  0.00    +0.000 A 
ATOM     21  C   UNL     1       0.647   3.116  20.181  0.00  0.00    +0.000 A 
ATOM     22  C   UNL     1       1.304   4.237  20.694  0.00  0.00    +0.000 A 
ATOM     23  C   UNL     1       2.547   4.642  20.179  0.00  0.00    +0.000 A 
ATOM     24  C   UNL     1       3.131   3.901  19.134  0.00  0.00    +0.000 A 
ENDBRANCH  15  16
ENDBRANCH  13  15
ENDBRANCH   1  13
TORSDOF 6
ENDMDL
MODEL 4
REMARK VINA RESULT:      -8.1      1.091      1.389
REMARK  Name = 
REMARK  8 active torsions:
REMARK  status: ('A' for Active; 'I' for Inactive)
REMARK    1  A    between atoms: C_1  and  O_2
REMARK    2  A    between atoms: O_2  and  C_3
REMARK    3  A    between atoms: C_6  and  C_7
REMARK    4  A    between atoms: C_8  and  C_9
REMARK    5  A    between atoms: C_9  and  N_10
REMARK    6  A    between atoms: N_10  and  C_11
REMARK    7  A    between atoms: N_10  and  C_12
REMARK    8  A    between atoms: C_12  and  C_13
REMARK                            x       y       z     vdW  Elec       q    Type
REMARK                         _______ _______ _______ _____ _____    ______ ____
ROOT
ATOM      1  C   UNL     1       7.367   6.992  17.252  0.00  0.00    +0.000 C 
ENDROOT
BRANCH   1   3
ATOM      2  C   UNL     1       8.611   8.756  18.543  0.00  0.00    +0.000 C 
ATOM      3  C   UNL     1       7.649   8.408  17.674  0.00  0.00    +0.000 C 
BRANCH   2   7
ATOM      4  C   UNL     1       9.652  12.851  19.279  0.00  0.00    +0.000 A 
ATOM      5  C   UNL     1       9.082  12.466  18.063  0.00  0.00    +0.000 A 
ATOM      6  C   UNL     1       8.765  11.124  17.817  0.00  0.00    +0.000 A 
ATOM      7  C   UNL     1       9.011  10.148  18.788  0.00  0.00    +0.000 A 
ATOM      8  C   UNL     1       9.537  10.546  20.023  0.00  0.00    +0.000 A 
ATOM      9  C   UNL     1       9.854  11.881  20.260  0.00  0.00    +0.000 A 
ATOM     10  F   UNL     1      10.331  12.200  21.473  0.00  0.00    +0.000 F 
BRANCH   4  12
ATOM     11  C   UNL     1       9.613  14.973  18.252  0.00  0.00    +0.000 C 
ATOM     12  O   UNL     1       9.925  14.187  19.399  0.00  0.00    +0.000 OA
ENDBRANCH   4  12
ENDBRANCH   2   7
ENDBRANCH   1   3
BRANCH   1  13
ATOM     13  N   UNL     1       5.943   6.669  17.454  0.00  0.00    +0.000 NA
ATOM     14  C   UNL     1       5.251   6.426  16.176  0.00  0.00    +0.000 C 
BRANCH  13  15
ATOM     15  C   UNL     1       5.771   5.473  18.298  0.00  0.00    +0.000 C 
BRANCH  15  16
ATOM     16  C   UNL     1       4.360   5.286  18.748  0.00  0.00    +0.000 A 
ATOM     17  C   UNL     1       3.543   6.242  19.318  0.00  0.00    +0.000 A 
ATOM     18  O   UNL     1       2.284   5.762  19.507  0.00  0.00    +0.000 OA
ATOM     19  C   UNL     1       2.280   4.478  19.057  0.00  0.00    +0.000 A 
ATOM     20  C   UNL     1       1.169   3.640  19.032  0.00  0.00    +0.000 A 
ATOM     21  C   UNL     1       1.365   2.355  18.519  0.00  0.00    +0.000 A 
ATOM     22  C   UNL     1       2.624   1.938  18.081  0.00  0.00    +0.000 A 
ATOM     23  C   UNL     1       3.726   2.810  18.120  0.00  0.00    +0.000 A 
ATOM     24  C   UNL     1       3.548   4.118  18.605  0.00  0.00    +0.000 A 
ENDBRANCH  15  16
ENDBRANCH  13  15
ENDBRANCH   1  13
TORSDOF 6
ENDMDL
MODEL 5
REMARK VINA RESULT:      -8.1      5.236      6.158
REMARK  Name = 
REMARK  8 active torsions:
REMARK  status: ('A' for Active; 'I' for Inactive)
REMARK    1  A    between atoms: C_1  and  O_2
REMARK    2  A    between atoms: O_2  and  C_3
REMARK    3  A    between atoms: C_6  and  C_7
REMARK    4  A    between atoms: C_8  and  C_9
REMARK    5  A    between atoms: C_9  and  N_10
REMARK    6  A    between atoms: N_10  and  C_11
REMARK    7  A    between atoms: N_10  and  C_12
REMARK    8  A    between atoms: C_12  and  C_13
REMARK                            x       y       z     vdW  Elec       q    Type
REMARK                         _______ _______ _______ _____ _____    ______ ____
ROOT
ATOM      1  C   UNL     1       5.565   6.321  16.805  0.00  0.00    +0.000 C 
ENDROOT
BRANCH   1   3
ATOM      2  C   UNL     1       3.341   6.954  17.795  0.00  0.00    +0.000 C 
ATOM      3  C   UNL     1       4.542   7.302  17.306  0.00  0.00    +0.000 C 
BRANCH   2   7
ATOM      4  C   UNL     1       0.606   9.653  19.699  0.00  0.00    +0.000 A 
ATOM      5  C   UNL     1       0.943   9.809  18.353  0.00  0.00    +0.000 A 
ATOM      6  C   UNL     1       1.855   8.940  17.741  0.00  0.00    +0.000 A 
ATOM      7  C   UNL     1       2.439   7.898  18.467  0.00  0.00    +0.000 A 
ATOM      8  C   UNL     1       2.060   7.715  19.803  0.00  0.00    +0.000 A 
ATOM      9  C   UNL     1       1.158   8.585  20.408  0.00  0.00    +0.000 A 
ATOM     10  F   UNL     1       0.817   8.340  21.682  0.00  0.00    +0.000 F 
BRANCH   4  12
ATOM     11  C   UNL     1       0.102  11.930  20.044  0.00  0.00    +0.000 C 
ATOM     12  O   UNL     1      -0.288  10.567  20.188  0.00  0.00    +0.000 OA
ENDBRANCH   4  12
ENDBRANCH   2   7
ENDBRANCH   1   3
BRANCH   1  13
ATOM     13  N   UNL     1       4.911   5.076  16.363  0.00  0.00    +0.000 NA
ATOM     14  C   UNL     1       5.492   4.570  15.107  0.00  0.00    +0.000 C 
BRANCH  13  15
ATOM     15  C   UNL     1       5.024   4.012  17.377  0.00  0.00    +0.000 C 
BRANCH  15  16
ATOM     16  C   UNL     1       3.700   3.439  17.758  0.00  0.00    +0.000 A 
ATOM     17  C   UNL     1       2.878   2.664  16.964  0.00  0.00    +0.000 A 
ATOM     18  O   UNL     1       1.798   2.220  17.662  0.00  0.00    +0.000 OA
ATOM     19  C   UNL     1       1.914   2.712  18.924  0.00  0.00    +0.000 A 
ATOM     20  C   UNL     1       1.033   2.456  19.970  0.00  0.00    +0.000 A 
ATOM     21  C   UNL     1       1.333   3.046  21.201  0.00  0.00    +0.000 A 
ATOM     22  C   UNL     1       2.451   3.869  21.353  0.00  0.00    +0.000 A 
ATOM     23  C   UNL     1       3.322   4.107  20.276  0.00  0.00    +0.000 A 
ATOM     24  C   UNL     1       3.057   3.502  19.033  0.00  0.00    +0.000 A 
ENDBRANCH  15  16
ENDBRANCH  13  15
ENDBRANCH   1  13
TORSDOF 6
ENDMDL
MODEL 6
REMARK VINA RESULT:      -8.1      4.235      7.180
REMARK  Name = 
REMARK  8 active torsions:
REMARK  status: ('A' for Active; 'I' for Inactive)
REMARK    1  A    between atoms: C_1  and  O_2
REMARK    2  A    between atoms: O_2  and  C_3
REMARK    3  A    between atoms: C_6  and  C_7
REMARK    4  A    between atoms: C_8  and  C_9
REMARK    5  A    between atoms: C_9  and  N_10
REMARK    6  A    between atoms: N_10  and  C_11
REMARK    7  A    between atoms: N_10  and  C_12
REMARK    8  A    between atoms: C_12  and  C_13
REMARK                            x       y       z     vdW  Elec       q    Type
REMARK                         _______ _______ _______ _____ _____    ______ ____
ROOT
ATOM      1  C   UNL     1       2.483   3.962  17.381  0.00  0.00    +0.000 C 
ENDROOT
BRANCH   1   3
ATOM      2  C   UNL     1       2.627   6.246  18.425  0.00  0.00    +0.000 C 
ATOM      3  C   UNL     1       1.963   5.097  18.218  0.00  0.00    +0.000 C 
BRANCH   2   7
ATOM      4  C   UNL     1       0.987   9.704  20.360  0.00  0.00    +0.000 A 
ATOM      5  C   UNL     1       1.240   8.534  21.081  0.00  0.00    +0.000 A 
ATOM      6  C   UNL     1       1.754   7.399  20.441  0.00  0.00    +0.000 A 
ATOM      7  C   UNL     1       2.026   7.420  19.069  0.00  0.00    +0.000 A 
ATOM      8  C   UNL     1       1.817   8.610  18.361  0.00  0.00    +0.000 A 
ATOM      9  C   UNL     1       1.301   9.734  19.001  0.00  0.00    +0.000 A 
ATOM     10  F   UNL     1       1.149  10.850  18.272  0.00  0.00    +0.000 F 
BRANCH   4  12
ATOM     11  C   UNL     1      -0.200  10.364  22.287  0.00  0.00    +0.000 C 
ATOM     12  O   UNL     1       0.479  10.742  21.092  0.00  0.00    +0.000 OA
ENDBRANCH   4  12
ENDBRANCH   2   7
ENDBRANCH   1   3
BRANCH   1  13
ATOM     13  N   UNL     1       3.780   3.492  17.899  0.00  0.00    +0.000 NA
ATOM     14  C   UNL     1       3.677   2.145  18.488  0.00  0.00    +0.000 C 
BRANCH  13  15
ATOM     15  C   UNL     1       4.805   3.448  16.841  0.00  0.00    +0.000 C 
BRANCH  15  16
ATOM     16  C   UNL     1       5.466   4.769  16.627  0.00  0.00    +0.000 A 
ATOM     17  C   UNL     1       5.187   5.678  15.625  0.00  0.00    +0.000 A 
ATOM     18  O   UNL     1       5.900   6.824  15.790  0.00  0.00    +0.000 OA
ATOM     19  C   UNL     1       6.654   6.663  16.910  0.00  0.00    +0.000 A 
ATOM     20  C   UNL     1       7.499   7.625  17.455  0.00  0.00    +0.000 A 
ATOM     21  C   UNL     1       8.182   7.271  18.621  0.00  0.00    +0.000 A 
ATOM     22  C   UNL     1       8.034   6.002  19.187  0.00  0.00    +0.000 A 
ATOM     23  C   UNL     1       7.171   5.053  18.612  0.00  0.00    +0.000 A 
ATOM     24  C   UNL     1       6.451   5.395  17.453  0.00  0.00    +0.000 A 
ENDBRANCH  15  16
ENDBRANCH  13  15
ENDBRANCH   1  13
TORSDOF 6
ENDMDL
MODEL 7
REMARK VINA RESULT:      -8.0      1.710      2.188
REMARK  Name = 
REMARK  8 active torsions:
REMARK  status: ('A' for Active; 'I' for Inactive)
REMARK    1  A    between atoms: C_1  and  O_2
REMARK    2  A    between atoms: O_2  and  C_3
REMARK    3  A    between atoms: C_6  and  C_7
REMARK    4  A    between atoms: C_8  and  C_9
REMARK    5  A    between atoms: C_9  and  N_10
REMARK    6  A    between atoms: N_10  and  C_11
REMARK    7  A    between atoms: N_10  and  C_12
REMARK    8  A    between atoms: C_12  and  C_13
REMARK                            x       y       z     vdW  Elec       q    Type
REMARK                         _______ _______ _______ _____ _____    ______ ____
ROOT
ATOM      1  C   UNL     1       7.122   6.748  17.492  0.00  0.00    +0.000 C 
ENDROOT
BRANCH   1   3
ATOM      2  C   UNL     1       8.099   9.065  17.564  0.00  0.00    +0.000 C 
ATOM      3  C   UNL     1       7.878   7.874  18.143  0.00  0.00    +0.000 C 
BRANCH   2   7
ATOM      4  C   UNL     1       9.839  12.404  19.618  0.00  0.00    +0.000 A 
ATOM      5  C   UNL     1       9.969  11.108  20.122  0.00  0.00    +0.000 A 
ATOM      6  C   UNL     1       9.379  10.023  19.462  0.00  0.00    +0.000 A 
ATOM      7  C   UNL     1       8.654  10.219  18.283  0.00  0.00    +0.000 A 
ATOM      8  C   UNL     1       8.568  11.514  17.754  0.00  0.00    +0.000 A 
ATOM      9  C   UNL     1       9.152  12.589  18.418  0.00  0.00    +0.000 A 
ATOM     10  F   UNL     1       9.056  13.799  17.846  0.00  0.00    +0.000 F 
BRANCH   4  12
ATOM     11  C   UNL     1      11.665  13.884  19.801  0.00  0.00    +0.000 C 
ATOM     12  O   UNL     1      10.451  13.381  20.354  0.00  0.00    +0.000 OA
ENDBRANCH   4  12
ENDBRANCH   2   7
ENDBRANCH   1   3
BRANCH   1  13
ATOM     13  N   UNL     1       6.909   5.649  18.451  0.00  0.00    +0.000 NA
ATOM     14  C   UNL     1       7.967   5.605  19.476  0.00  0.00    +0.000 C 
BRANCH  13  15
ATOM     15  C   UNL     1       5.613   5.773  19.142  0.00  0.00    +0.000 C 
BRANCH  15  16
ATOM     16  C   UNL     1       4.605   4.789  18.651  0.00  0.00    +0.000 A 
ATOM     17  C   UNL     1       4.759   3.903  17.602  0.00  0.00    +0.000 A 
ATOM     18  O   UNL     1       3.684   3.077  17.496  0.00  0.00    +0.000 OA
ATOM     19  C   UNL     1       2.817   3.428  18.483  0.00  0.00    +0.000 A 
ATOM     20  C   UNL     1       1.605   2.798  18.748  0.00  0.00    +0.000 A 
ATOM     21  C   UNL     1       0.858   3.300  19.816  0.00  0.00    +0.000 A 
ATOM     22  C   UNL     1       1.306   4.396  20.557  0.00  0.00    +0.000 A 
ATOM     23  C   UNL     1       2.536   5.010  20.264  0.00  0.00    +0.000 A 
ATOM     24  C   UNL     1       3.320   4.505  19.210  0.00  0.00    +0.000 A 
ENDBRANCH  15  16
ENDBRANCH  13  15
ENDBRANCH   1  13
TORSDOF 6
ENDMDL
MODEL 8
REMARK VINA RESULT:      -8.0      1.474      1.950
REMARK  Name = 
REMARK  8 active torsions:
REMARK  status: ('A' for Active; 'I' for Inactive)
REMARK    1  A    between atoms: C_1  and  O_2
REMARK    2  A    between atoms: O_2  and  C_3
REMARK    3  A    between atoms: C_6  and  C_7
REMARK    4  A    between atoms: C_8  and  C_9
REMARK    5  A    between atoms: C_9  and  N_10
REMARK    6  A    between atoms: N_10  and  C_11
REMARK    7  A    between atoms: N_10  and  C_12
REMARK    8  A    between atoms: C_12  and  C_13
REMARK                            x       y       z     vdW  Elec       q    Type
REMARK                         _______ _______ _______ _____ _____    ______ ____
ROOT
ATOM      1  C   UNL     1       7.468   7.002  17.218  0.00  0.00    +0.000 C 
ENDROOT
BRANCH   1   3
ATOM      2  C   UNL     1       8.579   8.750  18.645  0.00  0.00    +0.000 C 
ATOM      3  C   UNL     1       7.789   8.417  17.612  0.00  0.00    +0.000 C 
BRANCH   2   7
ATOM      4  C   UNL     1      10.074  12.703  19.373  0.00  0.00    +0.000 A 
ATOM      5  C   UNL     1       9.991  11.769  20.408  0.00  0.00    +0.000 A 
ATOM      6  C   UNL     1       9.480  10.486  20.172  0.00  0.00    +0.000 A 
ATOM      7  C   UNL     1       9.049  10.119  18.893  0.00  0.00    +0.000 A 
ATOM      8  C   UNL     1       9.180  11.042  17.849  0.00  0.00    +0.000 A 
ATOM      9  C   UNL     1       9.684  12.317  18.090  0.00  0.00    +0.000 A 
ATOM     10  F   UNL     1       9.809  13.145  17.042  0.00  0.00    +0.000 F 
BRANCH   4  12
ATOM     11  C   UNL     1       9.614  14.954  19.898  0.00  0.00    +0.000 C 
ATOM     12  O   UNL     1      10.582  13.923  19.727  0.00  0.00    +0.000 OA
ENDBRANCH   4  12
ENDBRANCH   2   7
ENDBRANCH   1   3
BRANCH   1  13
ATOM     13  N   UNL     1       6.047   6.706  17.473  0.00  0.00    +0.000 NA
ATOM     14  C   UNL     1       5.318   6.413  16.227  0.00  0.00    +0.000 C 
BRANCH  13  15
ATOM     15  C   UNL     1       5.886   5.553  18.376  0.00  0.00    +0.000 C 
BRANCH  15  16
ATOM     16  C   UNL     1       4.467   5.341  18.789  0.00  0.00    +0.000 A 
ATOM     17  C   UNL     1       3.641   6.261  19.403  0.00  0.00    +0.000 A 
ATOM     18  O   UNL     1       2.379   5.773  19.540  0.00  0.00    +0.000 OA
ATOM     19  C   UNL     1       2.380   4.520  19.011  0.00  0.00    +0.000 A 
ATOM     20  C   UNL     1       1.269   3.688  18.915  0.00  0.00    +0.000 A 
ATOM     21  C   UNL     1       1.473   2.437  18.327  0.00  0.00    +0.000 A 
ATOM     22  C   UNL     1       2.738   2.045  17.885  0.00  0.00    +0.000 A 
ATOM     23  C   UNL     1       3.841   2.910  17.997  0.00  0.00    +0.000 A 
ATOM     24  C   UNL     1       3.656   4.186  18.560  0.00  0.00    +0.000 A 
ENDBRANCH  15  16
ENDBRANCH  13  15
ENDBRANCH   1  13
TORSDOF 6
ENDMDL
MODEL 9
REMARK VINA RESULT:      -7.9      5.547      7.162
REMARK  Name = 
REMARK  8 active torsions:
REMARK  status: ('A' for Active; 'I' for Inactive)
REMARK    1  A    between atoms: C_1  and  O_2
REMARK    2  A    between atoms: O_2  and  C_3
REMARK    3  A    between atoms: C_6  and  C_7
REMARK    4  A    between atoms: C_8  and  C_9
REMARK    5  A    between atoms: C_9  and  N_10
REMARK    6  A    between atoms: N_10  and  C_11
REMARK    7  A    between atoms: N_10  and  C_12
REMARK    8  A    between atoms: C_12  and  C_13
REMARK                            x       y       z     vdW  Elec       q    Type
REMARK                         _______ _______ _______ _____ _____    ______ ____
ROOT
ATOM      1  C   UNL     1       4.198   3.824  19.055  0.00  0.00    +0.000 C 
ENDROOT
BRANCH   1   3
ATOM      2  C   UNL     1       3.434   6.163  19.579  0.00  0.00    +0.000 C 
ATOM      3  C   UNL     1       3.240   4.980  18.974  0.00  0.00    +0.000 C 
BRANCH   2   7
ATOM      4  C   UNL     1       0.912   9.538  18.777  0.00  0.00    +0.000 A 
ATOM      5  C   UNL     1       1.713   8.989  17.772  0.00  0.00    +0.000 A 
ATOM      6  C   UNL     1       2.554   7.902  18.044  0.00  0.00    +0.000 A 
ATOM      7  C   UNL     1       2.600   7.345  19.326  0.00  0.00    +0.000 A 
ATOM      8  C   UNL     1       1.758   7.866  20.316  0.00  0.00    +0.000 A 
ATOM      9  C   UNL     1       0.929   8.950  20.042  0.00  0.00    +0.000 A 
ATOM     10  F   UNL     1       0.129   9.385  21.027  0.00  0.00    +0.000 F 
BRANCH   4  12
ATOM     11  C   UNL     1      -1.211  10.283  18.074  0.00  0.00    +0.000 C 
ATOM     12  O   UNL     1       0.141  10.601  18.393  0.00  0.00    +0.000 OA
ENDBRANCH   4  12
ENDBRANCH   2   7
ENDBRANCH   1   3
BRANCH   1  13
ATOM     13  N   UNL     1       4.351   3.188  17.734  0.00  0.00    +0.000 NA
ATOM     14  C   UNL     1       3.490   2.001  17.596  0.00  0.00    +0.000 C 
BRANCH  13  15
ATOM     15  C   UNL     1       4.020   4.119  16.641  0.00  0.00    +0.000 C 
BRANCH  15  16
ATOM     16  C   UNL     1       5.232   4.627  15.933  0.00  0.00    +0.000 A 
ATOM     17  C   UNL     1       6.240   5.399  16.475  0.00  0.00    +0.000 A 
ATOM     18  O   UNL     1       7.245   5.592  15.579  0.00  0.00    +0.000 OA
ATOM     19  C   UNL     1       6.889   4.942  14.439  0.00  0.00    +0.000 A 
ATOM     20  C   UNL     1       7.665   4.857  13.287  0.00  0.00    +0.000 A 
ATOM     21  C   UNL     1       7.127   4.131  12.221  0.00  0.00    +0.000 A 
ATOM     22  C   UNL     1       5.862   3.546  12.313  0.00  0.00    +0.000 A 
ATOM     23  C   UNL     1       5.103   3.651  13.491  0.00  0.00    +0.000 A 
ATOM     24  C   UNL     1       5.635   4.353  14.588  0.00  0.00    +0.000 A 
ENDBRANCH  15  16
ENDBRANCH  13  15
ENDBRANCH   1  13
TORSDOF 6
ENDMDL
