MODEL 1
REMARK VINA RESULT:      -8.4      0.000      0.000
REMARK  Name = 
REMARK  9 active torsions:
REMARK  status: ('A' for Active; 'I' for Inactive)
REMARK    1  A    between atoms: C_1  and  C_2
REMARK    2  A    between atoms: N_10  and  C_11
REMARK    3  A    between atoms: C_11  and  C_12
REMARK    4  A    between atoms: C_12  and  C_13
REMARK    5  A    between atoms: C_14  and  C_15
REMARK    6  A    between atoms: C_20  and  C_21
REMARK    7  A    between atoms: C_21  and  C_22
REMARK    8  A    between atoms: C_22  and  C_23
REMARK    9  A    between atoms: C_22  and  C_24
REMARK                            x       y       z     vdW  Elec       q    Type
REMARK                         _______ _______ _______ _____ _____    ______ ____
ROOT
ATOM      1  C   UNL     1       2.331   8.114  18.981  0.00  0.00    +0.000 A 
ATOM      2  C   UNL     1       1.757   7.543  20.118  0.00  0.00    +0.000 A 
ATOM      3  C   UNL     1       0.939   8.138  21.208  0.00  0.00    +0.000 C 
ATOM      4  N   UNL     1       2.079   6.212  20.093  0.00  0.00    +0.000 N 
ATOM      5  C   UNL     1       2.906   5.941  19.036  0.00  0.00    +0.000 A 
ATOM      6  C   UNL     1       3.468   4.703  18.731  0.00  0.00    +0.000 A 
ATOM      7  C   UNL     1       4.291   4.659  17.607  0.00  0.00    +0.000 A 
ATOM      8  C   UNL     1       4.462   5.791  16.783  0.00  0.00    +0.000 A 
ATOM      9  C   UNL     1       3.855   7.016  17.134  0.00  0.00    +0.000 A 
ATOM     10  C   UNL     1       3.069   7.094  18.299  0.00  0.00    +0.000 A 
ATOM     11  C   UNL     1       3.169   3.539  19.630  0.00  0.00    +0.000 C 
ATOM     12  C   UNL     1       1.810   3.760  20.331  0.00  0.00    +0.000 C 
ATOM     13  C   UNL     1       1.700   5.144  21.007  0.00  0.00    +0.000 C 
ENDROOT
BRANCH   1  14
ATOM     14  C   UNL     1       2.224   9.542  18.543  0.00  0.00    +0.000 C 
BRANCH  14  15
ATOM     15  C   UNL     1       0.758   9.999  18.431  0.00  0.00    +0.000 C 
BRANCH  15  25
ATOM     16  C   UNL     1      -1.188  15.709  24.337  0.00  0.00    +0.000 C 
ATOM     17  C   UNL     1      -1.610  14.388  23.779  0.00  0.00    +0.000 A 
ATOM     18  C   UNL     1      -2.771  13.747  24.201  0.00  0.00    +0.000 A 
ATOM     19  C   UNL     1      -3.137  12.574  23.561  0.00  0.00    +0.000 A 
ATOM     20  N   UNL     1      -2.454  12.025  22.531  0.00  0.00    +0.000 NA
ATOM     21  C   UNL     1      -1.320  12.638  22.130  0.00  0.00    +0.000 A 
ATOM     22  N   UNL     1      -0.683  12.218  20.982  0.00  0.00    +0.000 N 
ATOM     23  C   UNL     1      -1.488  11.551  19.963  0.00  0.00    +0.000 C 
ATOM     24  C   UNL     1      -0.840  11.870  18.595  0.00  0.00    +0.000 C 
ATOM     25  N   UNL     1       0.585  11.465  18.467  0.00  0.00    +0.000 NA
ATOM     26  C   UNL     1       1.341  12.052  19.611  0.00  0.00    +0.000 C 
ATOM     27  C   UNL     1       0.723  11.820  21.017  0.00  0.00    +0.000 C 
ATOM     28  C   UNL     1      -0.868  13.800  22.754  0.00  0.00    +0.000 A 
ENDBRANCH  15  25
ENDBRANCH  14  15
ENDBRANCH   1  14
BRANCH   8  29
ATOM     29  C   UNL     1       5.268   5.686  15.507  0.00  0.00    +0.000 C 
BRANCH  29  30
ATOM     30  C   UNL     1       6.044   4.358  15.365  0.00  0.00    +0.000 C 
ATOM     31  C   UNL     1       6.213   3.937  13.902  0.00  0.00    +0.000 C 
ATOM     32  C   UNL     1       7.418   4.475  16.027  0.00  0.00    +0.000 C 
ENDBRANCH  29  30
ENDBRANCH   8  29
TORSDOF 5
ENDMDL
MODEL 2
REMARK VINA RESULT:      -8.1      1.509      1.751
REMARK  Name = 
REMARK  9 active torsions:
REMARK  status: ('A' for Active; 'I' for Inactive)
REMARK    1  A    between atoms: C_1  and  C_2
REMARK    2  A    between atoms: N_10  and  C_11
REMARK    3  A    between atoms: C_11  and  C_12
REMARK    4  A    between atoms: C_12  and  C_13
REMARK    5  A    between atoms: C_14  and  C_15
REMARK    6  A    between atoms: C_20  and  C_21
REMARK    7  A    between atoms: C_21  and  C_22
REMARK    8  A    between atoms: C_22  and  C_23
REMARK    9  A    between atoms: C_22  and  C_24
REMARK                            x       y       z     vdW  Elec       q    Type
REMARK                         _______ _______ _______ _____ _____    ______ ____
ROOT
ATOM      1  C   UNL     1       2.283   8.246  18.895  0.00  0.00    +0.000 A 
ATOM      2  C   UNL     1       1.704   7.688  20.036  0.00  0.00    +0.000 A 
ATOM      3  C   UNL     1       0.874   8.294  21.110  0.00  0.00    +0.000 C 
ATOM      4  N   UNL     1       2.035   6.359  20.034  0.00  0.00    +0.000 N 
ATOM      5  C   UNL     1       2.871   6.077  18.987  0.00  0.00    +0.000 A 
ATOM      6  C   UNL     1       3.443   4.839  18.706  0.00  0.00    +0.000 A 
ATOM      7  C   UNL     1       4.275   4.783  17.588  0.00  0.00    +0.000 A 
ATOM      8  C   UNL     1       4.445   5.903  16.749  0.00  0.00    +0.000 A 
ATOM      9  C   UNL     1       3.828   7.129  17.076  0.00  0.00    +0.000 A 
ATOM     10  C   UNL     1       3.033   7.219  18.234  0.00  0.00    +0.000 A 
ATOM     11  C   UNL     1       3.144   3.687  19.619  0.00  0.00    +0.000 C 
ATOM     12  C   UNL     1       1.779   3.910  20.308  0.00  0.00    +0.000 C 
ATOM     13  C   UNL     1       1.655   5.302  20.961  0.00  0.00    +0.000 C 
ENDROOT
BRANCH   1  14
ATOM     14  C   UNL     1       2.170   9.666  18.434  0.00  0.00    +0.000 C 
BRANCH  14  15
ATOM     15  C   UNL     1       0.737  10.208  18.591  0.00  0.00    +0.000 C 
BRANCH  15  25
ATOM     16  C   UNL     1      -4.560  15.187  22.883  0.00  0.00    +0.000 C 
ATOM     17  C   UNL     1      -4.518  14.121  21.835  0.00  0.00    +0.000 A 
ATOM     18  C   UNL     1      -5.657  13.730  21.137  0.00  0.00    +0.000 A 
ATOM     19  C   UNL     1      -5.511  12.806  20.116  0.00  0.00    +0.000 A 
ATOM     20  N   UNL     1      -4.326  12.279  19.733  0.00  0.00    +0.000 NA
ATOM     21  C   UNL     1      -3.222  12.646  20.418  0.00  0.00    +0.000 A 
ATOM     22  N   UNL     1      -1.976  12.272  19.962  0.00  0.00    +0.000 N 
ATOM     23  C   UNL     1      -1.827  12.001  18.535  0.00  0.00    +0.000 C 
ATOM     24  C   UNL     1      -0.373  12.366  18.156  0.00  0.00    +0.000 C 
ATOM     25  N   UNL     1       0.675  11.644  18.925  0.00  0.00    +0.000 NA
ATOM     26  C   UNL     1       0.398  11.830  20.378  0.00  0.00    +0.000 C 
ATOM     27  C   UNL     1      -1.059  11.535  20.830  0.00  0.00    +0.000 C 
ATOM     28  C   UNL     1      -3.299  13.541  21.484  0.00  0.00    +0.000 A 
ENDBRANCH  15  25
ENDBRANCH  14  15
ENDBRANCH   1  14
BRANCH   8  29
ATOM     29  C   UNL     1       5.262   5.784  15.480  0.00  0.00    +0.000 C 
BRANCH  29  30
ATOM     30  C   UNL     1       6.049   4.460  15.366  0.00  0.00    +0.000 C 
ATOM     31  C   UNL     1       6.255   4.030  13.910  0.00  0.00    +0.000 C 
ATOM     32  C   UNL     1       7.406   4.591  16.059  0.00  0.00    +0.000 C 
ENDBRANCH  29  30
ENDBRANCH   8  29
TORSDOF 5
ENDMDL
MODEL 3
REMARK VINA RESULT:      -8.0      1.424      1.772
REMARK  Name = 
REMARK  9 active torsions:
REMARK  status: ('A' for Active; 'I' for Inactive)
REMARK    1  A    between atoms: C_1  and  C_2
REMARK    2  A    between atoms: N_10  and  C_11
REMARK    3  A    between atoms: C_11  and  C_12
REMARK    4  A    between atoms: C_12  and  C_13
REMARK    5  A    between atoms: C_14  and  C_15
REMARK    6  A    between atoms: C_20  and  C_21
REMARK    7  A    between atoms: C_21  and  C_22
REMARK    8  A    between atoms: C_22  and  C_23
REMARK    9  A    between atoms: C_22  and  C_24
REMARK                            x       y       z     vdW  Elec       q    Type
REMARK                         _______ _______ _______ _____ _____    ______ ____
ROOT
ATOM      1  C   UNL     1       2.499   7.212  18.918  0.00  0.00    +0.000 A 
ATOM      2  C   UNL     1       1.981   6.776  20.139  0.00  0.00    +0.000 A 
ATOM      3  C   UNL     1       1.250   7.505  21.210  0.00  0.00    +0.000 C 
ATOM      4  N   UNL     1       2.263   5.440  20.230  0.00  0.00    +0.000 N 
ATOM      5  C   UNL     1       3.014   5.036  19.159  0.00  0.00    +0.000 A 
ATOM      6  C   UNL     1       3.520   3.755  18.949  0.00  0.00    +0.000 A 
ATOM      7  C   UNL     1       4.269   3.571  17.788  0.00  0.00    +0.000 A 
ATOM      8  C   UNL     1       4.420   4.608  16.844  0.00  0.00    +0.000 A 
ATOM      9  C   UNL     1       3.872   5.882  17.104  0.00  0.00    +0.000 A 
ATOM     10  C   UNL     1       3.163   6.103  18.300  0.00  0.00    +0.000 A 
ATOM     11  C   UNL     1       3.244   2.698  19.977  0.00  0.00    +0.000 C 
ATOM     12  C   UNL     1       1.939   3.035  20.732  0.00  0.00    +0.000 C 
ATOM     13  C   UNL     1       1.911   4.481  21.269  0.00  0.00    +0.000 C 
ENDROOT
BRANCH   1  14
ATOM     14  C   UNL     1       2.405   8.592  18.344  0.00  0.00    +0.000 C 
BRANCH  14  15
ATOM     15  C   UNL     1       1.104   9.300  18.764  0.00  0.00    +0.000 C 
BRANCH  15  25
ATOM     16  C   UNL     1      -3.442  14.985  23.041  0.00  0.00    +0.000 C 
ATOM     17  C   UNL     1      -3.525  13.997  21.922  0.00  0.00    +0.000 A 
ATOM     18  C   UNL     1      -4.658  13.885  21.121  0.00  0.00    +0.000 A 
ATOM     19  C   UNL     1      -4.614  13.012  20.047  0.00  0.00    +0.000 A 
ATOM     20  N   UNL     1      -3.529  12.280  19.707  0.00  0.00    +0.000 NA
ATOM     21  C   UNL     1      -2.434  12.376  20.492  0.00  0.00    +0.000 A 
ATOM     22  N   UNL     1      -1.253  11.785  20.095  0.00  0.00    +0.000 N 
ATOM     23  C   UNL     1      -1.044  11.574  18.666  0.00  0.00    +0.000 C 
ATOM     24  C   UNL     1       0.480  11.660  18.415  0.00  0.00    +0.000 C 
ATOM     25  N   UNL     1       1.299  10.697  19.199  0.00  0.00    +0.000 NA
ATOM     26  C   UNL     1       0.946  10.850  20.639  0.00  0.00    +0.000 C 
ATOM     27  C   UNL     1      -0.573  10.829  20.967  0.00  0.00    +0.000 C 
ATOM     28  C   UNL     1      -2.420  13.204  21.613  0.00  0.00    +0.000 A 
ENDBRANCH  15  25
ENDBRANCH  14  15
ENDBRANCH   1  14
BRANCH   8  29
ATOM     29  C   UNL     1       5.141   4.349  15.539  0.00  0.00    +0.000 C 
BRANCH  29  30
ATOM     30  C   UNL     1       6.476   5.115  15.400  0.00  0.00    +0.000 C 
ATOM     31  C   UNL     1       7.466   4.764  16.515  0.00  0.00    +0.000 C 
ATOM     32  C   UNL     1       7.111   4.825  14.039  0.00  0.00    +0.000 C 
ENDBRANCH  29  30
ENDBRANCH   8  29
TORSDOF 5
ENDMDL
MODEL 4
REMARK VINA RESULT:      -8.0      2.717      3.525
REMARK  Name = 
REMARK  9 active torsions:
REMARK  status: ('A' for Active; 'I' for Inactive)
REMARK    1  A    between atoms: C_1  and  C_2
REMARK    2  A    between atoms: N_10  and  C_11
REMARK    3  A    between atoms: C_11  and  C_12
REMARK    4  A    between atoms: C_12  and  C_13
REMARK    5  A    between atoms: C_14  and  C_15
REMARK    6  A    between atoms: C_20  and  C_21
REMARK    7  A    between atoms: C_21  and  C_22
REMARK    8  A    between atoms: C_22  and  C_23
REMARK    9  A    between atoms: C_22  and  C_24
REMARK                            x       y       z     vdW  Elec       q    Type
REMARK                         _______ _______ _______ _____ _____    ______ ____
ROOT
ATOM      1  C   UNL     1       1.954   8.162  19.144  0.00  0.00    +0.000 A 
ATOM      2  C   UNL     1       1.484   7.537  20.301  0.00  0.00    +0.000 A 
ATOM      3  C   UNL     1       0.610   8.034  21.396  0.00  0.00    +0.000 C 
ATOM      4  N   UNL     1       1.987   6.264  20.290  0.00  0.00    +0.000 N 
ATOM      5  C   UNL     1       2.826   6.091  19.222  0.00  0.00    +0.000 A 
ATOM      6  C   UNL     1       3.548   4.937  18.926  0.00  0.00    +0.000 A 
ATOM      7  C   UNL     1       4.350   4.987  17.787  0.00  0.00    +0.000 A 
ATOM      8  C   UNL     1       4.349   6.116  16.943  0.00  0.00    +0.000 A 
ATOM      9  C   UNL     1       3.585   7.251  17.286  0.00  0.00    +0.000 A 
ATOM     10  C   UNL     1       2.816   7.241  18.464  0.00  0.00    +0.000 A 
ATOM     11  C   UNL     1       3.428   3.759  19.849  0.00  0.00    +0.000 C 
ATOM     12  C   UNL     1       2.063   3.803  20.572  0.00  0.00    +0.000 C 
ATOM     13  C   UNL     1       1.775   5.170  21.228  0.00  0.00    +0.000 C 
ENDROOT
BRANCH   1  14
ATOM     14  C   UNL     1       1.644   9.554  18.686  0.00  0.00    +0.000 C 
BRANCH  14  15
ATOM     15  C   UNL     1       0.150   9.891  18.850  0.00  0.00    +0.000 C 
BRANCH  15  25
ATOM     16  C   UNL     1      -7.016  14.120  17.425  0.00  0.00    +0.000 C 
ATOM     17  C   UNL     1      -6.488  12.819  17.938  0.00  0.00    +0.000 A 
ATOM     18  C   UNL     1      -7.329  11.764  18.277  0.00  0.00    +0.000 A 
ATOM     19  C   UNL     1      -6.751  10.563  18.652  0.00  0.00    +0.000 A 
ATOM     20  N   UNL     1      -5.418  10.338  18.682  0.00  0.00    +0.000 NA
ATOM     21  C   UNL     1      -4.599  11.365  18.368  0.00  0.00    +0.000 A 
ATOM     22  N   UNL     1      -3.247  11.142  18.219  0.00  0.00    +0.000 N 
ATOM     23  C   UNL     1      -2.815   9.797  17.853  0.00  0.00    +0.000 C 
ATOM     24  C   UNL     1      -1.513   9.949  17.031  0.00  0.00    +0.000 C 
ATOM     25  N   UNL     1      -0.413  10.667  17.728  0.00  0.00    +0.000 NA
ATOM     26  C   UNL     1      -0.942  11.975  18.211  0.00  0.00    +0.000 C 
ATOM     27  C   UNL     1      -2.278  11.911  19.000  0.00  0.00    +0.000 C 
ATOM     28  C   UNL     1      -5.110  12.615  18.021  0.00  0.00    +0.000 A 
ENDBRANCH  15  25
ENDBRANCH  14  15
ENDBRANCH   1  14
BRANCH   8  29
ATOM     29  C   UNL     1       5.141   6.100  15.653  0.00  0.00    +0.000 C 
BRANCH  29  30
ATOM     30  C   UNL     1       5.813   4.743  15.349  0.00  0.00    +0.000 C 
ATOM     31  C   UNL     1       5.664   4.338  13.879  0.00  0.00    +0.000 C 
ATOM     32  C   UNL     1       7.296   4.794  15.720  0.00  0.00    +0.000 C 
ENDBRANCH  29  30
ENDBRANCH   8  29
TORSDOF 5
ENDMDL
MODEL 5
REMARK VINA RESULT:      -7.9      2.307      3.124
REMARK  Name = 
REMARK  9 active torsions:
REMARK  status: ('A' for Active; 'I' for Inactive)
REMARK    1  A    between atoms: C_1  and  C_2
REMARK    2  A    between atoms: N_10  and  C_11
REMARK    3  A    between atoms: C_11  and  C_12
REMARK    4  A    between atoms: C_12  and  C_13
REMARK    5  A    between atoms: C_14  and  C_15
REMARK    6  A    between atoms: C_20  and  C_21
REMARK    7  A    between atoms: C_21  and  C_22
REMARK    8  A    between atoms: C_22  and  C_23
REMARK    9  A    between atoms: C_22  and  C_24
REMARK                            x       y       z     vdW  Elec       q    Type
REMARK                         _______ _______ _______ _____ _____    ______ ____
ROOT
ATOM      1  C   UNL     1       2.279   8.156  18.942  0.00  0.00    +0.000 A 
ATOM      2  C   UNL     1       1.753   7.509  20.063  0.00  0.00    +0.000 A 
ATOM      3  C   UNL     1       0.921   8.014  21.186  0.00  0.00    +0.000 C 
ATOM      4  N   UNL     1       2.147   6.200  19.979  0.00  0.00    +0.000 N 
ATOM      5  C   UNL     1       2.972   6.017  18.901  0.00  0.00    +0.000 A 
ATOM      6  C   UNL     1       3.595   4.825  18.540  0.00  0.00    +0.000 A 
ATOM      7  C   UNL     1       4.402   4.871  17.404  0.00  0.00    +0.000 A 
ATOM      8  C   UNL     1       4.498   6.042  16.625  0.00  0.00    +0.000 A 
ATOM      9  C   UNL     1       3.832   7.217  17.032  0.00  0.00    +0.000 A 
ATOM     10  C   UNL     1       3.061   7.205  18.210  0.00  0.00    +0.000 A 
ATOM     11  C   UNL     1       3.372   3.611  19.394  0.00  0.00    +0.000 C 
ATOM     12  C   UNL     1       2.014   3.730  20.121  0.00  0.00    +0.000 C 
ATOM     13  C   UNL     1       1.840   5.077  20.854  0.00  0.00    +0.000 C 
ENDROOT
BRANCH   1  14
ATOM     14  C   UNL     1       2.088   9.592  18.564  0.00  0.00    +0.000 C 
BRANCH  14  15
ATOM     15  C   UNL     1       0.604   9.932  18.333  0.00  0.00    +0.000 C 
BRANCH  15  25
ATOM     16  C   UNL     1      -1.339  18.035  19.695  0.00  0.00    +0.000 C 
ATOM     17  C   UNL     1      -0.237  17.141  19.222  0.00  0.00    +0.000 A 
ATOM     18  C   UNL     1       1.034  17.629  18.933  0.00  0.00    +0.000 A 
ATOM     19  C   UNL     1       2.020  16.718  18.595  0.00  0.00    +0.000 A 
ATOM     20  N   UNL     1       1.837  15.379  18.556  0.00  0.00    +0.000 NA
ATOM     21  C   UNL     1       0.601  14.904  18.822  0.00  0.00    +0.000 A 
ATOM     22  N   UNL     1       0.403  13.547  18.961  0.00  0.00    +0.000 N 
ATOM     23  C   UNL     1       1.542  12.732  19.371  0.00  0.00    +0.000 C 
ATOM     24  C   UNL     1       0.977  11.535  20.170  0.00  0.00    +0.000 C 
ATOM     25  N   UNL     1      -0.010  10.700  19.434  0.00  0.00    +0.000 NA
ATOM     26  C   UNL     1      -1.080  11.597  18.910  0.00  0.00    +0.000 C 
ATOM     27  C   UNL     1      -0.590  12.855  18.141  0.00  0.00    +0.000 C 
ATOM     28  C   UNL     1      -0.452  15.765  19.130  0.00  0.00    +0.000 A 
ENDBRANCH  15  25
ENDBRANCH  14  15
ENDBRANCH   1  14
BRANCH   8  29
ATOM     29  C   UNL     1       5.290   6.032  15.335  0.00  0.00    +0.000 C 
BRANCH  29  30
ATOM     30  C   UNL     1       5.954   4.673  15.019  0.00  0.00    +0.000 C 
ATOM     31  C   UNL     1       5.317   3.984  13.808  0.00  0.00    +0.000 C 
ATOM     32  C   UNL     1       7.452   4.862  14.773  0.00  0.00    +0.000 C 
ENDBRANCH  29  30
ENDBRANCH   8  29
TORSDOF 5
ENDMDL
MODEL 6
REMARK VINA RESULT:      -7.9      2.461      3.102
REMARK  Name = 
REMARK  9 active torsions:
REMARK  status: ('A' for Active; 'I' for Inactive)
REMARK    1  A    between atoms: C_1  and  C_2
REMARK    2  A    between atoms: N_10  and  C_11
REMARK    3  A    between atoms: C_11  and  C_12
REMARK    4  A    between atoms: C_12  and  C_13
REMARK    5  A    between atoms: C_14  and  C_15
REMARK    6  A    between atoms: C_20  and  C_21
REMARK    7  A    between atoms: C_21  and  C_22
REMARK    8  A    between atoms: C_22  and  C_23
REMARK    9  A    between atoms: C_22  and  C_24
REMARK                            x       y       z     vdW  Elec       q    Type
REMARK                         _______ _______ _______ _____ _____    ______ ____
ROOT
ATOM      1  C   UNL     1       2.465   7.272  18.958  0.00  0.00    +0.000 A 
ATOM      2  C   UNL     1       1.842   6.785  20.109  0.00  0.00    +0.000 A 
ATOM      3  C   UNL     1       1.103   7.483  21.193  0.00  0.00    +0.000 C 
ATOM      4  N   UNL     1       2.019   5.427  20.105  0.00  0.00    +0.000 N 
ATOM      5  C   UNL     1       2.802   5.050  19.047  0.00  0.00    +0.000 A 
ATOM      6  C   UNL     1       3.224   3.753  18.761  0.00  0.00    +0.000 A 
ATOM      7  C   UNL     1       4.028   3.602  17.632  0.00  0.00    +0.000 A 
ATOM      8  C   UNL     1       4.312   4.694  16.787  0.00  0.00    +0.000 A 
ATOM      9  C   UNL     1       3.845   5.983  17.120  0.00  0.00    +0.000 A 
ATOM     10  C   UNL     1       3.082   6.165  18.289  0.00  0.00    +0.000 A 
ATOM     11  C   UNL     1       2.808   2.644  19.682  0.00  0.00    +0.000 C 
ATOM     12  C   UNL     1       1.487   3.023  20.389  0.00  0.00    +0.000 C 
ATOM     13  C   UNL     1       1.534   4.421  21.040  0.00  0.00    +0.000 C 
ENDROOT
BRANCH   1  14
ATOM     14  C   UNL     1       2.509   8.695  18.495  0.00  0.00    +0.000 C 
BRANCH  14  15
ATOM     15  C   UNL     1       1.110   9.220  18.122  0.00  0.00    +0.000 C 
BRANCH  15  25
ATOM     16  C   UNL     1      -1.660  17.039  19.689  0.00  0.00    +0.000 C 
ATOM     17  C   UNL     1      -0.467  16.277  19.209  0.00  0.00    +0.000 A 
ATOM     18  C   UNL     1       0.752  16.898  18.954  0.00  0.00    +0.000 A 
ATOM     19  C   UNL     1       1.830  16.102  18.606  0.00  0.00    +0.000 A 
ATOM     20  N   UNL     1       1.783  14.754  18.524  0.00  0.00    +0.000 NA
ATOM     21  C   UNL     1       0.598  14.149  18.756  0.00  0.00    +0.000 A 
ATOM     22  N   UNL     1       0.537  12.775  18.852  0.00  0.00    +0.000 N 
ATOM     23  C   UNL     1       1.747  12.067  19.256  0.00  0.00    +0.000 C 
ATOM     24  C   UNL     1       1.295  10.794  20.010  0.00  0.00    +0.000 C 
ATOM     25  N   UNL     1       0.407   9.888  19.234  0.00  0.00    +0.000 NA
ATOM     26  C   UNL     1      -0.741  10.688  18.720  0.00  0.00    +0.000 C 
ATOM     27  C   UNL     1      -0.370  12.012  17.996  0.00  0.00    +0.000 C 
ATOM     28  C   UNL     1      -0.540  14.890  19.072  0.00  0.00    +0.000 A 
ENDBRANCH  15  25
ENDBRANCH  14  15
ENDBRANCH   1  14
BRANCH   8  29
ATOM     29  C   UNL     1       5.092   4.481  15.507  0.00  0.00    +0.000 C 
BRANCH  29  30
ATOM     30  C   UNL     1       6.477   5.165  15.498  0.00  0.00    +0.000 C 
ATOM     31  C   UNL     1       7.378   4.667  16.632  0.00  0.00    +0.000 C 
ATOM     32  C   UNL     1       7.170   4.935  14.154  0.00  0.00    +0.000 C 
ENDBRANCH  29  30
ENDBRANCH   8  29
TORSDOF 5
ENDMDL
MODEL 7
REMARK VINA RESULT:      -7.9      1.249      1.608
REMARK  Name = 
REMARK  9 active torsions:
REMARK  status: ('A' for Active; 'I' for Inactive)
REMARK    1  A    between atoms: C_1  and  C_2
REMARK    2  A    between atoms: N_10  and  C_11
REMARK    3  A    between atoms: C_11  and  C_12
REMARK    4  A    between atoms: C_12  and  C_13
REMARK    5  A    between atoms: C_14  and  C_15
REMARK    6  A    between atoms: C_20  and  C_21
REMARK    7  A    between atoms: C_21  and  C_22
REMARK    8  A    between atoms: C_22  and  C_23
REMARK    9  A    between atoms: C_22  and  C_24
REMARK                            x       y       z     vdW  Elec       q    Type
REMARK                         _______ _______ _______ _____ _____    ______ ____
ROOT
ATOM      1  C   UNL     1       2.639   6.888  18.691  0.00  0.00    +0.000 A 
ATOM      2  C   UNL     1       2.132   6.613  19.962  0.00  0.00    +0.000 A 
ATOM      3  C   UNL     1       1.401   7.470  20.932  0.00  0.00    +0.000 C 
ATOM      4  N   UNL     1       2.428   5.303  20.227  0.00  0.00    +0.000 N 
ATOM      5  C   UNL     1       3.177   4.768  19.213  0.00  0.00    +0.000 A 
ATOM      6  C   UNL     1       3.694   3.475  19.170  0.00  0.00    +0.000 A 
ATOM      7  C   UNL     1       4.438   3.146  18.038  0.00  0.00    +0.000 A 
ATOM      8  C   UNL     1       4.574   4.051  16.965  0.00  0.00    +0.000 A 
ATOM      9  C   UNL     1       4.015   5.343  17.059  0.00  0.00    +0.000 A 
ATOM     10  C   UNL     1       3.311   5.713  18.220  0.00  0.00    +0.000 A 
ATOM     11  C   UNL     1       3.434   2.560  20.331  0.00  0.00    +0.000 C 
ATOM     12  C   UNL     1       2.130   2.982  21.044  0.00  0.00    +0.000 C 
ATOM     13  C   UNL     1       2.092   4.486  21.385  0.00  0.00    +0.000 C 
ENDROOT
BRANCH   1  14
ATOM     14  C   UNL     1       2.529   8.179  17.941  0.00  0.00    +0.000 C 
BRANCH  14  15
ATOM     15  C   UNL     1       2.048   9.329  18.846  0.00  0.00    +0.000 C 
BRANCH  15  25
ATOM     16  C   UNL     1      -2.471  16.085  21.126  0.00  0.00    +0.000 C 
ATOM     17  C   UNL     1      -2.232  14.648  21.462  0.00  0.00    +0.000 A 
ATOM     18  C   UNL     1      -2.994  13.978  22.415  0.00  0.00    +0.000 A 
ATOM     19  C   UNL     1      -2.770  12.623  22.594  0.00  0.00    +0.000 A 
ATOM     20  N   UNL     1      -1.877  11.901  21.882  0.00  0.00    +0.000 NA
ATOM     21  C   UNL     1      -1.126  12.551  20.967  0.00  0.00    +0.000 A 
ATOM     22  N   UNL     1      -0.328  11.835  20.101  0.00  0.00    +0.000 N 
ATOM     23  C   UNL     1      -0.709  10.458  19.805  0.00  0.00    +0.000 C 
ATOM     24  C   UNL     1      -0.226  10.153  18.368  0.00  0.00    +0.000 C 
ATOM     25  N   UNL     1       1.233  10.339  18.145  0.00  0.00    +0.000 NA
ATOM     26  C   UNL     1       1.602  11.712  18.595  0.00  0.00    +0.000 C 
ATOM     27  C   UNL     1       1.105  12.113  20.011  0.00  0.00    +0.000 C 
ATOM     28  C   UNL     1      -1.269  13.923  20.761  0.00  0.00    +0.000 A 
ENDBRANCH  15  25
ENDBRANCH  14  15
ENDBRANCH   1  14
BRANCH   8  29
ATOM     29  C   UNL     1       5.290   3.628  15.701  0.00  0.00    +0.000 C 
BRANCH  29  30
ATOM     30  C   UNL     1       6.134   4.750  15.056  0.00  0.00    +0.000 C 
ATOM     31  C   UNL     1       7.352   5.122  15.905  0.00  0.00    +0.000 C 
ATOM     32  C   UNL     1       6.591   4.329  13.658  0.00  0.00    +0.000 C 
ENDBRANCH  29  30
ENDBRANCH   8  29
TORSDOF 5
ENDMDL
MODEL 8
REMARK VINA RESULT:      -7.9      2.894      9.318
REMARK  Name = 
REMARK  9 active torsions:
REMARK  status: ('A' for Active; 'I' for Inactive)
REMARK    1  A    between atoms: C_1  and  C_2
REMARK    2  A    between atoms: N_10  and  C_11
REMARK    3  A    between atoms: C_11  and  C_12
REMARK    4  A    between atoms: C_12  and  C_13
REMARK    5  A    between atoms: C_14  and  C_15
REMARK    6  A    between atoms: C_20  and  C_21
REMARK    7  A    between atoms: C_21  and  C_22
REMARK    8  A    between atoms: C_22  and  C_23
REMARK    9  A    between atoms: C_22  and  C_24
REMARK                            x       y       z     vdW  Elec       q    Type
REMARK                         _______ _______ _______ _____ _____    ______ ____
ROOT
ATOM      1  C   UNL     1      -3.128  12.656  21.045  0.00  0.00    +0.000 A 
ATOM      2  C   UNL     1      -4.000  12.860  22.116  0.00  0.00    +0.000 A 
ATOM      3  C   UNL     1      -3.740  13.213  23.537  0.00  0.00    +0.000 C 
ATOM      4  N   UNL     1      -5.266  12.676  21.631  0.00  0.00    +0.000 N 
ATOM      5  C   UNL     1      -5.223  12.277  20.321  0.00  0.00    +0.000 A 
ATOM      6  C   UNL     1      -6.321  11.955  19.527  0.00  0.00    +0.000 A 
ATOM      7  C   UNL     1      -6.041  11.563  18.218  0.00  0.00    +0.000 A 
ATOM      8  C   UNL     1      -4.724  11.586  17.716  0.00  0.00    +0.000 A 
ATOM      9  C   UNL     1      -3.652  11.936  18.564  0.00  0.00    +0.000 A 
ATOM     10  C   UNL     1      -3.910  12.276  19.906  0.00  0.00    +0.000 A 
ATOM     11  C   UNL     1      -7.692  12.031  20.132  0.00  0.00    +0.000 C 
ATOM     12  C   UNL     1      -7.692  13.052  21.291  0.00  0.00    +0.000 C 
ATOM     13  C   UNL     1      -6.551  12.814  22.303  0.00  0.00    +0.000 C 
ENDROOT
BRANCH   1  14
ATOM     14  C   UNL     1      -1.636  12.784  21.064  0.00  0.00    +0.000 C 
BRANCH  14  15
ATOM     15  C   UNL     1      -0.941  11.441  20.775  0.00  0.00    +0.000 C 
BRANCH  15  25
ATOM     16  C   UNL     1       4.791   6.738  16.738  0.00  0.00    +0.000 C 
ATOM     17  C   UNL     1       3.715   6.669  17.773  0.00  0.00    +0.000 A 
ATOM     18  C   UNL     1       3.475   5.512  18.510  0.00  0.00    +0.000 A 
ATOM     19  C   UNL     1       2.524   5.565  19.515  0.00  0.00    +0.000 A 
ATOM     20  N   UNL     1       1.831   6.678  19.848  0.00  0.00    +0.000 NA
ATOM     21  C   UNL     1       2.052   7.797  19.124  0.00  0.00    +0.000 A 
ATOM     22  N   UNL     1       1.501   8.994  19.529  0.00  0.00    +0.000 N 
ATOM     23  C   UNL     1       1.190   9.156  20.946  0.00  0.00    +0.000 C 
ATOM     24  C   UNL     1       1.343  10.659  21.274  0.00  0.00    +0.000 C 
ATOM     25  N   UNL     1       0.494  11.568  20.458  0.00  0.00    +0.000 NA
ATOM     26  C   UNL     1       0.739  11.266  19.018  0.00  0.00    +0.000 C 
ATOM     27  C   UNL     1       0.657   9.767  18.619  0.00  0.00    +0.000 C 
ATOM     28  C   UNL     1       2.965   7.807  18.071  0.00  0.00    +0.000 A 
ENDBRANCH  15  25
ENDBRANCH  14  15
ENDBRANCH   1  14
BRANCH   8  29
ATOM     29  C   UNL     1      -4.460  11.266  16.260  0.00  0.00    +0.000 C 
BRANCH  29  30
ATOM     30  C   UNL     1      -3.049  10.698  15.991  0.00  0.00    +0.000 C 
ATOM     31  C   UNL     1      -2.687   9.563  16.953  0.00  0.00    +0.000 C 
ATOM     32  C   UNL     1      -2.948  10.200  14.548  0.00  0.00    +0.000 C 
ENDBRANCH  29  30
ENDBRANCH   8  29
TORSDOF 5
ENDMDL
MODEL 9
REMARK VINA RESULT:      -7.8      2.454     10.264
REMARK  Name = 
REMARK  9 active torsions:
REMARK  status: ('A' for Active; 'I' for Inactive)
REMARK    1  A    between atoms: C_1  and  C_2
REMARK    2  A    between atoms: N_10  and  C_11
REMARK    3  A    between atoms: C_11  and  C_12
REMARK    4  A    between atoms: C_12  and  C_13
REMARK    5  A    between atoms: C_14  and  C_15
REMARK    6  A    between atoms: C_20  and  C_21
REMARK    7  A    between atoms: C_21  and  C_22
REMARK    8  A    between atoms: C_22  and  C_23
REMARK    9  A    between atoms: C_22  and  C_24
REMARK                            x       y       z     vdW  Elec       q    Type
REMARK                         _______ _______ _______ _____ _____    ______ ____
ROOT
ATOM      1  C   UNL     1      -2.097  11.193  18.247  0.00  0.00    +0.000 A 
ATOM      2  C   UNL     1      -3.080  11.083  17.262  0.00  0.00    +0.000 A 
ATOM      3  C   UNL     1      -3.032  10.516  15.888  0.00  0.00    +0.000 C 
ATOM      4  N   UNL     1      -4.222  11.625  17.787  0.00  0.00    +0.000 N 
ATOM      5  C   UNL     1      -3.976  12.150  19.027  0.00  0.00    +0.000 A 
ATOM      6  C   UNL     1      -4.896  12.819  19.831  0.00  0.00    +0.000 A 
ATOM      7  C   UNL     1      -4.422  13.280  21.059  0.00  0.00    +0.000 A 
ATOM      8  C   UNL     1      -3.109  12.996  21.486  0.00  0.00    +0.000 A 
ATOM      9  C   UNL     1      -2.225  12.300  20.635  0.00  0.00    +0.000 A 
ATOM     10  C   UNL     1      -2.669  11.880  19.367  0.00  0.00    +0.000 A 
ATOM     11  C   UNL     1      -6.293  13.009  19.317  0.00  0.00    +0.000 C 
ATOM     12  C   UNL     1      -6.631  11.891  18.305  0.00  0.00    +0.000 C 
ATOM     13  C   UNL     1      -5.556  11.726  17.210  0.00  0.00    +0.000 C 
ENDROOT
BRANCH   1  14
ATOM     14  C   UNL     1      -0.684  10.704  18.164  0.00  0.00    +0.000 C 
BRANCH  14  15
ATOM     15  C   UNL     1      -0.292   9.870  19.397  0.00  0.00    +0.000 C 
BRANCH  15  25
ATOM     16  C   UNL     1       6.371   4.807  18.277  0.00  0.00    +0.000 C 
ATOM     17  C   UNL     1       4.952   4.816  18.751  0.00  0.00    +0.000 A 
ATOM     18  C   UNL     1       4.362   3.696  19.329  0.00  0.00    +0.000 A 
ATOM     19  C   UNL     1       3.076   3.821  19.828  0.00  0.00    +0.000 A 
ATOM     20  N   UNL     1       2.365   4.971  19.816  0.00  0.00    +0.000 NA
ATOM     21  C   UNL     1       2.930   6.055  19.242  0.00  0.00    +0.000 A 
ATOM     22  N   UNL     1       2.321   7.286  19.354  0.00  0.00    +0.000 N 
ATOM     23  C   UNL     1       1.442   7.508  20.498  0.00  0.00    +0.000 C 
ATOM     24  C   UNL     1       1.516   9.015  20.839  0.00  0.00    +0.000 C 
ATOM     25  N   UNL     1       1.146   9.928  19.725  0.00  0.00    +0.000 NA
ATOM     26  C   UNL     1       1.968   9.568  18.534  0.00  0.00    +0.000 C 
ATOM     27  C   UNL     1       1.988   8.061  18.160  0.00  0.00    +0.000 C 
ATOM     28  C   UNL     1       4.206   5.993  18.682  0.00  0.00    +0.000 A 
ENDBRANCH  15  25
ENDBRANCH  14  15
ENDBRANCH   1  14
BRANCH   8  29
ATOM     29  C   UNL     1      -2.655  13.409  22.870  0.00  0.00    +0.000 C 
BRANCH  29  30
ATOM     30  C   UNL     1      -3.816  13.724  23.840  0.00  0.00    +0.000 C 
ATOM     31  C   UNL     1      -4.275  12.487  24.618  0.00  0.00    +0.000 C 
ATOM     32  C   UNL     1      -3.400  14.822  24.821  0.00  0.00    +0.000 C 
ENDBRANCH  29  30
ENDBRANCH   8  29
TORSDOF 5
ENDMDL
