MODEL 1
REMARK VINA RESULT:      -8.7      0.000      0.000
REMARK  Name = 
REMARK  4 active torsions:
REMARK  status: ('A' for Active; 'I' for Inactive)
REMARK    1  A    between atoms: C_2  and  C_3
REMARK    2  A    between atoms: C_2  and  C_20
REMARK    3  A    between atoms: C_3  and  N_4
REMARK    4  A    between atoms: C_6  and  C_7
REMARK                            x       y       z     vdW  Elec       q    Type
REMARK                         _______ _______ _______ _____ _____    ______ ____
ROOT
ATOM      1  N   UNL     1       4.835   4.961  19.056  0.00  0.00    +0.000 N 
ATOM      2  C   UNL     1       4.416   6.272  19.099  0.00  0.00    +0.000 A 
ATOM      3  C   UNL     1       3.046   6.295  19.237  0.00  0.00    +0.000 A 
ATOM      4  N   UNL     1       2.680   4.931  19.352  0.00  0.00    +0.000 N 
ATOM      5  C   UNL     1       3.777   4.143  19.246  0.00  0.00    +0.000 A 
ATOM      6  C   UNL     1       3.815   2.635  19.269  0.00  0.00    +0.000 C 
ATOM      7  C   UNL     1       2.662   1.966  18.546  0.00  0.00    +0.000 C 
ATOM      8  C   UNL     1       1.382   1.922  19.373  0.00  0.00    +0.000 C 
ATOM      9  C   UNL     1       1.165   3.116  20.298  0.00  0.00    +0.000 C 
ATOM     10  C   UNL     1       1.303   4.460  19.603  0.00  0.00    +0.000 C 
ENDROOT
BRANCH   3  11
ATOM     11  C   UNL     1       2.210   7.549  19.246  0.00  0.00    +0.000 A 
ATOM     12  C   UNL     1       1.612   8.020  20.418  0.00  0.00    +0.000 A 
ATOM     13  C   UNL     1       0.859   9.198  20.407  0.00  0.00    +0.000 A 
ATOM     14  C   UNL     1       0.679   9.901  19.221  0.00  0.00    +0.000 A 
ATOM     15  C   UNL     1       1.245   9.427  18.042  0.00  0.00    +0.000 A 
ATOM     16  C   UNL     1       2.005   8.254  18.049  0.00  0.00    +0.000 A 
ENDBRANCH   3  11
BRANCH   1  17
ATOM     17  C   UNL     1       6.237   4.533  18.852  0.00  0.00    +0.000 C 
BRANCH  17  19
ATOM     18  O   UNL     1       7.661   6.211  17.861  0.00  0.00    +0.000 OA
ATOM     19  C   UNL     1       6.901   5.261  17.690  0.00  0.00    +0.000 C 
BRANCH  19  20
ATOM     20  C   UNL     1       6.605   4.793  16.306  0.00  0.00    +0.000 A 
ATOM     21  C   UNL     1       5.546   3.919  16.025  0.00  0.00    +0.000 A 
ATOM     22  C   UNL     1       5.328   3.481  14.714  0.00  0.00    +0.000 A 
ATOM     23  C   UNL     1       6.160   3.916  13.684  0.00  0.00    +0.000 A 
ATOM     24 CL   UNL     1       5.893   3.359  12.082  0.00  0.00    +0.000 Cl
ATOM     25  C   UNL     1       7.209   4.793  13.952  0.00  0.00    +0.000 A 
ATOM     26  C   UNL     1       7.435   5.227  15.263  0.00  0.00    +0.000 A 
ENDBRANCH  19  20
ENDBRANCH  17  19
ENDBRANCH   1  17
TORSDOF 4
ENDMDL
MODEL 2
REMARK VINA RESULT:      -8.7      0.664      1.170
REMARK  Name = 
REMARK  4 active torsions:
REMARK  status: ('A' for Active; 'I' for Inactive)
REMARK    1  A    between atoms: C_2  and  C_3
REMARK    2  A    between atoms: C_2  and  C_20
REMARK    3  A    between atoms: C_3  and  N_4
REMARK    4  A    between atoms: C_6  and  C_7
REMARK                            x       y       z     vdW  Elec       q    Type
REMARK                         _______ _______ _______ _____ _____    ______ ____
ROOT
ATOM      1  N   UNL     1       5.039   5.189  18.382  0.00  0.00    +0.000 N 
ATOM      2  C   UNL     1       4.560   6.472  18.521  0.00  0.00    +0.000 A 
ATOM      3  C   UNL     1       3.212   6.416  18.796  0.00  0.00    +0.000 A 
ATOM      4  N   UNL     1       2.929   5.031  18.889  0.00  0.00    +0.000 N 
ATOM      5  C   UNL     1       4.048   4.308  18.642  0.00  0.00    +0.000 A 
ATOM      6  C   UNL     1       4.165   2.804  18.597  0.00  0.00    +0.000 C 
ATOM      7  C   UNL     1       2.980   2.100  17.964  0.00  0.00    +0.000 C 
ATOM      8  C   UNL     1       1.795   1.956  18.912  0.00  0.00    +0.000 C 
ATOM      9  C   UNL     1       1.613   3.101  19.904  0.00  0.00    +0.000 C 
ATOM     10  C   UNL     1       1.611   4.476  19.257  0.00  0.00    +0.000 C 
ENDROOT
BRANCH   3  11
ATOM     11  C   UNL     1       2.318   7.621  18.941  0.00  0.00    +0.000 A 
ATOM     12  C   UNL     1       2.004   8.433  17.848  0.00  0.00    +0.000 A 
ATOM     13  C   UNL     1       1.155   9.532  18.003  0.00  0.00    +0.000 A 
ATOM     14  C   UNL     1       0.632   9.842  19.253  0.00  0.00    +0.000 A 
ATOM     15  C   UNL     1       0.961   9.058  20.355  0.00  0.00    +0.000 A 
ATOM     16  C   UNL     1       1.803   7.953  20.204  0.00  0.00    +0.000 A 
ENDBRANCH   3  11
BRANCH   1  17
ATOM     17  C   UNL     1       6.432   4.846  18.021  0.00  0.00    +0.000 C 
BRANCH  17  19
ATOM     18  O   UNL     1       7.533   6.565  16.732  0.00  0.00    +0.000 OA
ATOM     19  C   UNL     1       6.880   5.524  16.732  0.00  0.00    +0.000 C 
BRANCH  19  20
ATOM     20  C   UNL     1       6.502   4.891  15.436  0.00  0.00    +0.000 A 
ATOM     21  C   UNL     1       5.297   4.194  15.270  0.00  0.00    +0.000 A 
ATOM     22  C   UNL     1       5.002   3.587  14.045  0.00  0.00    +0.000 A 
ATOM     23  C   UNL     1       5.902   3.677  12.985  0.00  0.00    +0.000 A 
ATOM     24 CL   UNL     1       5.536   2.915  11.490  0.00  0.00    +0.000 Cl
ATOM     25  C   UNL     1       7.097   4.376  13.137  0.00  0.00    +0.000 A 
ATOM     26  C   UNL     1       7.400   4.977  14.363  0.00  0.00    +0.000 A 
ENDBRANCH  19  20
ENDBRANCH  17  19
ENDBRANCH   1  17
TORSDOF 4
ENDMDL
MODEL 3
REMARK VINA RESULT:      -8.7      0.666      1.169
REMARK  Name = 
REMARK  4 active torsions:
REMARK  status: ('A' for Active; 'I' for Inactive)
REMARK    1  A    between atoms: C_2  and  C_3
REMARK    2  A    between atoms: C_2  and  C_20
REMARK    3  A    between atoms: C_3  and  N_4
REMARK    4  A    between atoms: C_6  and  C_7
REMARK                            x       y       z     vdW  Elec       q    Type
REMARK                         _______ _______ _______ _____ _____    ______ ____
ROOT
ATOM      1  N   UNL     1       5.069   5.153  18.374  0.00  0.00    +0.000 N 
ATOM      2  C   UNL     1       4.591   6.436  18.516  0.00  0.00    +0.000 A 
ATOM      3  C   UNL     1       3.246   6.379  18.805  0.00  0.00    +0.000 A 
ATOM      4  N   UNL     1       2.965   4.994  18.904  0.00  0.00    +0.000 N 
ATOM      5  C   UNL     1       4.082   4.272  18.646  0.00  0.00    +0.000 A 
ATOM      6  C   UNL     1       4.199   2.768  18.604  0.00  0.00    +0.000 C 
ATOM      7  C   UNL     1       3.008   2.062  17.985  0.00  0.00    +0.000 C 
ATOM      8  C   UNL     1       1.833   1.919  18.946  0.00  0.00    +0.000 C 
ATOM      9  C   UNL     1       1.660   3.066  19.937  0.00  0.00    +0.000 C 
ATOM     10  C   UNL     1       1.651   4.439  19.287  0.00  0.00    +0.000 C 
ENDROOT
BRANCH   3  11
ATOM     11  C   UNL     1       2.353   7.584  18.957  0.00  0.00    +0.000 A 
ATOM     12  C   UNL     1       1.797   7.929  20.192  0.00  0.00    +0.000 A 
ATOM     13  C   UNL     1       0.989   9.064  20.314  0.00  0.00    +0.000 A 
ATOM     14  C   UNL     1       0.714   9.849  19.200  0.00  0.00    +0.000 A 
ATOM     15  C   UNL     1       1.239   9.500  17.960  0.00  0.00    +0.000 A 
ATOM     16  C   UNL     1       2.053   8.371  17.834  0.00  0.00    +0.000 A 
ENDBRANCH   3  11
BRANCH   1  17
ATOM     17  C   UNL     1       6.459   4.810  17.999  0.00  0.00    +0.000 C 
BRANCH  17  19
ATOM     18  O   UNL     1       7.521   6.570  16.733  0.00  0.00    +0.000 OA
ATOM     19  C   UNL     1       6.902   5.509  16.720  0.00  0.00    +0.000 C 
BRANCH  19  20
ATOM     20  C   UNL     1       6.563   4.869  15.416  0.00  0.00    +0.000 A 
ATOM     21  C   UNL     1       7.409   4.955  14.302  0.00  0.00    +0.000 A 
ATOM     22  C   UNL     1       7.032   4.367  13.089  0.00  0.00    +0.000 A 
ATOM     23  C   UNL     1       5.817   3.690  12.989  0.00  0.00    +0.000 A 
ATOM     24 CL   UNL     1       5.358   2.985  11.491  0.00  0.00    +0.000 Cl
ATOM     25  C   UNL     1       4.975   3.590  14.093  0.00  0.00    +0.000 A 
ATOM     26  C   UNL     1       5.344   4.185  15.305  0.00  0.00    +0.000 A 
ENDBRANCH  19  20
ENDBRANCH  17  19
ENDBRANCH   1  17
TORSDOF 4
ENDMDL
MODEL 4
REMARK VINA RESULT:      -8.1      3.715      7.535
REMARK  Name = 
REMARK  4 active torsions:
REMARK  status: ('A' for Active; 'I' for Inactive)
REMARK    1  A    between atoms: C_2  and  C_3
REMARK    2  A    between atoms: C_2  and  C_20
REMARK    3  A    between atoms: C_3  and  N_4
REMARK    4  A    between atoms: C_6  and  C_7
REMARK                            x       y       z     vdW  Elec       q    Type
REMARK                         _______ _______ _______ _____ _____    ______ ____
ROOT
ATOM      1  N   UNL     1       2.628   6.283  19.792  0.00  0.00    +0.000 N 
ATOM      2  C   UNL     1       3.670   6.494  18.916  0.00  0.00    +0.000 A 
ATOM      3  C   UNL     1       3.951   5.311  18.269  0.00  0.00    +0.000 A 
ATOM      4  N   UNL     1       2.973   4.405  18.748  0.00  0.00    +0.000 N 
ATOM      5  C   UNL     1       2.181   5.015  19.663  0.00  0.00    +0.000 A 
ATOM      6  C   UNL     1       1.051   4.390  20.444  0.00  0.00    +0.000 C 
ATOM      7  C   UNL     1       1.313   2.966  20.897  0.00  0.00    +0.000 C 
ATOM      8  C   UNL     1       1.088   1.938  19.795  0.00  0.00    +0.000 C 
ATOM      9  C   UNL     1       1.435   2.408  18.385  0.00  0.00    +0.000 C 
ATOM     10  C   UNL     1       2.823   3.017  18.269  0.00  0.00    +0.000 C 
ENDROOT
BRANCH   3  11
ATOM     11  C   UNL     1       5.079   5.122  17.286  0.00  0.00    +0.000 A 
ATOM     12  C   UNL     1       6.373   4.810  17.712  0.00  0.00    +0.000 A 
ATOM     13  C   UNL     1       7.398   4.617  16.781  0.00  0.00    +0.000 A 
ATOM     14  C   UNL     1       7.144   4.757  15.422  0.00  0.00    +0.000 A 
ATOM     15  C   UNL     1       5.866   5.096  14.987  0.00  0.00    +0.000 A 
ATOM     16  C   UNL     1       4.836   5.282  15.914  0.00  0.00    +0.000 A 
ENDBRANCH   3  11
BRANCH   1  17
ATOM     17  C   UNL     1       2.084   7.306  20.712  0.00  0.00    +0.000 C 
BRANCH  17  19
ATOM     18  O   UNL     1       1.662   8.680  18.773  0.00  0.00    +0.000 OA
ATOM     19  C   UNL     1       1.460   8.480  19.968  0.00  0.00    +0.000 C 
BRANCH  19  20
ATOM     20  C   UNL     1       0.577   9.407  20.732  0.00  0.00    +0.000 A 
ATOM     21  C   UNL     1      -0.034  10.518  20.134  0.00  0.00    +0.000 A 
ATOM     22  C   UNL     1      -0.826  11.379  20.900  0.00  0.00    +0.000 A 
ATOM     23  C   UNL     1      -1.015  11.132  22.259  0.00  0.00    +0.000 A 
ATOM     24 CL   UNL     1      -1.978  12.205  23.193  0.00  0.00    +0.000 Cl
ATOM     25  C   UNL     1      -0.420  10.026  22.860  0.00  0.00    +0.000 A 
ATOM     26  C   UNL     1       0.380   9.167  22.100  0.00  0.00    +0.000 A 
ENDBRANCH  19  20
ENDBRANCH  17  19
ENDBRANCH   1  17
TORSDOF 4
ENDMDL
MODEL 5
REMARK VINA RESULT:      -8.1      2.610      3.369
REMARK  Name = 
REMARK  4 active torsions:
REMARK  status: ('A' for Active; 'I' for Inactive)
REMARK    1  A    between atoms: C_2  and  C_3
REMARK    2  A    between atoms: C_2  and  C_20
REMARK    3  A    between atoms: C_3  and  N_4
REMARK    4  A    between atoms: C_6  and  C_7
REMARK                            x       y       z     vdW  Elec       q    Type
REMARK                         _______ _______ _______ _____ _____    ______ ____
ROOT
ATOM      1  N   UNL     1       3.984   5.652  17.393  0.00  0.00    +0.000 N 
ATOM      2  C   UNL     1       3.596   6.879  17.881  0.00  0.00    +0.000 A 
ATOM      3  C   UNL     1       2.620   6.689  18.834  0.00  0.00    +0.000 A 
ATOM      4  N   UNL     1       2.502   5.282  18.942  0.00  0.00    +0.000 N 
ATOM      5  C   UNL     1       3.340   4.675  18.067  0.00  0.00    +0.000 A 
ATOM      6  C   UNL     1       3.487   3.191  17.834  0.00  0.00    +0.000 C 
ATOM      7  C   UNL     1       2.185   2.415  17.882  0.00  0.00    +0.000 C 
ATOM      8  C   UNL     1       1.717   2.121  19.302  0.00  0.00    +0.000 C 
ATOM      9  C   UNL     1       2.048   3.197  20.332  0.00  0.00    +0.000 C 
ATOM     10  C   UNL     1       1.626   4.595  19.912  0.00  0.00    +0.000 C 
ENDROOT
BRANCH   3  11
ATOM     11  C   UNL     1       1.891   7.802  19.544  0.00  0.00    +0.000 A 
ATOM     12  C   UNL     1       1.576   7.717  20.903  0.00  0.00    +0.000 A 
ATOM     13  C   UNL     1       0.920   8.770  21.546  0.00  0.00    +0.000 A 
ATOM     14  C   UNL     1       0.554   9.906  20.832  0.00  0.00    +0.000 A 
ATOM     15  C   UNL     1       0.837   9.990  19.472  0.00  0.00    +0.000 A 
ATOM     16  C   UNL     1       1.500   8.942  18.826  0.00  0.00    +0.000 A 
ENDBRANCH   3  11
BRANCH   1  17
ATOM     17  C   UNL     1       4.971   5.452  16.308  0.00  0.00    +0.000 C 
BRANCH  17  19
ATOM     18  O   UNL     1       6.888   4.062  16.777  0.00  0.00    +0.000 OA
ATOM     19  C   UNL     1       6.370   5.174  16.843  0.00  0.00    +0.000 C 
BRANCH  19  20
ATOM     20  C   UNL     1       7.121   6.302  17.466  0.00  0.00    +0.000 A 
ATOM     21  C   UNL     1       7.841   6.149  18.658  0.00  0.00    +0.000 A 
ATOM     22  C   UNL     1       8.502   7.246  19.223  0.00  0.00    +0.000 A 
ATOM     23  C   UNL     1       8.450   8.491  18.598  0.00  0.00    +0.000 A 
ATOM     24 CL   UNL     1       9.253   9.833  19.309  0.00  0.00    +0.000 Cl
ATOM     25  C   UNL     1       7.746   8.650  17.408  0.00  0.00    +0.000 A 
ATOM     26  C   UNL     1       7.076   7.558  16.844  0.00  0.00    +0.000 A 
ENDBRANCH  19  20
ENDBRANCH  17  19
ENDBRANCH   1  17
TORSDOF 4
ENDMDL
MODEL 6
REMARK VINA RESULT:      -8.0      3.492      7.280
REMARK  Name = 
REMARK  4 active torsions:
REMARK  status: ('A' for Active; 'I' for Inactive)
REMARK    1  A    between atoms: C_2  and  C_3
REMARK    2  A    between atoms: C_2  and  C_20
REMARK    3  A    between atoms: C_3  and  N_4
REMARK    4  A    between atoms: C_6  and  C_7
REMARK                            x       y       z     vdW  Elec       q    Type
REMARK                         _______ _______ _______ _____ _____    ______ ____
ROOT
ATOM      1  N   UNL     1       2.614   6.810  19.034  0.00  0.00    +0.000 N 
ATOM      2  C   UNL     1       3.602   6.839  18.076  0.00  0.00    +0.000 A 
ATOM      3  C   UNL     1       4.005   5.548  17.815  0.00  0.00    +0.000 A 
ATOM      4  N   UNL     1       3.152   4.744  18.612  0.00  0.00    +0.000 N 
ATOM      5  C   UNL     1       2.316   5.527  19.335  0.00  0.00    +0.000 A 
ATOM      6  C   UNL     1       1.286   5.068  20.339  0.00  0.00    +0.000 C 
ATOM      7  C   UNL     1       1.724   3.897  21.198  0.00  0.00    +0.000 C 
ATOM      8  C   UNL     1       1.595   2.555  20.488  0.00  0.00    +0.000 C 
ATOM      9  C   UNL     1       1.851   2.587  18.984  0.00  0.00    +0.000 C 
ATOM     10  C   UNL     1       3.154   3.268  18.601  0.00  0.00    +0.000 C 
ENDROOT
BRANCH   3  11
ATOM     11  C   UNL     1       5.123   5.175  16.875  0.00  0.00    +0.000 A 
ATOM     12  C   UNL     1       6.408   4.889  17.346  0.00  0.00    +0.000 A 
ATOM     13  C   UNL     1       7.423   4.524  16.458  0.00  0.00    +0.000 A 
ATOM     14  C   UNL     1       7.170   4.463  15.092  0.00  0.00    +0.000 A 
ATOM     15  C   UNL     1       5.903   4.774  14.609  0.00  0.00    +0.000 A 
ATOM     16  C   UNL     1       4.881   5.132  15.494  0.00  0.00    +0.000 A 
ENDBRANCH   3  11
BRANCH   1  17
ATOM     17  C   UNL     1       1.975   8.009  19.620  0.00  0.00    +0.000 C 
BRANCH  17  19
ATOM     18  O   UNL     1       2.125   9.130  17.487  0.00  0.00    +0.000 OA
ATOM     19  C   UNL     1       1.532   9.006  18.556  0.00  0.00    +0.000 C 
BRANCH  19  20
ATOM     20  C   UNL     1       0.336   9.850  18.838  0.00  0.00    +0.000 A 
ATOM     21  C   UNL     1      -0.701  10.009  17.909  0.00  0.00    +0.000 A 
ATOM     22  C   UNL     1      -1.787  10.839  18.206  0.00  0.00    +0.000 A 
ATOM     23  C   UNL     1      -1.844  11.505  19.429  0.00  0.00    +0.000 A 
ATOM     24 CL   UNL     1      -3.175  12.533  19.777  0.00  0.00    +0.000 Cl
ATOM     25  C   UNL     1      -0.824  11.345  20.363  0.00  0.00    +0.000 A 
ATOM     26  C   UNL     1       0.269  10.523  20.067  0.00  0.00    +0.000 A 
ENDBRANCH  19  20
ENDBRANCH  17  19
ENDBRANCH   1  17
TORSDOF 4
ENDMDL
MODEL 7
REMARK VINA RESULT:      -8.0      3.473      7.318
REMARK  Name = 
REMARK  4 active torsions:
REMARK  status: ('A' for Active; 'I' for Inactive)
REMARK    1  A    between atoms: C_2  and  C_3
REMARK    2  A    between atoms: C_2  and  C_20
REMARK    3  A    between atoms: C_3  and  N_4
REMARK    4  A    between atoms: C_6  and  C_7
REMARK                            x       y       z     vdW  Elec       q    Type
REMARK                         _______ _______ _______ _____ _____    ______ ____
ROOT
ATOM      1  N   UNL     1       2.653   6.715  19.058  0.00  0.00    +0.000 N 
ATOM      2  C   UNL     1       3.592   6.726  18.051  0.00  0.00    +0.000 A 
ATOM      3  C   UNL     1       3.972   5.429  17.785  0.00  0.00    +0.000 A 
ATOM      4  N   UNL     1       3.154   4.641  18.632  0.00  0.00    +0.000 N 
ATOM      5  C   UNL     1       2.361   5.438  19.388  0.00  0.00    +0.000 A 
ATOM      6  C   UNL     1       1.380   4.999  20.447  0.00  0.00    +0.000 C 
ATOM      7  C   UNL     1       1.851   3.834  21.296  0.00  0.00    +0.000 C 
ATOM      8  C   UNL     1       1.677   2.485  20.609  0.00  0.00    +0.000 C 
ATOM      9  C   UNL     1       1.858   2.498  19.094  0.00  0.00    +0.000 C 
ATOM     10  C   UNL     1       3.145   3.165  18.638  0.00  0.00    +0.000 C 
ENDROOT
BRANCH   3  11
ATOM     11  C   UNL     1       5.039   5.037  16.795  0.00  0.00    +0.000 A 
ATOM     12  C   UNL     1       4.716   4.602  15.507  0.00  0.00    +0.000 A 
ATOM     13  C   UNL     1       5.724   4.265  14.599  0.00  0.00    +0.000 A 
ATOM     14  C   UNL     1       7.059   4.339  14.977  0.00  0.00    +0.000 A 
ATOM     15  C   UNL     1       7.393   4.744  16.266  0.00  0.00    +0.000 A 
ATOM     16  C   UNL     1       6.389   5.089  17.175  0.00  0.00    +0.000 A 
ENDBRANCH   3  11
BRANCH   1  17
ATOM     17  C   UNL     1       2.053   7.926  19.661  0.00  0.00    +0.000 C 
BRANCH  17  19
ATOM     18  O   UNL     1       2.072   8.975  17.486  0.00  0.00    +0.000 OA
ATOM     19  C   UNL     1       1.576   8.920  18.609  0.00  0.00    +0.000 C 
BRANCH  19  20
ATOM     20  C   UNL     1       0.470   9.851  18.973  0.00  0.00    +0.000 A 
ATOM     21  C   UNL     1       0.366  10.423  20.248  0.00  0.00    +0.000 A 
ATOM     22  C   UNL     1      -0.710  11.265  20.553  0.00  0.00    +0.000 A 
ATOM     23  C   UNL     1      -1.677  11.540  19.587  0.00  0.00    +0.000 A 
ATOM     24 CL   UNL     1      -3.001  12.563  19.978  0.00  0.00    +0.000 Cl
ATOM     25  C   UNL     1      -1.577  10.985  18.314  0.00  0.00    +0.000 A 
ATOM     26  C   UNL     1      -0.508  10.136  18.008  0.00  0.00    +0.000 A 
ENDBRANCH  19  20
ENDBRANCH  17  19
ENDBRANCH   1  17
TORSDOF 4
ENDMDL
MODEL 8
REMARK VINA RESULT:      -8.0      2.660      3.564
REMARK  Name = 
REMARK  4 active torsions:
REMARK  status: ('A' for Active; 'I' for Inactive)
REMARK    1  A    between atoms: C_2  and  C_3
REMARK    2  A    between atoms: C_2  and  C_20
REMARK    3  A    between atoms: C_3  and  N_4
REMARK    4  A    between atoms: C_6  and  C_7
REMARK                            x       y       z     vdW  Elec       q    Type
REMARK                         _______ _______ _______ _____ _____    ______ ____
ROOT
ATOM      1  N   UNL     1       4.419   5.464  17.107  0.00  0.00    +0.000 N 
ATOM      2  C   UNL     1       3.996   6.723  17.467  0.00  0.00    +0.000 A 
ATOM      3  C   UNL     1       2.939   6.603  18.342  0.00  0.00    +0.000 A 
ATOM      4  N   UNL     1       2.805   5.207  18.543  0.00  0.00    +0.000 N 
ATOM      5  C   UNL     1       3.713   4.538  17.793  0.00  0.00    +0.000 A 
ATOM      6  C   UNL     1       3.873   3.041  17.684  0.00  0.00    +0.000 C 
ATOM      7  C   UNL     1       2.568   2.269  17.674  0.00  0.00    +0.000 C 
ATOM      8  C   UNL     1       1.975   2.080  19.066  0.00  0.00    +0.000 C 
ATOM      9  C   UNL     1       2.220   3.230  20.038  0.00  0.00    +0.000 C 
ATOM     10  C   UNL     1       1.844   4.592  19.481  0.00  0.00    +0.000 C 
ENDROOT
BRANCH   3  11
ATOM     11  C   UNL     1       2.156   7.764  18.901  0.00  0.00    +0.000 A 
ATOM     12  C   UNL     1       1.761   8.834  18.094  0.00  0.00    +0.000 A 
ATOM     13  C   UNL     1       1.017   9.889  18.630  0.00  0.00    +0.000 A 
ATOM     14  C   UNL     1       0.681   9.894  19.979  0.00  0.00    +0.000 A 
ATOM     15  C   UNL     1       1.093   8.847  20.799  0.00  0.00    +0.000 A 
ATOM     16  C   UNL     1       1.831   7.786  20.266  0.00  0.00    +0.000 A 
ENDBRANCH   3  11
BRANCH   1  17
ATOM     17  C   UNL     1       5.497   5.186  16.132  0.00  0.00    +0.000 C 
BRANCH  17  19
ATOM     18  O   UNL     1       7.538   4.087  16.807  0.00  0.00    +0.000 OA
ATOM     19  C   UNL     1       6.869   5.118  16.790  0.00  0.00    +0.000 C 
BRANCH  19  20
ATOM     20  C   UNL     1       7.403   6.354  17.430  0.00  0.00    +0.000 A 
ATOM     21  C   UNL     1       7.355   7.602  16.796  0.00  0.00    +0.000 A 
ATOM     22  C   UNL     1       7.901   8.728  17.423  0.00  0.00    +0.000 A 
ATOM     23  C   UNL     1       8.487   8.612  18.682  0.00  0.00    +0.000 A 
ATOM     24 CL   UNL     1       9.167   9.998  19.435  0.00  0.00    +0.000 Cl
ATOM     25  C   UNL     1       8.531   7.377  19.324  0.00  0.00    +0.000 A 
ATOM     26  C   UNL     1       7.995   6.247  18.697  0.00  0.00    +0.000 A 
ENDBRANCH  19  20
ENDBRANCH  17  19
ENDBRANCH   1  17
TORSDOF 4
ENDMDL
MODEL 9
REMARK VINA RESULT:      -8.0      3.731      7.572
REMARK  Name = 
REMARK  4 active torsions:
REMARK  status: ('A' for Active; 'I' for Inactive)
REMARK    1  A    between atoms: C_2  and  C_3
REMARK    2  A    between atoms: C_2  and  C_20
REMARK    3  A    between atoms: C_3  and  N_4
REMARK    4  A    between atoms: C_6  and  C_7
REMARK                            x       y       z     vdW  Elec       q    Type
REMARK                         _______ _______ _______ _____ _____    ______ ____
ROOT
ATOM      1  N   UNL     1       2.672   6.352  19.812  0.00  0.00    +0.000 N 
ATOM      2  C   UNL     1       3.718   6.552  18.940  0.00  0.00    +0.000 A 
ATOM      3  C   UNL     1       3.982   5.370  18.285  0.00  0.00    +0.000 A 
ATOM      4  N   UNL     1       2.988   4.477  18.756  0.00  0.00    +0.000 N 
ATOM      5  C   UNL     1       2.204   5.093  19.673  0.00  0.00    +0.000 A 
ATOM      6  C   UNL     1       1.062   4.480  20.448  0.00  0.00    +0.000 C 
ATOM      7  C   UNL     1       1.300   3.050  20.891  0.00  0.00    +0.000 C 
ATOM      8  C   UNL     1       1.060   2.033  19.781  0.00  0.00    +0.000 C 
ATOM      9  C   UNL     1       1.418   2.508  18.376  0.00  0.00    +0.000 C 
ATOM     10  C   UNL     1       2.816   3.094  18.267  0.00  0.00    +0.000 C 
ENDROOT
BRANCH   3  11
ATOM     11  C   UNL     1       5.109   5.169  17.304  0.00  0.00    +0.000 A 
ATOM     12  C   UNL     1       4.941   5.419  15.939  0.00  0.00    +0.000 A 
ATOM     13  C   UNL     1       6.007   5.247  15.051  0.00  0.00    +0.000 A 
ATOM     14  C   UNL     1       7.240   4.805  15.515  0.00  0.00    +0.000 A 
ATOM     15  C   UNL     1       7.411   4.526  16.868  0.00  0.00    +0.000 A 
ATOM     16  C   UNL     1       6.351   4.703  17.761  0.00  0.00    +0.000 A 
ENDBRANCH   3  11
BRANCH   1  17
ATOM     17  C   UNL     1       2.142   7.377  20.739  0.00  0.00    +0.000 C 
BRANCH  17  19
ATOM     18  O   UNL     1       1.584   8.699  18.797  0.00  0.00    +0.000 OA
ATOM     19  C   UNL     1       1.447   8.517  20.004  0.00  0.00    +0.000 C 
BRANCH  19  20
ATOM     20  C   UNL     1       0.575   9.433  20.793  0.00  0.00    +0.000 A 
ATOM     21  C   UNL     1       0.462   9.338  22.187  0.00  0.00    +0.000 A 
ATOM     22  C   UNL     1      -0.396  10.199  22.881  0.00  0.00    +0.000 A 
ATOM     23  C   UNL     1      -1.135  11.156  22.189  0.00  0.00    +0.000 A 
ATOM     24 CL   UNL     1      -2.196  12.197  23.049  0.00  0.00    +0.000 Cl
ATOM     25  C   UNL     1      -1.022  11.265  20.805  0.00  0.00    +0.000 A 
ATOM     26  C   UNL     1      -0.172  10.401  20.106  0.00  0.00    +0.000 A 
ENDBRANCH  19  20
ENDBRANCH  17  19
ENDBRANCH   1  17
TORSDOF 4
ENDMDL
