MODEL 1
REMARK VINA RESULT:      -8.6      0.000      0.000
REMARK  Name = 
REMARK  5 active torsions:
REMARK  status: ('A' for Active; 'I' for Inactive)
REMARK    1  A    between atoms: C_1  and  C_2
REMARK    2  A    between atoms: C_5  and  S_6
REMARK    3  A    between atoms: S_6  and  N_9
REMARK    4  A    between atoms: N_9  and  N_10
REMARK    5  A    between atoms: C_11  and  C_13
REMARK                            x       y       z     vdW  Elec       q    Type
REMARK                         _______ _______ _______ _____ _____    ______ ____
ROOT
ATOM      1  N   UNL     1       4.721   5.993  18.843  0.00  0.00    +0.000 N 
ATOM      2  C   UNL     1       3.418   5.623  19.122  0.00  0.00    +0.000 C 
ATOM      3  O   UNL     1       3.084   4.437  19.099  0.00  0.00    +0.000 OA
ATOM      4  H   UNL     1       5.039   6.959  18.908  0.00  0.00    +0.000 HD
ENDROOT
BRANCH   2   5
ATOM      5  C   UNL     1       2.514   6.690  19.514  0.00  0.00    +0.000 A 
ATOM      6  C   UNL     1       1.783   6.736  20.688  0.00  0.00    +0.000 A 
ATOM      7  C   UNL     1       1.107   7.979  20.873  0.00  0.00    +0.000 A 
ATOM      8  C   UNL     1       0.357   8.488  21.944  0.00  0.00    +0.000 A 
ATOM      9  C   UNL     1      -0.108   9.805  21.871  0.00  0.00    +0.000 A 
ATOM     10  C   UNL     1      -0.769  10.388  22.964  0.00  0.00    +0.000 A 
ATOM     11  C   UNL     1      -1.199  11.708  22.901  0.00  0.00    +0.000 A 
ATOM     12  C   UNL     1      -0.995  12.439  21.737  0.00  0.00    +0.000 A 
ATOM     13  C   UNL     1      -0.343  11.848  20.648  0.00  0.00    +0.000 A 
ATOM     14  C   UNL     1       0.128  10.542  20.691  0.00  0.00    +0.000 A 
ATOM     15  N   UNL     1       0.797  10.060  19.632  0.00  0.00    +0.000 NA
ATOM     16  C   UNL     1       1.282   8.812  19.777  0.00  0.00    +0.000 A 
ATOM     17  S   UNL     1       2.258   8.097  18.573  0.00  0.00    +0.000 S 
ENDBRANCH   2   5
BRANCH   1  18
ATOM     18  N   UNL     1       5.699   4.955  18.622  0.00  0.00    +0.000 NA
ATOM     19  H   UNL     1       5.667   4.101  19.191  0.00  0.00    +0.000 HD
BRANCH  18  20
ATOM     20  S   UNL     1       7.115   5.279  17.773  0.00  0.00    +0.000 S 
ATOM     21  O   UNL     1       8.128   4.375  18.278  0.00  0.00    +0.000 OA
ATOM     22  O   UNL     1       7.295   6.712  17.737  0.00  0.00    +0.000 OA
BRANCH  20  27
ATOM     23  C   UNL     1       5.699   3.392  12.176  0.00  0.00    +0.000 C 
ATOM     24  C   UNL     1       6.035   3.888  13.552  0.00  0.00    +0.000 A 
ATOM     25  C   UNL     1       7.148   4.713  13.765  0.00  0.00    +0.000 A 
ATOM     26  C   UNL     1       7.474   5.141  15.054  0.00  0.00    +0.000 A 
ATOM     27  C   UNL     1       6.679   4.747  16.133  0.00  0.00    +0.000 A 
ATOM     28  C   UNL     1       5.559   3.934  15.935  0.00  0.00    +0.000 A 
ATOM     29  C   UNL     1       5.242   3.507  14.644  0.00  0.00    +0.000 A 
ENDBRANCH  20  27
ENDBRANCH  18  20
ENDBRANCH   1  18
TORSDOF 4
ENDMDL
MODEL 2
REMARK VINA RESULT:      -8.4      2.369      3.275
REMARK  Name = 
REMARK  5 active torsions:
REMARK  status: ('A' for Active; 'I' for Inactive)
REMARK    1  A    between atoms: C_1  and  C_2
REMARK    2  A    between atoms: C_5  and  S_6
REMARK    3  A    between atoms: S_6  and  N_9
REMARK    4  A    between atoms: N_9  and  N_10
REMARK    5  A    between atoms: C_11  and  C_13
REMARK                            x       y       z     vdW  Elec       q    Type
REMARK                         _______ _______ _______ _____ _____    ______ ____
ROOT
ATOM      1  N   UNL     1       5.113   6.851  17.825  0.00  0.00    +0.000 N 
ATOM      2  C   UNL     1       4.028   7.407  17.172  0.00  0.00    +0.000 C 
ATOM      3  O   UNL     1       3.942   7.359  15.944  0.00  0.00    +0.000 OA
ATOM      4  H   UNL     1       5.184   6.826  18.840  0.00  0.00    +0.000 HD
ENDROOT
BRANCH   2   5
ATOM      5  C   UNL     1       2.984   7.964  18.014  0.00  0.00    +0.000 A 
ATOM      6  C   UNL     1       2.570   7.451  19.230  0.00  0.00    +0.000 A 
ATOM      7  C   UNL     1       1.641   8.298  19.904  0.00  0.00    +0.000 A 
ATOM      8  C   UNL     1       1.057   8.224  21.178  0.00  0.00    +0.000 A 
ATOM      9  C   UNL     1       0.242   9.277  21.605  0.00  0.00    +0.000 A 
ATOM     10  C   UNL     1      -0.275   9.294  22.909  0.00  0.00    +0.000 A 
ATOM     11  C   UNL     1      -1.056  10.359  23.342  0.00  0.00    +0.000 A 
ATOM     12  C   UNL     1      -1.345  11.396  22.463  0.00  0.00    +0.000 A 
ATOM     13  C   UNL     1      -0.834  11.368  21.159  0.00  0.00    +0.000 A 
ATOM     14  C   UNL     1      -0.023  10.334  20.707  0.00  0.00    +0.000 A 
ATOM     15  N   UNL     1       0.480  10.403  19.465  0.00  0.00    +0.000 NA
ATOM     16  C   UNL     1       1.312   9.399  19.125  0.00  0.00    +0.000 A 
ATOM     17  S   UNL     1       2.132   9.398  17.629  0.00  0.00    +0.000 S 
ENDBRANCH   2   5
BRANCH   1  18
ATOM     18  N   UNL     1       6.090   6.129  17.044  0.00  0.00    +0.000 NA
ATOM     19  H   UNL     1       6.455   6.548  16.181  0.00  0.00    +0.000 HD
BRANCH  18  20
ATOM     20  S   UNL     1       6.322   4.479  17.275  0.00  0.00    +0.000 S 
ATOM     21  O   UNL     1       7.272   4.333  18.358  0.00  0.00    +0.000 OA
ATOM     22  O   UNL     1       6.517   3.872  15.978  0.00  0.00    +0.000 OA
BRANCH  20  27
ATOM     23  C   UNL     1       0.891   2.657  19.294  0.00  0.00    +0.000 C 
ATOM     24  C   UNL     1       2.221   3.139  18.793  0.00  0.00    +0.000 A 
ATOM     25  C   UNL     1       2.435   3.361  17.426  0.00  0.00    +0.000 A 
ATOM     26  C   UNL     1       3.686   3.776  16.964  0.00  0.00    +0.000 A 
ATOM     27  C   UNL     1       4.727   3.974  17.875  0.00  0.00    +0.000 A 
ATOM     28  C   UNL     1       4.526   3.768  19.242  0.00  0.00    +0.000 A 
ATOM     29  C   UNL     1       3.273   3.350  19.696  0.00  0.00    +0.000 A 
ENDBRANCH  20  27
ENDBRANCH  18  20
ENDBRANCH   1  18
TORSDOF 4
ENDMDL
MODEL 3
REMARK VINA RESULT:      -8.3      6.484      8.193
REMARK  Name = 
REMARK  5 active torsions:
REMARK  status: ('A' for Active; 'I' for Inactive)
REMARK    1  A    between atoms: C_1  and  C_2
REMARK    2  A    between atoms: C_5  and  S_6
REMARK    3  A    between atoms: S_6  and  N_9
REMARK    4  A    between atoms: N_9  and  N_10
REMARK    5  A    between atoms: C_11  and  C_13
REMARK                            x       y       z     vdW  Elec       q    Type
REMARK                         _______ _______ _______ _____ _____    ______ ____
ROOT
ATOM      1  N   UNL     1       7.271   7.656  16.919  0.00  0.00    +0.000 N 
ATOM      2  C   UNL     1       7.988   7.903  18.075  0.00  0.00    +0.000 C 
ATOM      3  O   UNL     1       8.281   6.982  18.840  0.00  0.00    +0.000 OA
ATOM      4  H   UNL     1       7.062   8.387  16.240  0.00  0.00    +0.000 HD
ENDROOT
BRANCH   2   5
ATOM      5  C   UNL     1       8.430   9.270  18.281  0.00  0.00    +0.000 A 
ATOM      6  C   UNL     1       9.406   9.676  19.174  0.00  0.00    +0.000 A 
ATOM      7  C   UNL     1       9.741  11.057  19.041  0.00  0.00    +0.000 A 
ATOM      8  C   UNL     1      10.726  11.846  19.654  0.00  0.00    +0.000 A 
ATOM      9  C   UNL     1      10.877  13.173  19.240  0.00  0.00    +0.000 A 
ATOM     10  C   UNL     1      11.918  13.963  19.750  0.00  0.00    +0.000 A 
ATOM     11  C   UNL     1      12.087  15.271  19.310  0.00  0.00    +0.000 A 
ATOM     12  C   UNL     1      11.199  15.800  18.380  0.00  0.00    +0.000 A 
ATOM     13  C   UNL     1      10.157  15.007  17.882  0.00  0.00    +0.000 A 
ATOM     14  C   UNL     1       9.982  13.687  18.277  0.00  0.00    +0.000 A 
ATOM     15  N   UNL     1       8.998  12.969  17.714  0.00  0.00    +0.000 NA
ATOM     16  C   UNL     1       8.936  11.679  18.097  0.00  0.00    +0.000 A 
ATOM     17  S   UNL     1       7.822  10.598  17.388  0.00  0.00    +0.000 S 
ENDBRANCH   2   5
BRANCH   1  18
ATOM     18  N   UNL     1       6.961   6.287  16.579  0.00  0.00    +0.000 NA
ATOM     19  H   UNL     1       7.718   5.595  16.533  0.00  0.00    +0.000 HD
BRANCH  18  20
ATOM     20  S   UNL     1       5.493   5.894  15.857  0.00  0.00    +0.000 S 
ATOM     21  O   UNL     1       5.645   4.576  15.278  0.00  0.00    +0.000 OA
ATOM     22  O   UNL     1       5.054   7.038  15.091  0.00  0.00    +0.000 OA
BRANCH  20  27
ATOM     23  C   UNL     1       1.767   5.390  20.627  0.00  0.00    +0.000 C 
ATOM     24  C   UNL     1       2.710   5.530  19.469  0.00  0.00    +0.000 A 
ATOM     25  C   UNL     1       2.818   6.743  18.773  0.00  0.00    +0.000 A 
ATOM     26  C   UNL     1       3.672   6.854  17.674  0.00  0.00    +0.000 A 
ATOM     27  C   UNL     1       4.426   5.749  17.272  0.00  0.00    +0.000 A 
ATOM     28  C   UNL     1       4.338   4.537  17.962  0.00  0.00    +0.000 A 
ATOM     29  C   UNL     1       3.479   4.432  19.057  0.00  0.00    +0.000 A 
ENDBRANCH  20  27
ENDBRANCH  18  20
ENDBRANCH   1  18
TORSDOF 4
ENDMDL
MODEL 4
REMARK VINA RESULT:      -8.2      6.498      8.012
REMARK  Name = 
REMARK  5 active torsions:
REMARK  status: ('A' for Active; 'I' for Inactive)
REMARK    1  A    between atoms: C_1  and  C_2
REMARK    2  A    between atoms: C_5  and  S_6
REMARK    3  A    between atoms: S_6  and  N_9
REMARK    4  A    between atoms: N_9  and  N_10
REMARK    5  A    between atoms: C_11  and  C_13
REMARK                            x       y       z     vdW  Elec       q    Type
REMARK                         _______ _______ _______ _____ _____    ______ ____
ROOT
ATOM      1  N   UNL     1       7.495   7.538  16.837  0.00  0.00    +0.000 N 
ATOM      2  C   UNL     1       8.050   7.830  18.070  0.00  0.00    +0.000 C 
ATOM      3  O   UNL     1       8.255   6.935  18.892  0.00  0.00    +0.000 OA
ATOM      4  H   UNL     1       7.365   8.246  16.116  0.00  0.00    +0.000 HD
ENDROOT
BRANCH   2   5
ATOM      5  C   UNL     1       8.439   9.211  18.292  0.00  0.00    +0.000 A 
ATOM      6  C   UNL     1       9.361   9.648  19.226  0.00  0.00    +0.000 A 
ATOM      7  C   UNL     1       9.657  11.039  19.106  0.00  0.00    +0.000 A 
ATOM      8  C   UNL     1      10.589  11.859  19.760  0.00  0.00    +0.000 A 
ATOM      9  C   UNL     1      10.715  13.191  19.350  0.00  0.00    +0.000 A 
ATOM     10  C   UNL     1      11.706  14.014  19.903  0.00  0.00    +0.000 A 
ATOM     11  C   UNL     1      11.852  15.327  19.469  0.00  0.00    +0.000 A 
ATOM     12  C   UNL     1      10.989  15.826  18.501  0.00  0.00    +0.000 A 
ATOM     13  C   UNL     1       9.996  15.000  17.959  0.00  0.00    +0.000 A 
ATOM     14  C   UNL     1       9.846  13.675  18.349  0.00  0.00    +0.000 A 
ATOM     15  N   UNL     1       8.911  12.926  17.744  0.00  0.00    +0.000 NA
ATOM     16  C   UNL     1       8.874  11.634  18.126  0.00  0.00    +0.000 A 
ATOM     17  S   UNL     1       7.827  10.519  17.371  0.00  0.00    +0.000 S 
ENDBRANCH   2   5
BRANCH   1  18
ATOM     18  N   UNL     1       7.255   6.155  16.499  0.00  0.00    +0.000 NA
ATOM     19  H   UNL     1       8.043   5.497  16.475  0.00  0.00    +0.000 HD
BRANCH  18  20
ATOM     20  S   UNL     1       5.824   5.692  15.745  0.00  0.00    +0.000 S 
ATOM     21  O   UNL     1       6.141   4.569  14.889  0.00  0.00    +0.000 OA
ATOM     22  O   UNL     1       5.172   6.886  15.258  0.00  0.00    +0.000 OA
BRANCH  20  27
ATOM     23  C   UNL     1       2.667   3.544  20.469  0.00  0.00    +0.000 C 
ATOM     24  C   UNL     1       3.418   4.083  19.286  0.00  0.00    +0.000 A 
ATOM     25  C   UNL     1       3.559   3.322  18.118  0.00  0.00    +0.000 A 
ATOM     26  C   UNL     1       4.289   3.816  17.035  0.00  0.00    +0.000 A 
ATOM     27  C   UNL     1       4.877   5.081  17.120  0.00  0.00    +0.000 A 
ATOM     28  C   UNL     1       4.736   5.857  18.274  0.00  0.00    +0.000 A 
ATOM     29  C   UNL     1       4.008   5.354  19.353  0.00  0.00    +0.000 A 
ENDBRANCH  20  27
ENDBRANCH  18  20
ENDBRANCH   1  18
TORSDOF 4
ENDMDL
MODEL 5
REMARK VINA RESULT:      -8.2      1.695      2.526
REMARK  Name = 
REMARK  5 active torsions:
REMARK  status: ('A' for Active; 'I' for Inactive)
REMARK    1  A    between atoms: C_1  and  C_2
REMARK    2  A    between atoms: C_5  and  S_6
REMARK    3  A    between atoms: S_6  and  N_9
REMARK    4  A    between atoms: N_9  and  N_10
REMARK    5  A    between atoms: C_11  and  C_13
REMARK                            x       y       z     vdW  Elec       q    Type
REMARK                         _______ _______ _______ _____ _____    ______ ____
ROOT
ATOM      1  N   UNL     1       2.944   6.078  19.586  0.00  0.00    +0.000 N 
ATOM      2  C   UNL     1       2.505   7.159  18.844  0.00  0.00    +0.000 C 
ATOM      3  O   UNL     1       2.665   7.189  17.622  0.00  0.00    +0.000 OA
ATOM      4  H   UNL     1       2.777   6.000  20.588  0.00  0.00    +0.000 HD
ENDROOT
BRANCH   2   5
ATOM      5  C   UNL     1       1.790   8.193  19.571  0.00  0.00    +0.000 A 
ATOM      6  C   UNL     1       1.288   9.361  19.027  0.00  0.00    +0.000 A 
ATOM      7  C   UNL     1       0.494  10.108  19.948  0.00  0.00    +0.000 A 
ATOM      8  C   UNL     1      -0.277  11.270  19.794  0.00  0.00    +0.000 A 
ATOM      9  C   UNL     1      -1.037  11.720  20.879  0.00  0.00    +0.000 A 
ATOM     10  C   UNL     1      -1.903  12.814  20.736  0.00  0.00    +0.000 A 
ATOM     11  C   UNL     1      -2.684  13.237  21.806  0.00  0.00    +0.000 A 
ATOM     12  C   UNL     1      -2.579  12.583  23.028  0.00  0.00    +0.000 A 
ATOM     13  C   UNL     1      -1.706  11.496  23.165  0.00  0.00    +0.000 A 
ATOM     14  C   UNL     1      -0.938  11.030  22.106  0.00  0.00    +0.000 A 
ATOM     15  N   UNL     1      -0.168   9.947  22.294  0.00  0.00    +0.000 NA
ATOM     16  C   UNL     1       0.493   9.515  21.203  0.00  0.00    +0.000 A 
ATOM     17  S   UNL     1       1.419   8.082  21.239  0.00  0.00    +0.000 S 
ENDBRANCH   2   5
BRANCH   1  18
ATOM     18  N   UNL     1       3.502   4.944  18.887  0.00  0.00    +0.000 NA
ATOM     19  H   UNL     1       2.872   4.236  18.490  0.00  0.00    +0.000 HD
BRANCH  18  20
ATOM     20  S   UNL     1       5.124   4.538  19.070  0.00  0.00    +0.000 S 
ATOM     21  O   UNL     1       5.166   3.189  19.594  0.00  0.00    +0.000 OA
ATOM     22  O   UNL     1       5.790   5.647  19.713  0.00  0.00    +0.000 OA
BRANCH  20  27
ATOM     23  C   UNL     1       6.957   4.448  13.280  0.00  0.00    +0.000 C 
ATOM     24  C   UNL     1       6.504   4.436  14.711  0.00  0.00    +0.000 A 
ATOM     25  C   UNL     1       5.160   4.211  15.036  0.00  0.00    +0.000 A 
ATOM     26  C   UNL     1       4.740   4.237  16.367  0.00  0.00    +0.000 A 
ATOM     27  C   UNL     1       5.672   4.484  17.379  0.00  0.00    +0.000 A 
ATOM     28  C   UNL     1       7.018   4.698  17.072  0.00  0.00    +0.000 A 
ATOM     29  C   UNL     1       7.429   4.675  15.738  0.00  0.00    +0.000 A 
ENDBRANCH  20  27
ENDBRANCH  18  20
ENDBRANCH   1  18
TORSDOF 4
ENDMDL
MODEL 6
REMARK VINA RESULT:      -8.2      1.590      1.864
REMARK  Name = 
REMARK  5 active torsions:
REMARK  status: ('A' for Active; 'I' for Inactive)
REMARK    1  A    between atoms: C_1  and  C_2
REMARK    2  A    between atoms: C_5  and  S_6
REMARK    3  A    between atoms: S_6  and  N_9
REMARK    4  A    between atoms: N_9  and  N_10
REMARK    5  A    between atoms: C_11  and  C_13
REMARK                            x       y       z     vdW  Elec       q    Type
REMARK                         _______ _______ _______ _____ _____    ______ ____
ROOT
ATOM      1  N   UNL     1       2.705   5.792  19.330  0.00  0.00    +0.000 N 
ATOM      2  C   UNL     1       2.724   6.995  18.648  0.00  0.00    +0.000 C 
ATOM      3  O   UNL     1       3.390   7.122  17.619  0.00  0.00    +0.000 OA
ATOM      4  H   UNL     1       2.122   5.641  20.152  0.00  0.00    +0.000 HD
ENDROOT
BRANCH   2   5
ATOM      5  C   UNL     1       1.866   8.045  19.167  0.00  0.00    +0.000 A 
ATOM      6  C   UNL     1       1.280   8.062  20.420  0.00  0.00    +0.000 A 
ATOM      7  C   UNL     1       0.622   9.295  20.710  0.00  0.00    +0.000 A 
ATOM      8  C   UNL     1       0.003   9.776  21.873  0.00  0.00    +0.000 A 
ATOM      9  C   UNL     1      -0.478  11.090  21.883  0.00  0.00    +0.000 A 
ATOM     10  C   UNL     1      -1.007  11.645  23.057  0.00  0.00    +0.000 A 
ATOM     11  C   UNL     1      -1.452  12.962  23.073  0.00  0.00    +0.000 A 
ATOM     12  C   UNL     1      -1.394  13.717  21.908  0.00  0.00    +0.000 A 
ATOM     13  C   UNL     1      -0.872  13.153  20.737  0.00  0.00    +0.000 A 
ATOM     14  C   UNL     1      -0.389  11.851  20.698  0.00  0.00    +0.000 A 
ATOM     15  N   UNL     1       0.151  11.396  19.556  0.00  0.00    +0.000 NA
ATOM     16  C   UNL     1       0.659  10.150  19.617  0.00  0.00    +0.000 A 
ATOM     17  S   UNL     1       1.489   9.468  18.291  0.00  0.00    +0.000 S 
ENDBRANCH   2   5
BRANCH   1  18
ATOM     18  N   UNL     1       3.400   4.664  18.757  0.00  0.00    +0.000 NA
ATOM     19  H   UNL     1       2.862   3.855  18.426  0.00  0.00    +0.000 HD
BRANCH  18  20
ATOM     20  S   UNL     1       5.052   4.461  19.003  0.00  0.00    +0.000 S 
ATOM     21  O   UNL     1       5.243   3.116  19.505  0.00  0.00    +0.000 OA
ATOM     22  O   UNL     1       5.546   5.630  19.693  0.00  0.00    +0.000 OA
BRANCH  20  27
ATOM     23  C   UNL     1       7.211   4.554  13.326  0.00  0.00    +0.000 C 
ATOM     24  C   UNL     1       6.675   4.565  14.728  0.00  0.00    +0.000 A 
ATOM     25  C   UNL     1       7.504   4.888  15.811  0.00  0.00    +0.000 A 
ATOM     26  C   UNL     1       7.006   4.862  17.115  0.00  0.00    +0.000 A 
ATOM     27  C   UNL     1       5.670   4.514  17.337  0.00  0.00    +0.000 A 
ATOM     28  C   UNL     1       4.829   4.201  16.266  0.00  0.00    +0.000 A 
ATOM     29  C   UNL     1       5.335   4.226  14.966  0.00  0.00    +0.000 A 
ENDBRANCH  20  27
ENDBRANCH  18  20
ENDBRANCH   1  18
TORSDOF 4
ENDMDL
MODEL 7
REMARK VINA RESULT:      -8.1      4.300     11.068
REMARK  Name = 
REMARK  5 active torsions:
REMARK  status: ('A' for Active; 'I' for Inactive)
REMARK    1  A    between atoms: C_1  and  C_2
REMARK    2  A    between atoms: C_5  and  S_6
REMARK    3  A    between atoms: S_6  and  N_9
REMARK    4  A    between atoms: N_9  and  N_10
REMARK    5  A    between atoms: C_11  and  C_13
REMARK                            x       y       z     vdW  Elec       q    Type
REMARK                         _______ _______ _______ _____ _____    ______ ____
ROOT
ATOM      1  N   UNL     1      -0.923  10.954  20.512  0.00  0.00    +0.000 N 
ATOM      2  C   UNL     1       0.439  10.977  20.274  0.00  0.00    +0.000 C 
ATOM      3  O   UNL     1       1.095  12.000  20.483  0.00  0.00    +0.000 OA
ATOM      4  H   UNL     1      -1.481  10.109  20.402  0.00  0.00    +0.000 HD
ENDROOT
BRANCH   2   5
ATOM      5  C   UNL     1       1.042   9.725  19.854  0.00  0.00    +0.000 A 
ATOM      6  C   UNL     1       1.602   9.477  18.613  0.00  0.00    +0.000 A 
ATOM      7  C   UNL     1       2.259   8.212  18.543  0.00  0.00    +0.000 A 
ATOM      8  C   UNL     1       3.033   7.612  17.538  0.00  0.00    +0.000 A 
ATOM      9  C   UNL     1       3.638   6.380  17.803  0.00  0.00    +0.000 A 
ATOM     10  C   UNL     1       4.505   5.797  16.866  0.00  0.00    +0.000 A 
ATOM     11  C   UNL     1       5.133   4.589  17.147  0.00  0.00    +0.000 A 
ATOM     12  C   UNL     1       4.874   3.948  18.353  0.00  0.00    +0.000 A 
ATOM     13  C   UNL     1       4.000   4.532  19.279  0.00  0.00    +0.000 A 
ATOM     14  C   UNL     1       3.383   5.753  19.042  0.00  0.00    +0.000 A 
ATOM     15  N   UNL     1       2.605   6.281  19.999  0.00  0.00    +0.000 NA
ATOM     16  C   UNL     1       2.099   7.499  19.722  0.00  0.00    +0.000 A 
ATOM     17  S   UNL     1       1.189   8.362  20.880  0.00  0.00    +0.000 S 
ENDBRANCH   2   5
BRANCH   1  18
ATOM     18  N   UNL     1      -1.540  12.120  21.100  0.00  0.00    +0.000 NA
ATOM     19  H   UNL     1      -1.730  12.940  20.512  0.00  0.00    +0.000 HD
BRANCH  18  20
ATOM     20  S   UNL     1      -1.563  12.328  22.769  0.00  0.00    +0.000 S 
ATOM     21  O   UNL     1      -0.928  13.598  23.047  0.00  0.00    +0.000 OA
ATOM     22  O   UNL     1      -1.134  11.089  23.377  0.00  0.00    +0.000 OA
BRANCH  20  27
ATOM     23  C   UNL     1      -7.493  13.040  23.875  0.00  0.00    +0.000 C 
ATOM     24  C   UNL     1      -6.032  12.830  23.603  0.00  0.00    +0.000 A 
ATOM     25  C   UNL     1      -5.143  12.536  24.646  0.00  0.00    +0.000 A 
ATOM     26  C   UNL     1      -3.780  12.377  24.389  0.00  0.00    +0.000 A 
ATOM     27  C   UNL     1      -3.305  12.508  23.082  0.00  0.00    +0.000 A 
ATOM     28  C   UNL     1      -4.180  12.790  22.030  0.00  0.00    +0.000 A 
ATOM     29  C   UNL     1      -5.541  12.951  22.295  0.00  0.00    +0.000 A 
ENDBRANCH  20  27
ENDBRANCH  18  20
ENDBRANCH   1  18
TORSDOF 4
ENDMDL
MODEL 8
REMARK VINA RESULT:      -8.1      4.153     10.768
REMARK  Name = 
REMARK  5 active torsions:
REMARK  status: ('A' for Active; 'I' for Inactive)
REMARK    1  A    between atoms: C_1  and  C_2
REMARK    2  A    between atoms: C_5  and  S_6
REMARK    3  A    between atoms: S_6  and  N_9
REMARK    4  A    between atoms: N_9  and  N_10
REMARK    5  A    between atoms: C_11  and  C_13
REMARK                            x       y       z     vdW  Elec       q    Type
REMARK                         _______ _______ _______ _____ _____    ______ ____
ROOT
ATOM      1  N   UNL     1      -0.693  10.526  20.487  0.00  0.00    +0.000 N 
ATOM      2  C   UNL     1       0.649  10.539  20.152  0.00  0.00    +0.000 C 
ATOM      3  O   UNL     1       1.290  11.592  20.169  0.00  0.00    +0.000 OA
ATOM      4  H   UNL     1      -1.234   9.665  20.536  0.00  0.00    +0.000 HD
ENDROOT
BRANCH   2   5
ATOM      5  C   UNL     1       1.255   9.251  19.867  0.00  0.00    +0.000 A 
ATOM      6  C   UNL     1       1.329   8.183  20.744  0.00  0.00    +0.000 A 
ATOM      7  C   UNL     1       1.836   6.997  20.134  0.00  0.00    +0.000 A 
ATOM      8  C   UNL     1       1.977   5.684  20.610  0.00  0.00    +0.000 A 
ATOM      9  C   UNL     1       2.425   4.696  19.728  0.00  0.00    +0.000 A 
ATOM     10  C   UNL     1       2.479   3.353  20.132  0.00  0.00    +0.000 A 
ATOM     11  C   UNL     1       2.891   2.367  19.242  0.00  0.00    +0.000 A 
ATOM     12  C   UNL     1       3.277   2.726  17.956  0.00  0.00    +0.000 A 
ATOM     13  C   UNL     1       3.229   4.069  17.563  0.00  0.00    +0.000 A 
ATOM     14  C   UNL     1       2.791   5.073  18.418  0.00  0.00    +0.000 A 
ATOM     15  N   UNL     1       2.715   6.330  17.954  0.00  0.00    +0.000 NA
ATOM     16  C   UNL     1       2.215   7.233  18.820  0.00  0.00    +0.000 A 
ATOM     17  S   UNL     1       1.940   8.850  18.349  0.00  0.00    +0.000 S 
ENDBRANCH   2   5
BRANCH   1  18
ATOM     18  N   UNL     1      -1.299  11.752  20.950  0.00  0.00    +0.000 NA
ATOM     19  H   UNL     1      -1.496  12.502  20.277  0.00  0.00    +0.000 HD
BRANCH  18  20
ATOM     20  S   UNL     1      -1.297  12.146  22.585  0.00  0.00    +0.000 S 
ATOM     21  O   UNL     1      -0.593  13.404  22.718  0.00  0.00    +0.000 OA
ATOM     22  O   UNL     1      -0.928  10.962  23.327  0.00  0.00    +0.000 OA
BRANCH  20  27
ATOM     23  C   UNL     1      -7.216  13.098  23.561  0.00  0.00    +0.000 C 
ATOM     24  C   UNL     1      -5.749  12.896  23.317  0.00  0.00    +0.000 A 
ATOM     25  C   UNL     1      -5.224  12.945  22.019  0.00  0.00    +0.000 A 
ATOM     26  C   UNL     1      -3.864  12.721  21.797  0.00  0.00    +0.000 A 
ATOM     27  C   UNL     1      -3.024  12.452  22.881  0.00  0.00    +0.000 A 
ATOM     28  C   UNL     1      -3.530  12.412  24.182  0.00  0.00    +0.000 A 
ATOM     29  C   UNL     1      -4.892  12.633  24.395  0.00  0.00    +0.000 A 
ENDBRANCH  20  27
ENDBRANCH  18  20
ENDBRANCH   1  18
TORSDOF 4
ENDMDL
MODEL 9
REMARK VINA RESULT:      -8.1      3.947     10.655
REMARK  Name = 
REMARK  5 active torsions:
REMARK  status: ('A' for Active; 'I' for Inactive)
REMARK    1  A    between atoms: C_1  and  C_2
REMARK    2  A    between atoms: C_5  and  S_6
REMARK    3  A    between atoms: S_6  and  N_9
REMARK    4  A    between atoms: N_9  and  N_10
REMARK    5  A    between atoms: C_11  and  C_13
REMARK                            x       y       z     vdW  Elec       q    Type
REMARK                         _______ _______ _______ _____ _____    ______ ____
ROOT
ATOM      1  N   UNL     1      -0.409  10.205  20.375  0.00  0.00    +0.000 N 
ATOM      2  C   UNL     1       0.829  10.231  19.760  0.00  0.00    +0.000 C 
ATOM      3  O   UNL     1       1.372  11.303  19.489  0.00  0.00    +0.000 OA
ATOM      4  H   UNL     1      -0.858   9.337  20.661  0.00  0.00    +0.000 HD
ENDROOT
BRANCH   2   5
ATOM      5  C   UNL     1       1.465   8.945  19.537  0.00  0.00    +0.000 A 
ATOM      6  C   UNL     1       1.536   7.911  20.453  0.00  0.00    +0.000 A 
ATOM      7  C   UNL     1       2.080   6.713  19.899  0.00  0.00    +0.000 A 
ATOM      8  C   UNL     1       2.232   5.421  20.425  0.00  0.00    +0.000 A 
ATOM      9  C   UNL     1       2.720   4.411  19.591  0.00  0.00    +0.000 A 
ATOM     10  C   UNL     1       2.787   3.085  20.045  0.00  0.00    +0.000 A 
ATOM     11  C   UNL     1       3.240   2.076  19.202  0.00  0.00    +0.000 A 
ATOM     12  C   UNL     1       3.651   2.395  17.913  0.00  0.00    +0.000 A 
ATOM     13  C   UNL     1       3.589   3.723  17.471  0.00  0.00    +0.000 A 
ATOM     14  C   UNL     1       3.112   4.747  18.278  0.00  0.00    +0.000 A 
ATOM     15  N   UNL     1       3.025   5.986  17.767  0.00  0.00    +0.000 NA
ATOM     16  C   UNL     1       2.487   6.910  18.587  0.00  0.00    +0.000 A 
ATOM     17  S   UNL     1       2.195   8.503  18.052  0.00  0.00    +0.000 S 
ENDBRANCH   2   5
BRANCH   1  18
ATOM     18  N   UNL     1      -1.004  11.457  20.779  0.00  0.00    +0.000 NA
ATOM     19  H   UNL     1      -1.254  12.151  20.064  0.00  0.00    +0.000 HD
BRANCH  18  20
ATOM     20  S   UNL     1      -0.908  11.977  22.376  0.00  0.00    +0.000 S 
ATOM     21  O   UNL     1      -0.154  13.213  22.375  0.00  0.00    +0.000 OA
ATOM     22  O   UNL     1      -0.545  10.841  23.192  0.00  0.00    +0.000 OA
BRANCH  20  27
ATOM     23  C   UNL     1      -6.678  13.423  23.607  0.00  0.00    +0.000 C 
ATOM     24  C   UNL     1      -5.260  13.033  23.304  0.00  0.00    +0.000 A 
ATOM     25  C   UNL     1      -4.394  12.627  24.328  0.00  0.00    +0.000 A 
ATOM     26  C   UNL     1      -3.067  12.299  24.042  0.00  0.00    +0.000 A 
ATOM     27  C   UNL     1      -2.606  12.374  22.725  0.00  0.00    +0.000 A 
ATOM     28  C   UNL     1      -3.461  12.766  21.692  0.00  0.00    +0.000 A 
ATOM     29  C   UNL     1      -4.785  13.095  21.986  0.00  0.00    +0.000 A 
ENDBRANCH  20  27
ENDBRANCH  18  20
ENDBRANCH   1  18
TORSDOF 4
ENDMDL
