MODEL 1
REMARK VINA RESULT:      -7.8      0.000      0.000
REMARK  Name = 
REMARK  8 active torsions:
REMARK  status: ('A' for Active; 'I' for Inactive)
REMARK    1  A    between atoms: C_4  and  C_5
REMARK    2  A    between atoms: C_8  and  N_9
REMARK    3  A    between atoms: N_15  and  C_16
REMARK    4  A    between atoms: C_16  and  C_17
REMARK    5  A    between atoms: C_17  and  C_18
REMARK    6  A    between atoms: N_27  and  C_28
REMARK    7  A    between atoms: C_28  and  C_29
REMARK    8  A    between atoms: C_29  and  C_30
REMARK                            x       y       z     vdW  Elec       q    Type
REMARK                         _______ _______ _______ _____ _____    ______ ____
ROOT
ATOM      1  O   UNL     1      -1.251  12.417  19.413  0.00  0.00    +0.000 OA
ATOM      2  C   UNL     1      -0.438  11.542  19.658  0.00  0.00    +0.000 C 
ATOM      3  C   UNL     1      -0.454  10.685  20.859  0.00  0.00    +0.000 C 
ATOM      4  C   UNL     1      -0.545  11.151  22.122  0.00  0.00    +0.000 C 
ATOM      5  C   UNL     1      -0.045   9.274  20.720  0.00  0.00    +0.000 C 
ATOM      6  O   UNL     1      -0.473   8.389  21.453  0.00  0.00    +0.000 OA
ATOM      7  N   UNL     1       1.061   9.078  19.856  0.00  0.00    +0.000 N 
ATOM      8  S   UNL     1       0.961   9.779  18.331  0.00  0.00    +0.000 S 
ATOM      9  O   UNL     1      -0.259   9.319  17.713  0.00  0.00    +0.000 OA
ATOM     10  O   UNL     1       2.218   9.747  17.633  0.00  0.00    +0.000 OA
ATOM     11  N   UNL     1       0.705  11.329  18.886  0.00  0.00    +0.000 N 
ENDROOT
BRANCH   4  12
ATOM     12  C   UNL     1      -0.753  12.516  22.454  0.00  0.00    +0.000 A 
ATOM     13  C   UNL     1      -1.939  13.150  22.844  0.00  0.00    +0.000 A 
ATOM     14  C   UNL     1      -1.679  14.537  22.997  0.00  0.00    +0.000 A 
ATOM     15  C   UNL     1      -0.337  14.688  22.742  0.00  0.00    +0.000 A 
ATOM     16  O   UNL     1       0.225  13.488  22.461  0.00  0.00    +0.000 OA
BRANCH  15  17
ATOM     17  N   UNL     1       0.512  15.825  22.732  0.00  0.00    +0.000 N 
ATOM     18  O   UNL     1      -0.037  16.924  22.701  0.00  0.00    +0.000 OA
ATOM     19  O   UNL     1       1.754  15.650  22.770  0.00  0.00    +0.000 OA
ENDBRANCH  15  17
ENDBRANCH   4  12
BRANCH   7  20
ATOM     20  C   UNL     1       2.039   8.008  20.178  0.00  0.00    +0.000 C 
BRANCH  20  21
ATOM     21  C   UNL     1       2.424   7.105  19.005  0.00  0.00    +0.000 C 
BRANCH  21  22
ATOM     22  C   UNL     1       1.972   5.677  19.163  0.00  0.00    +0.000 A 
ATOM     23  C   UNL     1       1.899   4.794  18.074  0.00  0.00    +0.000 A 
ATOM     24  C   UNL     1       1.451   3.485  18.262  0.00  0.00    +0.000 A 
ATOM     25  C   UNL     1       1.089   3.047  19.535  0.00  0.00    +0.000 A 
ATOM     26  C   UNL     1       1.188   3.909  20.625  0.00  0.00    +0.000 A 
ATOM     27  C   UNL     1       1.626   5.218  20.438  0.00  0.00    +0.000 A 
ENDBRANCH  21  22
ENDBRANCH  20  21
ENDBRANCH   7  20
BRANCH  11  28
ATOM     28  C   UNL     1       1.671  12.377  18.481  0.00  0.00    +0.000 C 
BRANCH  28  29
ATOM     29  C   UNL     1       1.904  13.408  19.591  0.00  0.00    +0.000 C 
BRANCH  29  30
ATOM     30  C   UNL     1       1.694  14.812  19.090  0.00  0.00    +0.000 A 
ATOM     31  C   UNL     1       0.426  15.400  19.184  0.00  0.00    +0.000 A 
ATOM     32  C   UNL     1       0.197  16.668  18.653  0.00  0.00    +0.000 A 
ATOM     33  C   UNL     1       1.234  17.360  18.031  0.00  0.00    +0.000 A 
ATOM     34  C   UNL     1       2.505  16.792  17.952  0.00  0.00    +0.000 A 
ATOM     35  C   UNL     1       2.737  15.523  18.483  0.00  0.00    +0.000 A 
ENDBRANCH  29  30
ENDBRANCH  28  29
ENDBRANCH  11  28
TORSDOF 8
ENDMDL
MODEL 2
REMARK VINA RESULT:      -7.7      3.104      5.930
REMARK  Name = 
REMARK  8 active torsions:
REMARK  status: ('A' for Active; 'I' for Inactive)
REMARK    1  A    between atoms: C_4  and  C_5
REMARK    2  A    between atoms: C_8  and  N_9
REMARK    3  A    between atoms: N_15  and  C_16
REMARK    4  A    between atoms: C_16  and  C_17
REMARK    5  A    between atoms: C_17  and  C_18
REMARK    6  A    between atoms: N_27  and  C_28
REMARK    7  A    between atoms: C_28  and  C_29
REMARK    8  A    between atoms: C_29  and  C_30
REMARK                            x       y       z     vdW  Elec       q    Type
REMARK                         _______ _______ _______ _____ _____    ______ ____
ROOT
ATOM      1  O   UNL     1      -1.406  12.616  19.042  0.00  0.00    +0.000 OA
ATOM      2  C   UNL     1      -0.870  11.604  19.460  0.00  0.00    +0.000 C 
ATOM      3  C   UNL     1      -0.322  10.526  18.614  0.00  0.00    +0.000 C 
ATOM      4  C   UNL     1      -1.004   9.924  17.618  0.00  0.00    +0.000 C 
ATOM      5  C   UNL     1       0.913   9.847  19.054  0.00  0.00    +0.000 C 
ATOM      6  O   UNL     1       1.703   9.342  18.264  0.00  0.00    +0.000 OA
ATOM      7  N   UNL     1       0.969   9.604  20.449  0.00  0.00    +0.000 N 
ATOM      8  S   UNL     1       0.670  10.916  21.456  0.00  0.00    +0.000 S 
ATOM      9  O   UNL     1       1.577  11.975  21.084  0.00  0.00    +0.000 OA
ATOM     10  O   UNL     1       0.496  10.521  22.828  0.00  0.00    +0.000 OA
ATOM     11  N   UNL     1      -0.827  11.269  20.815  0.00  0.00    +0.000 N 
ENDROOT
BRANCH   4  12
ATOM     12  C   UNL     1      -2.292  10.326  17.178  0.00  0.00    +0.000 A 
ATOM     13  C   UNL     1      -2.680  10.793  15.916  0.00  0.00    +0.000 A 
ATOM     14  C   UNL     1      -4.054  11.145  15.969  0.00  0.00    +0.000 A 
ATOM     15  C   UNL     1      -4.462  10.838  17.244  0.00  0.00    +0.000 A 
ATOM     16  O   UNL     1      -3.433  10.313  17.952  0.00  0.00    +0.000 OA
BRANCH  15  17
ATOM     17  N   UNL     1      -5.712  10.963  17.903  0.00  0.00    +0.000 N 
ATOM     18  O   UNL     1      -6.450  11.868  17.522  0.00  0.00    +0.000 OA
ATOM     19  O   UNL     1      -5.998  10.146  18.814  0.00  0.00    +0.000 OA
ENDBRANCH  15  17
ENDBRANCH   4  12
BRANCH   7  20
ATOM     20  C   UNL     1       1.626   8.362  20.932  0.00  0.00    +0.000 C 
BRANCH  20  21
ATOM     21  C   UNL     1       0.820   7.078  20.723  0.00  0.00    +0.000 C 
BRANCH  21  22
ATOM     22  C   UNL     1       1.665   5.880  20.374  0.00  0.00    +0.000 A 
ATOM     23  C   UNL     1       1.238   4.568  20.630  0.00  0.00    +0.000 A 
ATOM     24  C   UNL     1       2.065   3.488  20.312  0.00  0.00    +0.000 A 
ATOM     25  C   UNL     1       3.309   3.710  19.725  0.00  0.00    +0.000 A 
ATOM     26  C   UNL     1       3.726   5.009  19.441  0.00  0.00    +0.000 A 
ATOM     27  C   UNL     1       2.907   6.087  19.765  0.00  0.00    +0.000 A 
ENDBRANCH  21  22
ENDBRANCH  20  21
ENDBRANCH   7  20
BRANCH  11  28
ATOM     28  C   UNL     1      -1.992  11.257  21.731  0.00  0.00    +0.000 C 
BRANCH  28  29
ATOM     29  C   UNL     1      -2.220  12.621  22.391  0.00  0.00    +0.000 C 
BRANCH  29  30
ATOM     30  C   UNL     1      -3.614  12.734  22.951  0.00  0.00    +0.000 A 
ATOM     31  C   UNL     1      -3.843  12.457  24.305  0.00  0.00    +0.000 A 
ATOM     32  C   UNL     1      -5.138  12.480  24.818  0.00  0.00    +0.000 A 
ATOM     33  C   UNL     1      -6.212  12.786  23.985  0.00  0.00    +0.000 A 
ATOM     34  C   UNL     1      -5.992  13.085  22.642  0.00  0.00    +0.000 A 
ATOM     35  C   UNL     1      -4.696  13.063  22.124  0.00  0.00    +0.000 A 
ENDBRANCH  29  30
ENDBRANCH  28  29
ENDBRANCH  11  28
TORSDOF 8
ENDMDL
MODEL 3
REMARK VINA RESULT:      -7.6      1.038      1.358
REMARK  Name = 
REMARK  8 active torsions:
REMARK  status: ('A' for Active; 'I' for Inactive)
REMARK    1  A    between atoms: C_4  and  C_5
REMARK    2  A    between atoms: C_8  and  N_9
REMARK    3  A    between atoms: N_15  and  C_16
REMARK    4  A    between atoms: C_16  and  C_17
REMARK    5  A    between atoms: C_17  and  C_18
REMARK    6  A    between atoms: N_27  and  C_28
REMARK    7  A    between atoms: C_28  and  C_29
REMARK    8  A    between atoms: C_29  and  C_30
REMARK                            x       y       z     vdW  Elec       q    Type
REMARK                         _______ _______ _______ _____ _____    ______ ____
ROOT
ATOM      1  O   UNL     1      -1.413  12.336  19.602  0.00  0.00    +0.000 OA
ATOM      2  C   UNL     1      -0.555  11.491  19.792  0.00  0.00    +0.000 C 
ATOM      3  C   UNL     1      -0.504  10.585  20.956  0.00  0.00    +0.000 C 
ATOM      4  C   UNL     1      -0.588  10.994  22.238  0.00  0.00    +0.000 C 
ATOM      5  C   UNL     1      -0.034   9.202  20.749  0.00  0.00    +0.000 C 
ATOM      6  O   UNL     1      -0.405   8.269  21.452  0.00  0.00    +0.000 OA
ATOM      7  N   UNL     1       1.060   9.094  19.855  0.00  0.00    +0.000 N 
ATOM      8  S   UNL     1       0.893   9.852  18.363  0.00  0.00    +0.000 S 
ATOM      9  O   UNL     1      -0.318   9.361  17.751  0.00  0.00    +0.000 OA
ATOM     10  O   UNL     1       2.134   9.908  17.639  0.00  0.00    +0.000 OA
ATOM     11  N   UNL     1       0.579  11.364  18.988  0.00  0.00    +0.000 N 
ENDROOT
BRANCH   4  12
ATOM     12  C   UNL     1      -0.851  12.333  22.632  0.00  0.00    +0.000 A 
ATOM     13  C   UNL     1      -2.018  12.867  23.192  0.00  0.00    +0.000 A 
ATOM     14  C   UNL     1      -1.844  14.266  23.348  0.00  0.00    +0.000 A 
ATOM     15  C   UNL     1      -0.564  14.525  22.922  0.00  0.00    +0.000 A 
ATOM     16  O   UNL     1       0.044  13.377  22.537  0.00  0.00    +0.000 OA
BRANCH  15  17
ATOM     17  N   UNL     1       0.189  15.725  22.832  0.00  0.00    +0.000 N 
ATOM     18  O   UNL     1       1.407  15.623  22.951  0.00  0.00    +0.000 OA
ATOM     19  O   UNL     1      -0.419  16.803  22.622  0.00  0.00    +0.000 OA
ENDBRANCH  15  17
ENDBRANCH   4  12
BRANCH   7  20
ATOM     20  C   UNL     1       2.094   8.059  20.111  0.00  0.00    +0.000 C 
BRANCH  20  21
ATOM     21  C   UNL     1       2.406   7.146  18.924  0.00  0.00    +0.000 C 
BRANCH  21  22
ATOM     22  C   UNL     1       1.969   5.718  19.124  0.00  0.00    +0.000 A 
ATOM     23  C   UNL     1       1.894   4.806  18.059  0.00  0.00    +0.000 A 
ATOM     24  C   UNL     1       1.460   3.498  18.287  0.00  0.00    +0.000 A 
ATOM     25  C   UNL     1       1.115   3.090  19.574  0.00  0.00    +0.000 A 
ATOM     26  C   UNL     1       1.216   3.982  20.639  0.00  0.00    +0.000 A 
ATOM     27  C   UNL     1       1.640   5.289  20.414  0.00  0.00    +0.000 A 
ENDBRANCH  21  22
ENDBRANCH  20  21
ENDBRANCH   7  20
BRANCH  11  28
ATOM     28  C   UNL     1       1.487  12.472  18.608  0.00  0.00    +0.000 C 
BRANCH  28  29
ATOM     29  C   UNL     1       2.195  13.081  19.823  0.00  0.00    +0.000 C 
BRANCH  29  30
ATOM     30  C   UNL     1       3.066  14.243  19.426  0.00  0.00    +0.000 A 
ATOM     31  C   UNL     1       3.829  14.904  20.398  0.00  0.00    +0.000 A 
ATOM     32  C   UNL     1       4.577  16.029  20.059  0.00  0.00    +0.000 A 
ATOM     33  C   UNL     1       4.574  16.499  18.748  0.00  0.00    +0.000 A 
ATOM     34  C   UNL     1       3.837  15.835  17.769  0.00  0.00    +0.000 A 
ATOM     35  C   UNL     1       3.085  14.708  18.104  0.00  0.00    +0.000 A 
ENDBRANCH  29  30
ENDBRANCH  28  29
ENDBRANCH  11  28
TORSDOF 8
ENDMDL
MODEL 4
REMARK VINA RESULT:      -7.6      1.104      1.600
REMARK  Name = 
REMARK  8 active torsions:
REMARK  status: ('A' for Active; 'I' for Inactive)
REMARK    1  A    between atoms: C_4  and  C_5
REMARK    2  A    between atoms: C_8  and  N_9
REMARK    3  A    between atoms: N_15  and  C_16
REMARK    4  A    between atoms: C_16  and  C_17
REMARK    5  A    between atoms: C_17  and  C_18
REMARK    6  A    between atoms: N_27  and  C_28
REMARK    7  A    between atoms: C_28  and  C_29
REMARK    8  A    between atoms: C_29  and  C_30
REMARK                            x       y       z     vdW  Elec       q    Type
REMARK                         _______ _______ _______ _____ _____    ______ ____
ROOT
ATOM      1  O   UNL     1      -1.554  12.311  19.677  0.00  0.00    +0.000 OA
ATOM      2  C   UNL     1      -0.664  11.495  19.845  0.00  0.00    +0.000 C 
ATOM      3  C   UNL     1      -0.561  10.583  21.000  0.00  0.00    +0.000 C 
ATOM      4  C   UNL     1      -0.634  10.979  22.287  0.00  0.00    +0.000 C 
ATOM      5  C   UNL     1      -0.048   9.218  20.773  0.00  0.00    +0.000 C 
ATOM      6  O   UNL     1      -0.372   8.267  21.477  0.00  0.00    +0.000 OA
ATOM      7  N   UNL     1       1.033   9.154  19.858  0.00  0.00    +0.000 N 
ATOM      8  S   UNL     1       0.811   9.917  18.376  0.00  0.00    +0.000 S 
ATOM      9  O   UNL     1      -0.393   9.389  17.783  0.00  0.00    +0.000 OA
ATOM     10  O   UNL     1       2.036  10.020  17.629  0.00  0.00    +0.000 OA
ATOM     11  N   UNL     1       0.458  11.413  19.019  0.00  0.00    +0.000 N 
ENDROOT
BRANCH   4  12
ATOM     12  C   UNL     1      -0.934  12.305  22.697  0.00  0.00    +0.000 A 
ATOM     13  C   UNL     1      -2.125  12.804  23.239  0.00  0.00    +0.000 A 
ATOM     14  C   UNL     1      -1.985  14.205  23.421  0.00  0.00    +0.000 A 
ATOM     15  C   UNL     1      -0.702  14.499  23.028  0.00  0.00    +0.000 A 
ATOM     16  O   UNL     1      -0.061  13.370  22.638  0.00  0.00    +0.000 OA
BRANCH  15  17
ATOM     17  N   UNL     1       0.026  15.715  22.974  0.00  0.00    +0.000 N 
ATOM     18  O   UNL     1       1.251  15.629  23.012  0.00  0.00    +0.000 OA
ATOM     19  O   UNL     1      -0.609  16.794  22.875  0.00  0.00    +0.000 OA
ENDBRANCH  15  17
ENDBRANCH   4  12
BRANCH   7  20
ATOM     20  C   UNL     1       2.106   8.153  20.087  0.00  0.00    +0.000 C 
BRANCH  20  21
ATOM     21  C   UNL     1       2.384   7.219  18.908  0.00  0.00    +0.000 C 
BRANCH  21  22
ATOM     22  C   UNL     1       1.951   5.796  19.143  0.00  0.00    +0.000 A 
ATOM     23  C   UNL     1       1.612   5.322  20.420  0.00  0.00    +0.000 A 
ATOM     24  C   UNL     1       1.238   3.987  20.595  0.00  0.00    +0.000 A 
ATOM     25  C   UNL     1       1.186   3.127  19.500  0.00  0.00    +0.000 A 
ATOM     26  C   UNL     1       1.493   3.599  18.226  0.00  0.00    +0.000 A 
ATOM     27  C   UNL     1       1.874   4.927  18.050  0.00  0.00    +0.000 A 
ENDBRANCH  21  22
ENDBRANCH  20  21
ENDBRANCH   7  20
BRANCH  11  28
ATOM     28  C   UNL     1       1.320  12.554  18.630  0.00  0.00    +0.000 C 
BRANCH  28  29
ATOM     29  C   UNL     1       2.160  13.069  19.804  0.00  0.00    +0.000 C 
BRANCH  29  30
ATOM     30  C   UNL     1       2.969  14.276  19.413  0.00  0.00    +0.000 A 
ATOM     31  C   UNL     1       3.185  14.558  18.058  0.00  0.00    +0.000 A 
ATOM     32  C   UNL     1       3.997  15.626  17.682  0.00  0.00    +0.000 A 
ATOM     33  C   UNL     1       4.594  16.424  18.655  0.00  0.00    +0.000 A 
ATOM     34  C   UNL     1       4.367  16.165  20.006  0.00  0.00    +0.000 A 
ATOM     35  C   UNL     1       3.555  15.096  20.387  0.00  0.00    +0.000 A 
ENDBRANCH  29  30
ENDBRANCH  28  29
ENDBRANCH  11  28
TORSDOF 8
ENDMDL
MODEL 5
REMARK VINA RESULT:      -7.6      0.844      1.371
REMARK  Name = 
REMARK  8 active torsions:
REMARK  status: ('A' for Active; 'I' for Inactive)
REMARK    1  A    between atoms: C_4  and  C_5
REMARK    2  A    between atoms: C_8  and  N_9
REMARK    3  A    between atoms: N_15  and  C_16
REMARK    4  A    between atoms: C_16  and  C_17
REMARK    5  A    between atoms: C_17  and  C_18
REMARK    6  A    between atoms: N_27  and  C_28
REMARK    7  A    between atoms: C_28  and  C_29
REMARK    8  A    between atoms: C_29  and  C_30
REMARK                            x       y       z     vdW  Elec       q    Type
REMARK                         _______ _______ _______ _____ _____    ______ ____
ROOT
ATOM      1  O   UNL     1      -1.452  12.263  19.624  0.00  0.00    +0.000 OA
ATOM      2  C   UNL     1      -0.579  11.432  19.805  0.00  0.00    +0.000 C 
ATOM      3  C   UNL     1      -0.526  10.496  20.945  0.00  0.00    +0.000 C 
ATOM      4  C   UNL     1      -0.638  10.868  22.237  0.00  0.00    +0.000 C 
ATOM      5  C   UNL     1      -0.022   9.129  20.708  0.00  0.00    +0.000 C 
ATOM      6  O   UNL     1      -0.382   8.169  21.380  0.00  0.00    +0.000 OA
ATOM      7  N   UNL     1       1.089   9.070  19.829  0.00  0.00    +0.000 N 
ATOM      8  S   UNL     1       0.927   9.865  18.356  0.00  0.00    +0.000 S 
ATOM      9  O   UNL     1      -0.263   9.365  17.712  0.00  0.00    +0.000 OA
ATOM     10  O   UNL     1       2.178   9.968  17.653  0.00  0.00    +0.000 OA
ATOM     11  N   UNL     1       0.570  11.352  19.017  0.00  0.00    +0.000 N 
ENDROOT
BRANCH   4  12
ATOM     12  C   UNL     1      -0.937  12.189  22.663  0.00  0.00    +0.000 A 
ATOM     13  C   UNL     1      -2.072  12.655  23.338  0.00  0.00    +0.000 A 
ATOM     14  C   UNL     1      -1.963  14.062  23.484  0.00  0.00    +0.000 A 
ATOM     15  C   UNL     1      -0.748  14.395  22.936  0.00  0.00    +0.000 A 
ATOM     16  O   UNL     1      -0.117  13.283  22.486  0.00  0.00    +0.000 OA
BRANCH  15  17
ATOM     17  N   UNL     1      -0.077  15.635  22.778  0.00  0.00    +0.000 N 
ATOM     18  O   UNL     1       0.670  15.979  23.690  0.00  0.00    +0.000 OA
ATOM     19  O   UNL     1      -0.270  16.295  21.727  0.00  0.00    +0.000 OA
ENDBRANCH  15  17
ENDBRANCH   4  12
BRANCH   7  20
ATOM     20  C   UNL     1       2.141   8.051  20.074  0.00  0.00    +0.000 C 
BRANCH  20  21
ATOM     21  C   UNL     1       2.399   7.092  18.911  0.00  0.00    +0.000 C 
BRANCH  21  22
ATOM     22  C   UNL     1       1.949   5.679  19.175  0.00  0.00    +0.000 A 
ATOM     23  C   UNL     1       1.602   5.236  20.461  0.00  0.00    +0.000 A 
ATOM     24  C   UNL     1       1.213   3.910  20.664  0.00  0.00    +0.000 A 
ATOM     25  C   UNL     1       1.153   3.027  19.587  0.00  0.00    +0.000 A 
ATOM     26  C   UNL     1       1.467   3.469  18.304  0.00  0.00    +0.000 A 
ATOM     27  C   UNL     1       1.864   4.788  18.101  0.00  0.00    +0.000 A 
ENDBRANCH  21  22
ENDBRANCH  20  21
ENDBRANCH   7  20
BRANCH  11  28
ATOM     28  C   UNL     1       1.459  12.489  18.681  0.00  0.00    +0.000 C 
BRANCH  28  29
ATOM     29  C   UNL     1       2.204  13.022  19.910  0.00  0.00    +0.000 C 
BRANCH  29  30
ATOM     30  C   UNL     1       2.377  14.516  19.843  0.00  0.00    +0.000 A 
ATOM     31  C   UNL     1       3.039  15.186  20.880  0.00  0.00    +0.000 A 
ATOM     32  C   UNL     1       3.137  16.576  20.870  0.00  0.00    +0.000 A 
ATOM     33  C   UNL     1       2.581  17.306  19.822  0.00  0.00    +0.000 A 
ATOM     34  C   UNL     1       1.940  16.647  18.774  0.00  0.00    +0.000 A 
ATOM     35  C   UNL     1       1.840  15.255  18.781  0.00  0.00    +0.000 A 
ENDBRANCH  29  30
ENDBRANCH  28  29
ENDBRANCH  11  28
TORSDOF 8
ENDMDL
MODEL 6
REMARK VINA RESULT:      -7.5      3.145      5.860
REMARK  Name = 
REMARK  8 active torsions:
REMARK  status: ('A' for Active; 'I' for Inactive)
REMARK    1  A    between atoms: C_4  and  C_5
REMARK    2  A    between atoms: C_8  and  N_9
REMARK    3  A    between atoms: N_15  and  C_16
REMARK    4  A    between atoms: C_16  and  C_17
REMARK    5  A    between atoms: C_17  and  C_18
REMARK    6  A    between atoms: N_27  and  C_28
REMARK    7  A    between atoms: C_28  and  C_29
REMARK    8  A    between atoms: C_29  and  C_30
REMARK                            x       y       z     vdW  Elec       q    Type
REMARK                         _______ _______ _______ _____ _____    ______ ____
ROOT
ATOM      1  O   UNL     1      -1.432  12.676  18.975  0.00  0.00    +0.000 OA
ATOM      2  C   UNL     1      -0.914  11.677  19.442  0.00  0.00    +0.000 C 
ATOM      3  C   UNL     1      -0.355  10.564  18.649  0.00  0.00    +0.000 C 
ATOM      4  C   UNL     1      -1.018   9.931  17.660  0.00  0.00    +0.000 C 
ATOM      5  C   UNL     1       0.863   9.893  19.142  0.00  0.00    +0.000 C 
ATOM      6  O   UNL     1       1.667   9.353  18.391  0.00  0.00    +0.000 OA
ATOM      7  N   UNL     1       0.885   9.701  20.547  0.00  0.00    +0.000 N 
ATOM      8  S   UNL     1       0.573  11.053  21.497  0.00  0.00    +0.000 S 
ATOM      9  O   UNL     1       1.497  12.090  21.108  0.00  0.00    +0.000 OA
ATOM     10  O   UNL     1       0.364  10.710  22.879  0.00  0.00    +0.000 OA
ATOM     11  N   UNL     1      -0.905  11.393  20.809  0.00  0.00    +0.000 N 
ENDROOT
BRANCH   4  12
ATOM     12  C   UNL     1      -2.293  10.326  17.176  0.00  0.00    +0.000 A 
ATOM     13  C   UNL     1      -2.659  10.697  15.876  0.00  0.00    +0.000 A 
ATOM     14  C   UNL     1      -4.024  11.085  15.886  0.00  0.00    +0.000 A 
ATOM     15  C   UNL     1      -4.451  10.892  17.177  0.00  0.00    +0.000 A 
ATOM     16  O   UNL     1      -3.441  10.402  17.936  0.00  0.00    +0.000 OA
BRANCH  15  17
ATOM     17  N   UNL     1      -5.703  11.099  17.811  0.00  0.00    +0.000 N 
ATOM     18  O   UNL     1      -6.025  10.290  18.677  0.00  0.00    +0.000 OA
ATOM     19  O   UNL     1      -6.394  12.090  17.469  0.00  0.00    +0.000 OA
ENDBRANCH  15  17
ENDBRANCH   4  12
BRANCH   7  20
ATOM     20  C   UNL     1       1.520   8.474  21.091  0.00  0.00    +0.000 C 
BRANCH  20  21
ATOM     21  C   UNL     1       0.801   7.167  20.753  0.00  0.00    +0.000 C 
BRANCH  21  22
ATOM     22  C   UNL     1       1.725   6.054  20.335  0.00  0.00    +0.000 A 
ATOM     23  C   UNL     1       2.898   6.295  19.602  0.00  0.00    +0.000 A 
ATOM     24  C   UNL     1       3.714   5.229  19.215  0.00  0.00    +0.000 A 
ATOM     25  C   UNL     1       3.373   3.925  19.568  0.00  0.00    +0.000 A 
ATOM     26  C   UNL     1       2.226   3.682  20.321  0.00  0.00    +0.000 A 
ATOM     27  C   UNL     1       1.407   4.742  20.700  0.00  0.00    +0.000 A 
ENDBRANCH  21  22
ENDBRANCH  20  21
ENDBRANCH   7  20
BRANCH  11  28
ATOM     28  C   UNL     1      -2.091  11.423  21.697  0.00  0.00    +0.000 C 
BRANCH  28  29
ATOM     29  C   UNL     1      -2.562  12.854  21.981  0.00  0.00    +0.000 C 
BRANCH  29  30
ATOM     30  C   UNL     1      -4.057  12.915  22.153  0.00  0.00    +0.000 A 
ATOM     31  C   UNL     1      -4.893  12.714  21.047  0.00  0.00    +0.000 A 
ATOM     32  C   UNL     1      -6.274  12.846  21.175  0.00  0.00    +0.000 A 
ATOM     33  C   UNL     1      -6.831  13.174  22.409  0.00  0.00    +0.000 A 
ATOM     34  C   UNL     1      -6.009  13.354  23.520  0.00  0.00    +0.000 A 
ATOM     35  C   UNL     1      -4.626  13.223  23.396  0.00  0.00    +0.000 A 
ENDBRANCH  29  30
ENDBRANCH  28  29
ENDBRANCH  11  28
TORSDOF 8
ENDMDL
MODEL 7
REMARK VINA RESULT:      -7.5      5.362      9.504
REMARK  Name = 
REMARK  8 active torsions:
REMARK  status: ('A' for Active; 'I' for Inactive)
REMARK    1  A    between atoms: C_4  and  C_5
REMARK    2  A    between atoms: C_8  and  N_9
REMARK    3  A    between atoms: N_15  and  C_16
REMARK    4  A    between atoms: C_16  and  C_17
REMARK    5  A    between atoms: C_17  and  C_18
REMARK    6  A    between atoms: N_27  and  C_28
REMARK    7  A    between atoms: C_28  and  C_29
REMARK    8  A    between atoms: C_29  and  C_30
REMARK                            x       y       z     vdW  Elec       q    Type
REMARK                         _______ _______ _______ _____ _____    ______ ____
ROOT
ATOM      1  O   UNL     1       5.487   6.175  19.460  0.00  0.00    +0.000 OA
ATOM      2  C   UNL     1       5.289   5.836  18.306  0.00  0.00    +0.000 C 
ATOM      3  C   UNL     1       4.569   6.641  17.300  0.00  0.00    +0.000 C 
ATOM      4  C   UNL     1       3.353   7.189  17.497  0.00  0.00    +0.000 C 
ATOM      5  C   UNL     1       5.041   6.602  15.902  0.00  0.00    +0.000 C 
ATOM      6  O   UNL     1       4.885   7.541  15.129  0.00  0.00    +0.000 OA
ATOM      7  N   UNL     1       5.444   5.315  15.466  0.00  0.00    +0.000 N 
ATOM      8  S   UNL     1       6.541   4.497  16.444  0.00  0.00    +0.000 S 
ATOM      9  O   UNL     1       7.686   5.354  16.637  0.00  0.00    +0.000 OA
ATOM     10  O   UNL     1       6.688   3.118  16.062  0.00  0.00    +0.000 OA
ATOM     11  N   UNL     1       5.606   4.566  17.822  0.00  0.00    +0.000 N 
ENDROOT
BRANCH   4  12
ATOM     12  C   UNL     1       2.658   7.162  18.735  0.00  0.00    +0.000 A 
ATOM     13  C   UNL     1       2.400   6.067  19.569  0.00  0.00    +0.000 A 
ATOM     14  C   UNL     1       1.605   6.508  20.659  0.00  0.00    +0.000 A 
ATOM     15  C   UNL     1       1.448   7.860  20.474  0.00  0.00    +0.000 A 
ATOM     16  O   UNL     1       2.105   8.260  19.358  0.00  0.00    +0.000 OA
BRANCH  15  17
ATOM     17  N   UNL     1       0.759   8.853  21.217  0.00  0.00    +0.000 N 
ATOM     18  O   UNL     1      -0.253   8.495  21.813  0.00  0.00    +0.000 OA
ATOM     19  O   UNL     1       1.223  10.020  21.238  0.00  0.00    +0.000 OA
ENDBRANCH  15  17
ENDBRANCH   4  12
BRANCH   7  20
ATOM     20  C   UNL     1       5.189   4.925  14.056  0.00  0.00    +0.000 C 
BRANCH  20  21
ATOM     21  C   UNL     1       6.441   4.718  13.202  0.00  0.00    +0.000 C 
BRANCH  21  22
ATOM     22  C   UNL     1       6.384   3.494  12.326  0.00  0.00    +0.000 A 
ATOM     23  C   UNL     1       5.172   2.861  12.008  0.00  0.00    +0.000 A 
ATOM     24  C   UNL     1       5.170   1.714  11.211  0.00  0.00    +0.000 A 
ATOM     25  C   UNL     1       6.369   1.204  10.716  0.00  0.00    +0.000 A 
ATOM     26  C   UNL     1       7.571   1.847  11.002  0.00  0.00    +0.000 A 
ATOM     27  C   UNL     1       7.577   2.985  11.804  0.00  0.00    +0.000 A 
ENDBRANCH  21  22
ENDBRANCH  20  21
ENDBRANCH   7  20
BRANCH  11  28
ATOM     28  C   UNL     1       5.224   3.286  18.463  0.00  0.00    +0.000 C 
BRANCH  28  29
ATOM     29  C   UNL     1       3.840   2.805  18.012  0.00  0.00    +0.000 C 
BRANCH  29  30
ATOM     30  C   UNL     1       2.874   2.753  19.166  0.00  0.00    +0.000 A 
ATOM     31  C   UNL     1       1.496   2.818  18.922  0.00  0.00    +0.000 A 
ATOM     32  C   UNL     1       0.594   2.851  19.983  0.00  0.00    +0.000 A 
ATOM     33  C   UNL     1       1.061   2.812  21.295  0.00  0.00    +0.000 A 
ATOM     34  C   UNL     1       2.429   2.725  21.548  0.00  0.00    +0.000 A 
ATOM     35  C   UNL     1       3.335   2.692  20.487  0.00  0.00    +0.000 A 
ENDBRANCH  29  30
ENDBRANCH  28  29
ENDBRANCH  11  28
TORSDOF 8
ENDMDL
MODEL 8
REMARK VINA RESULT:      -7.4      1.904      2.217
REMARK  Name = 
REMARK  8 active torsions:
REMARK  status: ('A' for Active; 'I' for Inactive)
REMARK    1  A    between atoms: C_4  and  C_5
REMARK    2  A    between atoms: C_8  and  N_9
REMARK    3  A    between atoms: N_15  and  C_16
REMARK    4  A    between atoms: C_16  and  C_17
REMARK    5  A    between atoms: C_17  and  C_18
REMARK    6  A    between atoms: N_27  and  C_28
REMARK    7  A    between atoms: C_28  and  C_29
REMARK    8  A    between atoms: C_29  and  C_30
REMARK                            x       y       z     vdW  Elec       q    Type
REMARK                         _______ _______ _______ _____ _____    ______ ____
ROOT
ATOM      1  O   UNL     1      -1.685  12.250  19.672  0.00  0.00    +0.000 OA
ATOM      2  C   UNL     1      -0.777  11.457  19.853  0.00  0.00    +0.000 C 
ATOM      3  C   UNL     1      -0.685  10.523  20.992  0.00  0.00    +0.000 C 
ATOM      4  C   UNL     1      -0.814  10.889  22.284  0.00  0.00    +0.000 C 
ATOM      5  C   UNL     1      -0.122   9.180  20.755  0.00  0.00    +0.000 C 
ATOM      6  O   UNL     1      -0.441   8.205  21.426  0.00  0.00    +0.000 OA
ATOM      7  N   UNL     1       0.990   9.169  19.876  0.00  0.00    +0.000 N 
ATOM      8  S   UNL     1       0.795   9.957  18.404  0.00  0.00    +0.000 S 
ATOM      9  O   UNL     1      -0.372   9.407  17.758  0.00  0.00    +0.000 OA
ATOM     10  O   UNL     1       2.041  10.114  17.701  0.00  0.00    +0.000 OA
ATOM     11  N   UNL     1       0.374  11.427  19.065  0.00  0.00    +0.000 N 
ENDROOT
BRANCH   4  12
ATOM     12  C   UNL     1      -1.169  12.196  22.711  0.00  0.00    +0.000 A 
ATOM     13  C   UNL     1      -0.429  13.381  22.609  0.00  0.00    +0.000 A 
ATOM     14  C   UNL     1      -1.157  14.422  23.242  0.00  0.00    +0.000 A 
ATOM     15  C   UNL     1      -2.331  13.845  23.663  0.00  0.00    +0.000 A 
ATOM     16  O   UNL     1      -2.361  12.536  23.313  0.00  0.00    +0.000 OA
BRANCH  15  17
ATOM     17  N   UNL     1      -3.456  14.363  24.355  0.00  0.00    +0.000 N 
ATOM     18  O   UNL     1      -3.236  15.234  25.192  0.00  0.00    +0.000 OA
ATOM     19  O   UNL     1      -4.595  13.920  24.069  0.00  0.00    +0.000 OA
ENDBRANCH  15  17
ENDBRANCH   4  12
BRANCH   7  20
ATOM     20  C   UNL     1       2.085   8.196  20.120  0.00  0.00    +0.000 C 
BRANCH  20  21
ATOM     21  C   UNL     1       2.425   7.290  18.936  0.00  0.00    +0.000 C 
BRANCH  21  22
ATOM     22  C   UNL     1       1.996   5.858  19.121  0.00  0.00    +0.000 A 
ATOM     23  C   UNL     1       1.915   4.960  18.046  0.00  0.00    +0.000 A 
ATOM     24  C   UNL     1       1.490   3.647  18.261  0.00  0.00    +0.000 A 
ATOM     25  C   UNL     1       1.158   3.221  19.546  0.00  0.00    +0.000 A 
ATOM     26  C   UNL     1       1.264   4.100  20.621  0.00  0.00    +0.000 A 
ATOM     27  C   UNL     1       1.681   5.412  20.408  0.00  0.00    +0.000 A 
ENDBRANCH  21  22
ENDBRANCH  20  21
ENDBRANCH   7  20
BRANCH  11  28
ATOM     28  C   UNL     1       1.213  12.602  18.731  0.00  0.00    +0.000 C 
BRANCH  28  29
ATOM     29  C   UNL     1       2.055  13.068  19.924  0.00  0.00    +0.000 C 
BRANCH  29  30
ATOM     30  C   UNL     1       3.098  14.070  19.502  0.00  0.00    +0.000 A 
ATOM     31  C   UNL     1       3.266  14.367  18.143  0.00  0.00    +0.000 A 
ATOM     32  C   UNL     1       4.279  15.232  17.733  0.00  0.00    +0.000 A 
ATOM     33  C   UNL     1       5.125  15.811  18.675  0.00  0.00    +0.000 A 
ATOM     34  C   UNL     1       4.951  15.539  20.032  0.00  0.00    +0.000 A 
ATOM     35  C   UNL     1       3.938  14.673  20.447  0.00  0.00    +0.000 A 
ENDBRANCH  29  30
ENDBRANCH  28  29
ENDBRANCH  11  28
TORSDOF 8
ENDMDL
MODEL 9
REMARK VINA RESULT:      -7.3      1.567      1.807
REMARK  Name = 
REMARK  8 active torsions:
REMARK  status: ('A' for Active; 'I' for Inactive)
REMARK    1  A    between atoms: C_4  and  C_5
REMARK    2  A    between atoms: C_8  and  N_9
REMARK    3  A    between atoms: N_15  and  C_16
REMARK    4  A    between atoms: C_16  and  C_17
REMARK    5  A    between atoms: C_17  and  C_18
REMARK    6  A    between atoms: N_27  and  C_28
REMARK    7  A    between atoms: C_28  and  C_29
REMARK    8  A    between atoms: C_29  and  C_30
REMARK                            x       y       z     vdW  Elec       q    Type
REMARK                         _______ _______ _______ _____ _____    ______ ____
ROOT
ATOM      1  O   UNL     1      -1.504  12.277  19.393  0.00  0.00    +0.000 OA
ATOM      2  C   UNL     1      -0.638  11.458  19.646  0.00  0.00    +0.000 C 
ATOM      3  C   UNL     1      -0.614  10.595  20.843  0.00  0.00    +0.000 C 
ATOM      4  C   UNL     1      -0.756  11.047  22.106  0.00  0.00    +0.000 C 
ATOM      5  C   UNL     1      -0.110   9.215  20.704  0.00  0.00    +0.000 C 
ATOM      6  O   UNL     1      -0.489   8.300  21.426  0.00  0.00    +0.000 OA
ATOM      7  N   UNL     1       1.021   9.099  19.857  0.00  0.00    +0.000 N 
ATOM      8  S   UNL     1       0.896   9.800  18.334  0.00  0.00    +0.000 S 
ATOM      9  O   UNL     1      -0.280   9.263  17.694  0.00  0.00    +0.000 OA
ATOM     10  O   UNL     1       2.164   9.857  17.655  0.00  0.00    +0.000 OA
ATOM     11  N   UNL     1       0.529  11.327  18.892  0.00  0.00    +0.000 N 
ENDROOT
BRANCH   4  12
ATOM     12  C   UNL     1      -1.060  12.393  22.442  0.00  0.00    +0.000 A 
ATOM     13  C   UNL     1      -0.217  13.511  22.421  0.00  0.00    +0.000 A 
ATOM     14  C   UNL     1      -0.941  14.629  22.911  0.00  0.00    +0.000 A 
ATOM     15  C   UNL     1      -2.207  14.162  23.167  0.00  0.00    +0.000 A 
ATOM     16  O   UNL     1      -2.295  12.848  22.851  0.00  0.00    +0.000 OA
BRANCH  15  17
ATOM     17  N   UNL     1      -3.375  14.792  23.671  0.00  0.00    +0.000 N 
ATOM     18  O   UNL     1      -4.209  15.151  22.844  0.00  0.00    +0.000 OA
ATOM     19  O   UNL     1      -3.496  14.932  24.913  0.00  0.00    +0.000 OA
ENDBRANCH  15  17
ENDBRANCH   4  12
BRANCH   7  20
ATOM     20  C   UNL     1       2.063   8.095  20.189  0.00  0.00    +0.000 C 
BRANCH  20  21
ATOM     21  C   UNL     1       2.475   7.180  19.035  0.00  0.00    +0.000 C 
BRANCH  21  22
ATOM     22  C   UNL     1       1.992   5.760  19.182  0.00  0.00    +0.000 A 
ATOM     23  C   UNL     1       1.906   4.885  18.088  0.00  0.00    +0.000 A 
ATOM     24  C   UNL     1       1.430   3.584  18.267  0.00  0.00    +0.000 A 
ATOM     25  C   UNL     1       1.053   3.147  19.535  0.00  0.00    +0.000 A 
ATOM     26  C   UNL     1       1.164   4.001  20.630  0.00  0.00    +0.000 A 
ATOM     27  C   UNL     1       1.631   5.301  20.453  0.00  0.00    +0.000 A 
ENDBRANCH  21  22
ENDBRANCH  20  21
ENDBRANCH   7  20
BRANCH  11  28
ATOM     28  C   UNL     1       1.429  12.439  18.506  0.00  0.00    +0.000 C 
BRANCH  28  29
ATOM     29  C   UNL     1       1.985  13.180  19.727  0.00  0.00    +0.000 C 
BRANCH  29  30
ATOM     30  C   UNL     1       1.592  14.634  19.714  0.00  0.00    +0.000 A 
ATOM     31  C   UNL     1       2.334  15.562  20.456  0.00  0.00    +0.000 A 
ATOM     32  C   UNL     1       1.935  16.895  20.515  0.00  0.00    +0.000 A 
ATOM     33  C   UNL     1       0.796  17.313  19.830  0.00  0.00    +0.000 A 
ATOM     34  C   UNL     1       0.063  16.402  19.071  0.00  0.00    +0.000 A 
ATOM     35  C   UNL     1       0.460  15.065  19.009  0.00  0.00    +0.000 A 
ENDBRANCH  29  30
ENDBRANCH  28  29
ENDBRANCH  11  28
TORSDOF 8
ENDMDL
