MODEL 1
REMARK VINA RESULT:      -6.9      0.000      0.000
REMARK  Name = 
REMARK  2 active torsions:
REMARK  status: ('A' for Active; 'I' for Inactive)
REMARK    1  A    between atoms: N_4  and  C_5
REMARK    2  A    between atoms: C_9  and  C_10
REMARK                            x       y       z     vdW  Elec       q    Type
REMARK                         _______ _______ _______ _____ _____    ______ ____
ROOT
ATOM      1  C   UNL     1       4.621   3.953  17.694  0.00  0.00    +0.000 A 
ATOM      2  C   UNL     1       5.477   4.455  18.687  0.00  0.00    +0.000 A 
ATOM      3  C   UNL     1       6.736   4.959  18.356  0.00  0.00    +0.000 A 
ATOM      4  C   UNL     1       7.155   4.985  17.025  0.00  0.00    +0.000 A 
ATOM      5  C   UNL     1       6.307   4.522  16.004  0.00  0.00    +0.000 A 
ATOM      6  C   UNL     1       5.042   4.012  16.348  0.00  0.00    +0.000 A 
ENDROOT
BRANCH   1  10
ATOM      7  N   UNL     1       4.030   1.152  18.360  0.00  0.00    +0.000 NA
ATOM      8  C   UNL     1       3.087   2.023  18.351  0.00  0.00    +0.000 C 
ATOM      9  N   UNL     1       1.762   1.619  18.671  0.00  0.00    +0.000 N 
ATOM     10  N   UNL     1       3.356   3.406  18.090  0.00  0.00    +0.000 N 
ATOM     11  H   UNL     1       3.854   0.159  18.572  0.00  0.00    +0.000 HD
ATOM     12  H   UNL     1       1.553   0.636  18.888  0.00  0.00    +0.000 HD
ATOM     13  H   UNL     1       0.995   2.305  18.672  0.00  0.00    +0.000 HD
ATOM     14  H   UNL     1       2.597   4.070  18.306  0.00  0.00    +0.000 HD
ENDBRANCH   1  10
BRANCH   5  15
ATOM     15  C   UNL     1       6.722   4.554  14.580  0.00  0.00    +0.000 A 
ATOM     16  C   UNL     1       6.217   3.795  13.539  0.00  0.00    +0.000 A 
ATOM     17  N   UNL     1       6.864   4.146  12.417  0.00  0.00    +0.000 N 
ATOM     18  C   UNL     1       7.745   5.095  12.779  0.00  0.00    +0.000 A 
ATOM     19  N   UNL     1       7.683   5.371  14.097  0.00  0.00    +0.000 NA
ATOM     20  H   UNL     1       6.714   3.759  11.459  0.00  0.00    +0.000 HD
ENDBRANCH   5  15
TORSDOF 2
ENDMDL
MODEL 2
REMARK VINA RESULT:      -6.7      2.013      5.893
REMARK  Name = 
REMARK  2 active torsions:
REMARK  status: ('A' for Active; 'I' for Inactive)
REMARK    1  A    between atoms: N_4  and  C_5
REMARK    2  A    between atoms: C_9  and  C_10
REMARK                            x       y       z     vdW  Elec       q    Type
REMARK                         _______ _______ _______ _____ _____    ______ ____
ROOT
ATOM      1  C   UNL     1       4.828   5.793  16.281  0.00  0.00    +0.000 A 
ATOM      2  C   UNL     1       4.581   7.028  16.901  0.00  0.00    +0.000 A 
ATOM      3  C   UNL     1       3.618   7.142  17.905  0.00  0.00    +0.000 A 
ATOM      4  C   UNL     1       2.897   6.020  18.318  0.00  0.00    +0.000 A 
ATOM      5  C   UNL     1       3.145   4.763  17.741  0.00  0.00    +0.000 A 
ATOM      6  C   UNL     1       4.115   4.660  16.727  0.00  0.00    +0.000 A 
ENDROOT
BRANCH   1  10
ATOM      7  N   UNL     1       7.543   4.674  16.420  0.00  0.00    +0.000 NA
ATOM      8  C   UNL     1       7.134   5.239  15.341  0.00  0.00    +0.000 C 
ATOM      9  N   UNL     1       8.005   5.309  14.220  0.00  0.00    +0.000 N 
ATOM     10  N   UNL     1       5.796   5.737  15.225  0.00  0.00    +0.000 N 
ATOM     11  H   UNL     1       8.494   4.287  16.507  0.00  0.00    +0.000 HD
ATOM     12  H   UNL     1       8.960   4.931  14.273  0.00  0.00    +0.000 HD
ATOM     13  H   UNL     1       7.692   5.754  13.346  0.00  0.00    +0.000 HD
ATOM     14  H   UNL     1       5.478   5.980  14.275  0.00  0.00    +0.000 HD
ENDBRANCH   1  10
BRANCH   5  15
ATOM     15  C   UNL     1       2.404   3.553  18.173  0.00  0.00    +0.000 A 
ATOM     16  C   UNL     1       2.851   2.244  18.159  0.00  0.00    +0.000 A 
ATOM     17  N   UNL     1       1.870   1.465  18.644  0.00  0.00    +0.000 N 
ATOM     18  C   UNL     1       0.853   2.293  18.939  0.00  0.00    +0.000 A 
ATOM     19  N   UNL     1       1.147   3.579  18.665  0.00  0.00    +0.000 NA
ATOM     20  H   UNL     1       1.894   0.428  18.765  0.00  0.00    +0.000 HD
ENDBRANCH   5  15
TORSDOF 2
ENDMDL
MODEL 3
REMARK VINA RESULT:      -6.6      1.528      1.766
REMARK  Name = 
REMARK  2 active torsions:
REMARK  status: ('A' for Active; 'I' for Inactive)
REMARK    1  A    between atoms: N_4  and  C_5
REMARK    2  A    between atoms: C_9  and  C_10
REMARK                            x       y       z     vdW  Elec       q    Type
REMARK                         _______ _______ _______ _____ _____    ______ ____
ROOT
ATOM      1  C   UNL     1       5.402   4.527  18.040  0.00  0.00    +0.000 A 
ATOM      2  C   UNL     1       4.694   5.727  18.211  0.00  0.00    +0.000 A 
ATOM      3  C   UNL     1       4.588   6.647  17.167  0.00  0.00    +0.000 A 
ATOM      4  C   UNL     1       5.173   6.378  15.929  0.00  0.00    +0.000 A 
ATOM      5  C   UNL     1       5.859   5.170  15.716  0.00  0.00    +0.000 A 
ATOM      6  C   UNL     1       5.965   4.251  16.775  0.00  0.00    +0.000 A 
ENDROOT
BRANCH   1  10
ATOM      7  N   UNL     1       3.535   2.390  18.807  0.00  0.00    +0.000 NA
ATOM      8  C   UNL     1       4.561   2.641  19.538  0.00  0.00    +0.000 C 
ATOM      9  N   UNL     1       4.784   1.872  20.712  0.00  0.00    +0.000 N 
ATOM     10  N   UNL     1       5.520   3.634  19.156  0.00  0.00    +0.000 N 
ATOM     11  H   UNL     1       2.853   1.659  19.057  0.00  0.00    +0.000 HD
ATOM     12  H   UNL     1       4.123   1.134  20.989  0.00  0.00    +0.000 HD
ATOM     13  H   UNL     1       5.604   2.056  21.307  0.00  0.00    +0.000 HD
ATOM     14  H   UNL     1       6.413   3.633  19.671  0.00  0.00    +0.000 HD
ENDBRANCH   1  10
BRANCH   5  15
ATOM     15  C   UNL     1       6.476   4.852  14.404  0.00  0.00    +0.000 A 
ATOM     16  C   UNL     1       6.070   3.892  13.495  0.00  0.00    +0.000 A 
ATOM     17  N   UNL     1       6.896   3.945  12.438  0.00  0.00    +0.000 N 
ATOM     18  C   UNL     1       7.785   4.916  12.713  0.00  0.00    +0.000 A 
ATOM     19  N   UNL     1       7.556   5.494  13.908  0.00  0.00    +0.000 NA
ATOM     20  H   UNL     1       6.857   3.352  11.580  0.00  0.00    +0.000 HD
ENDBRANCH   5  15
TORSDOF 2
ENDMDL
MODEL 4
REMARK VINA RESULT:      -6.5      2.574      3.174
REMARK  Name = 
REMARK  2 active torsions:
REMARK  status: ('A' for Active; 'I' for Inactive)
REMARK    1  A    between atoms: N_4  and  C_5
REMARK    2  A    between atoms: C_9  and  C_10
REMARK                            x       y       z     vdW  Elec       q    Type
REMARK                         _______ _______ _______ _____ _____    ______ ____
ROOT
ATOM      1  C   UNL     1       2.526   5.265  18.391  0.00  0.00    +0.000 A 
ATOM      2  C   UNL     1       2.256   6.631  18.566  0.00  0.00    +0.000 A 
ATOM      3  C   UNL     1       3.071   7.600  17.979  0.00  0.00    +0.000 A 
ATOM      4  C   UNL     1       4.161   7.221  17.193  0.00  0.00    +0.000 A 
ATOM      5  C   UNL     1       4.437   5.861  16.971  0.00  0.00    +0.000 A 
ATOM      6  C   UNL     1       3.613   4.892  17.570  0.00  0.00    +0.000 A 
ENDROOT
BRANCH   1  10
ATOM      7  N   UNL     1       2.382   4.723  21.277  0.00  0.00    +0.000 NA
ATOM      8  C   UNL     1       1.682   4.026  20.456  0.00  0.00    +0.000 C 
ATOM      9  N   UNL     1       0.837   3.000  20.958  0.00  0.00    +0.000 N 
ATOM     10  N   UNL     1       1.686   4.309  19.051  0.00  0.00    +0.000 N 
ATOM     11  H   UNL     1       2.367   4.548  22.292  0.00  0.00    +0.000 HD
ATOM     12  H   UNL     1       0.797   2.800  21.966  0.00  0.00    +0.000 HD
ATOM     13  H   UNL     1       0.266   2.435  20.314  0.00  0.00    +0.000 HD
ATOM     14  H   UNL     1       0.949   3.855  18.489  0.00  0.00    +0.000 HD
ENDBRANCH   1  10
BRANCH   5  15
ATOM     15  C   UNL     1       5.580   5.432  16.127  0.00  0.00    +0.000 A 
ATOM     16  C   UNL     1       6.917   5.741  16.302  0.00  0.00    +0.000 A 
ATOM     17  N   UNL     1       7.613   5.142  15.324  0.00  0.00    +0.000 N 
ATOM     18  C   UNL     1       6.708   4.489  14.573  0.00  0.00    +0.000 A 
ATOM     19  N   UNL     1       5.453   4.643  15.038  0.00  0.00    +0.000 NA
ATOM     20  H   UNL     1       8.646   5.177  15.175  0.00  0.00    +0.000 HD
ENDBRANCH   5  15
TORSDOF 2
ENDMDL
MODEL 5
REMARK VINA RESULT:      -6.5      3.323      4.742
REMARK  Name = 
REMARK  2 active torsions:
REMARK  status: ('A' for Active; 'I' for Inactive)
REMARK    1  A    between atoms: N_4  and  C_5
REMARK    2  A    between atoms: C_9  and  C_10
REMARK                            x       y       z     vdW  Elec       q    Type
REMARK                         _______ _______ _______ _____ _____    ______ ____
ROOT
ATOM      1  C   UNL     1       2.514   5.396  19.662  0.00  0.00    +0.000 A 
ATOM      2  C   UNL     1       1.581   4.562  19.026  0.00  0.00    +0.000 A 
ATOM      3  C   UNL     1       1.961   3.753  17.954  0.00  0.00    +0.000 A 
ATOM      4  C   UNL     1       3.284   3.751  17.509  0.00  0.00    +0.000 A 
ATOM      5  C   UNL     1       4.250   4.549  18.147  0.00  0.00    +0.000 A 
ATOM      6  C   UNL     1       3.856   5.364  19.223  0.00  0.00    +0.000 A 
ENDROOT
BRANCH   1  10
ATOM      7  N   UNL     1       1.810   8.245  19.494  0.00  0.00    +0.000 NA
ATOM      8  C   UNL     1       1.786   7.642  20.628  0.00  0.00    +0.000 C 
ATOM      9  N   UNL     1       1.411   8.365  21.793  0.00  0.00    +0.000 N 
ATOM     10  N   UNL     1       2.065   6.240  20.730  0.00  0.00    +0.000 N 
ATOM     11  H   UNL     1       1.585   9.246  19.404  0.00  0.00    +0.000 HD
ATOM     12  H   UNL     1       1.180   9.365  21.737  0.00  0.00    +0.000 HD
ATOM     13  H   UNL     1       1.383   7.896  22.709  0.00  0.00    +0.000 HD
ATOM     14  H   UNL     1       1.822   5.788  21.624  0.00  0.00    +0.000 HD
ENDBRANCH   1  10
BRANCH   5  15
ATOM     15  C   UNL     1       5.666   4.553  17.703  0.00  0.00    +0.000 A 
ATOM     16  C   UNL     1       6.139   4.582  16.404  0.00  0.00    +0.000 A 
ATOM     17  N   UNL     1       7.480   4.586  16.451  0.00  0.00    +0.000 N 
ATOM     18  C   UNL     1       7.805   4.555  17.755  0.00  0.00    +0.000 A 
ATOM     19  N   UNL     1       6.717   4.537  18.550  0.00  0.00    +0.000 NA
ATOM     20  H   UNL     1       8.137   4.607  15.639  0.00  0.00    +0.000 HD
ENDBRANCH   5  15
TORSDOF 2
ENDMDL
MODEL 6
REMARK VINA RESULT:      -6.5      2.536      3.323
REMARK  Name = 
REMARK  2 active torsions:
REMARK  status: ('A' for Active; 'I' for Inactive)
REMARK    1  A    between atoms: N_4  and  C_5
REMARK    2  A    between atoms: C_9  and  C_10
REMARK                            x       y       z     vdW  Elec       q    Type
REMARK                         _______ _______ _______ _____ _____    ______ ____
ROOT
ATOM      1  C   UNL     1       3.146   4.857  19.693  0.00  0.00    +0.000 A 
ATOM      2  C   UNL     1       2.470   6.081  19.575  0.00  0.00    +0.000 A 
ATOM      3  C   UNL     1       2.779   6.972  18.546  0.00  0.00    +0.000 A 
ATOM      4  C   UNL     1       3.759   6.647  17.606  0.00  0.00    +0.000 A 
ATOM      5  C   UNL     1       4.431   5.414  17.677  0.00  0.00    +0.000 A 
ATOM      6  C   UNL     1       4.115   4.526  18.720  0.00  0.00    +0.000 A 
ENDROOT
BRANCH   1  10
ATOM      7  N   UNL     1       0.660   3.340  20.086  0.00  0.00    +0.000 NA
ATOM      8  C   UNL     1       1.576   3.317  20.985  0.00  0.00    +0.000 C 
ATOM      9  N   UNL     1       1.377   2.547  22.163  0.00  0.00    +0.000 N 
ATOM     10  N   UNL     1       2.823   3.996  20.792  0.00  0.00    +0.000 N 
ATOM     11  H   UNL     1      -0.230   2.833  20.200  0.00  0.00    +0.000 HD
ATOM     12  H   UNL     1       0.500   2.029  22.308  0.00  0.00    +0.000 HD
ATOM     13  H   UNL     1       2.103   2.514  22.892  0.00  0.00    +0.000 HD
ATOM     14  H   UNL     1       3.581   3.762  21.452  0.00  0.00    +0.000 HD
ENDBRANCH   1  10
BRANCH   5  15
ATOM     15  C   UNL     1       5.465   5.039  16.681  0.00  0.00    +0.000 A 
ATOM     16  C   UNL     1       6.819   5.323  16.728  0.00  0.00    +0.000 A 
ATOM     17  N   UNL     1       7.392   4.792  15.637  0.00  0.00    +0.000 N 
ATOM     18  C   UNL     1       6.399   4.205  14.946  0.00  0.00    +0.000 A 
ATOM     19  N   UNL     1       5.206   4.335  15.559  0.00  0.00    +0.000 NA
ATOM     20  H   UNL     1       8.403   4.829  15.377  0.00  0.00    +0.000 HD
ENDBRANCH   5  15
TORSDOF 2
ENDMDL
MODEL 7
REMARK VINA RESULT:      -6.5      2.176      3.584
REMARK  Name = 
REMARK  2 active torsions:
REMARK  status: ('A' for Active; 'I' for Inactive)
REMARK    1  A    between atoms: N_4  and  C_5
REMARK    2  A    between atoms: C_9  and  C_10
REMARK                            x       y       z     vdW  Elec       q    Type
REMARK                         _______ _______ _______ _____ _____    ______ ____
ROOT
ATOM      1  C   UNL     1       4.532   4.051  16.706  0.00  0.00    +0.000 A 
ATOM      2  C   UNL     1       4.960   3.573  15.457  0.00  0.00    +0.000 A 
ATOM      3  C   UNL     1       6.113   4.081  14.856  0.00  0.00    +0.000 A 
ATOM      4  C   UNL     1       6.866   5.064  15.499  0.00  0.00    +0.000 A 
ATOM      5  C   UNL     1       6.483   5.539  16.766  0.00  0.00    +0.000 A 
ATOM      6  C   UNL     1       5.318   5.024  17.361  0.00  0.00    +0.000 A 
ENDROOT
BRANCH   1  10
ATOM      7  N   UNL     1       4.168   1.469  18.063  0.00  0.00    +0.000 NA
ATOM      8  C   UNL     1       3.159   2.239  17.864  0.00  0.00    +0.000 C 
ATOM      9  N   UNL     1       1.874   1.831  18.312  0.00  0.00    +0.000 N 
ATOM     10  N   UNL     1       3.317   3.529  17.261  0.00  0.00    +0.000 N 
ATOM     11  H   UNL     1       4.072   0.551  18.521  0.00  0.00    +0.000 HD
ATOM     12  H   UNL     1       1.744   0.921  18.774  0.00  0.00    +0.000 HD
ATOM     13  H   UNL     1       1.055   2.438  18.165  0.00  0.00    +0.000 HD
ATOM     14  H   UNL     1       2.511   4.168  17.326  0.00  0.00    +0.000 HD
ENDBRANCH   1  10
BRANCH   5  15
ATOM     15  C   UNL     1       7.276   6.571  17.477  0.00  0.00    +0.000 A 
ATOM     16  C   UNL     1       7.902   6.452  18.705  0.00  0.00    +0.000 A 
ATOM     17  N   UNL     1       8.516   7.615  18.973  0.00  0.00    +0.000 N 
ATOM     18  C   UNL     1       8.258   8.419  17.926  0.00  0.00    +0.000 A 
ATOM     19  N   UNL     1       7.503   7.810  16.990  0.00  0.00    +0.000 NA
ATOM     20  H   UNL     1       9.077   7.848  19.822  0.00  0.00    +0.000 HD
ENDBRANCH   5  15
TORSDOF 2
ENDMDL
MODEL 8
REMARK VINA RESULT:      -6.5      3.099      4.428
REMARK  Name = 
REMARK  2 active torsions:
REMARK  status: ('A' for Active; 'I' for Inactive)
REMARK    1  A    between atoms: N_4  and  C_5
REMARK    2  A    between atoms: C_9  and  C_10
REMARK                            x       y       z     vdW  Elec       q    Type
REMARK                         _______ _______ _______ _____ _____    ______ ____
ROOT
ATOM      1  C   UNL     1       2.624   5.280  19.304  0.00  0.00    +0.000 A 
ATOM      2  C   UNL     1       1.671   4.358  18.842  0.00  0.00    +0.000 A 
ATOM      3  C   UNL     1       1.953   3.524  17.759  0.00  0.00    +0.000 A 
ATOM      4  C   UNL     1       3.197   3.585  17.129  0.00  0.00    +0.000 A 
ATOM      5  C   UNL     1       4.184   4.473  17.590  0.00  0.00    +0.000 A 
ATOM      6  C   UNL     1       3.889   5.312  18.679  0.00  0.00    +0.000 A 
ENDROOT
BRANCH   1  10
ATOM      7  N   UNL     1       1.887   8.121  19.143  0.00  0.00    +0.000 NA
ATOM      8  C   UNL     1       1.975   7.543  20.287  0.00  0.00    +0.000 C 
ATOM      9  N   UNL     1       1.706   8.289  21.466  0.00  0.00    +0.000 N 
ATOM     10  N   UNL     1       2.271   6.145  20.392  0.00  0.00    +0.000 N 
ATOM     11  H   UNL     1       1.648   9.119  19.053  0.00  0.00    +0.000 HD
ATOM     12  H   UNL     1       1.463   9.287  21.411  0.00  0.00    +0.000 HD
ATOM     13  H   UNL     1       1.767   7.841  22.391  0.00  0.00    +0.000 HD
ATOM     14  H   UNL     1       2.118   5.711  21.314  0.00  0.00    +0.000 HD
ENDBRANCH   1  10
BRANCH   5  15
ATOM     15  C   UNL     1       5.520   4.545  16.948  0.00  0.00    +0.000 A 
ATOM     16  C   UNL     1       6.754   4.541  17.572  0.00  0.00    +0.000 A 
ATOM     17  N   UNL     1       7.700   4.610  16.623  0.00  0.00    +0.000 N 
ATOM     18  C   UNL     1       7.044   4.659  15.450  0.00  0.00    +0.000 A 
ATOM     19  N   UNL     1       5.707   4.619  15.612  0.00  0.00    +0.000 NA
ATOM     20  H   UNL     1       8.734   4.624  16.767  0.00  0.00    +0.000 HD
ENDBRANCH   5  15
TORSDOF 2
ENDMDL
MODEL 9
REMARK VINA RESULT:      -6.5      2.732      6.232
REMARK  Name = 
REMARK  2 active torsions:
REMARK  status: ('A' for Active; 'I' for Inactive)
REMARK    1  A    between atoms: N_4  and  C_5
REMARK    2  A    between atoms: C_9  and  C_10
REMARK                            x       y       z     vdW  Elec       q    Type
REMARK                         _______ _______ _______ _____ _____    ______ ____
ROOT
ATOM      1  C   UNL     1       4.483   5.860  16.992  0.00  0.00    +0.000 A 
ATOM      2  C   UNL     1       4.182   7.211  17.228  0.00  0.00    +0.000 A 
ATOM      3  C   UNL     1       3.060   7.572  17.976  0.00  0.00    +0.000 A 
ATOM      4  C   UNL     1       2.229   6.589  18.515  0.00  0.00    +0.000 A 
ATOM      5  C   UNL     1       2.522   5.227  18.326  0.00  0.00    +0.000 A 
ATOM      6  C   UNL     1       3.652   4.874  17.567  0.00  0.00    +0.000 A 
ENDROOT
BRANCH   1  10
ATOM      7  N   UNL     1       6.827   4.267  17.773  0.00  0.00    +0.000 NA
ATOM      8  C   UNL     1       6.777   4.812  16.610  0.00  0.00    +0.000 C 
ATOM      9  N   UNL     1       7.861   4.630  15.709  0.00  0.00    +0.000 N 
ATOM     10  N   UNL     1       5.621   5.541  16.181  0.00  0.00    +0.000 N 
ATOM     11  H   UNL     1       7.641   3.718  18.083  0.00  0.00    +0.000 HD
ATOM     12  H   UNL     1       8.688   4.086  15.988  0.00  0.00    +0.000 HD
ATOM     13  H   UNL     1       7.836   5.056  14.772  0.00  0.00    +0.000 HD
ATOM     14  H   UNL     1       5.566   5.764  15.176  0.00  0.00    +0.000 HD
ENDBRANCH   1  10
BRANCH   5  15
ATOM     15  C   UNL     1       1.662   4.164  18.902  0.00  0.00    +0.000 A 
ATOM     16  C   UNL     1       1.159   4.095  20.189  0.00  0.00    +0.000 A 
ATOM     17  N   UNL     1       0.423   2.977  20.287  0.00  0.00    +0.000 N 
ATOM     18  C   UNL     1       0.488   2.384  19.082  0.00  0.00    +0.000 A 
ATOM     19  N   UNL     1       1.238   3.086  18.209  0.00  0.00    +0.000 NA
ATOM     20  H   UNL     1      -0.093   2.637  21.129  0.00  0.00    +0.000 HD
ENDBRANCH   5  15
TORSDOF 2
ENDMDL
