MODEL 1
REMARK VINA RESULT:      -7.8      0.000      0.000
REMARK  Name = 
REMARK  9 active torsions:
REMARK  status: ('A' for Active; 'I' for Inactive)
REMARK    1  A    between atoms: C_1  and  O_2
REMARK    2  A    between atoms: O_2  and  C_3
REMARK    3  A    between atoms: C_6  and  C_7
REMARK    4  A    between atoms: C_10  and  C_11
REMARK    5  A    between atoms: C_11  and  C_12
REMARK    6  A    between atoms: C_12  and  C_13
REMARK    7  A    between atoms: C_13  and  C_14
REMARK    8  A    between atoms: C_22  and  O_23
REMARK    9  A    between atoms: O_23  and  C_24
REMARK                            x       y       z     vdW  Elec       q    Type
REMARK                         _______ _______ _______ _____ _____    ______ ____
ROOT
ATOM      1  C   UNL     1       3.521   3.724  17.243  0.00  0.00    +0.000 A 
ATOM      2  N   UNL     1       2.416   3.204  16.741  0.00  0.00    +0.000 NA
ATOM      3  N   UNL     1       1.550   3.021  17.795  0.00  0.00    +0.000 NA
ATOM      4  C   UNL     1       2.183   3.438  18.870  0.00  0.00    +0.000 A 
ATOM      5  O   UNL     1       3.446   3.903  18.601  0.00  0.00    +0.000 OA
ENDROOT
BRANCH   1   9
ATOM      6  C   UNL     1       6.986   5.052  15.094  0.00  0.00    +0.000 A 
ATOM      7  C   UNL     1       6.025   4.224  14.498  0.00  0.00    +0.000 A 
ATOM      8  C   UNL     1       4.898   3.805  15.206  0.00  0.00    +0.000 A 
ATOM      9  C   UNL     1       4.730   4.155  16.550  0.00  0.00    +0.000 A 
ATOM     10  C   UNL     1       5.739   4.906  17.168  0.00  0.00    +0.000 A 
ATOM     11  C   UNL     1       6.870   5.352  16.464  0.00  0.00    +0.000 A 
BRANCH   6  13
ATOM     12  C   UNL     1       7.973   5.312  12.957  0.00  0.00    +0.000 C 
ATOM     13  O   UNL     1       8.037   5.541  14.366  0.00  0.00    +0.000 OA
ENDBRANCH   6  13
BRANCH  11  14
ATOM     14  O   UNL     1       7.723   6.066  17.262  0.00  0.00    +0.000 OA
ATOM     15  C   UNL     1       7.496   7.452  17.465  0.00  0.00    +0.000 C 
ENDBRANCH  11  14
ENDBRANCH   1   9
BRANCH   4  16
ATOM     16  C   UNL     1       1.691   3.535  20.265  0.00  0.00    +0.000 C 
BRANCH  16  17
ATOM     17  C   UNL     1       1.342   4.973  20.659  0.00  0.00    +0.000 C 
BRANCH  17  18
ATOM     18  C   UNL     1       2.544   5.896  20.442  0.00  0.00    +0.000 C 
BRANCH  18  19
ATOM     19  C   UNL     1       2.173   7.176  19.737  0.00  0.00    +0.000 A 
ATOM     20  C   UNL     1       2.579   7.404  18.415  0.00  0.00    +0.000 A 
ATOM     21  C   UNL     1       2.230   8.585  17.757  0.00  0.00    +0.000 A 
ATOM     22  C   UNL     1       1.477   9.553  18.416  0.00  0.00    +0.000 A 
ATOM     23  C   UNL     1       1.074   9.342  19.734  0.00  0.00    +0.000 A 
ATOM     24  C   UNL     1       1.424   8.161  20.394  0.00  0.00    +0.000 A 
ENDBRANCH  18  19
ENDBRANCH  17  18
ENDBRANCH  16  17
ENDBRANCH   4  16
TORSDOF 7
ENDMDL
MODEL 2
REMARK VINA RESULT:      -7.8      3.798      7.540
REMARK  Name = 
REMARK  9 active torsions:
REMARK  status: ('A' for Active; 'I' for Inactive)
REMARK    1  A    between atoms: C_1  and  O_2
REMARK    2  A    between atoms: O_2  and  C_3
REMARK    3  A    between atoms: C_6  and  C_7
REMARK    4  A    between atoms: C_10  and  C_11
REMARK    5  A    between atoms: C_11  and  C_12
REMARK    6  A    between atoms: C_12  and  C_13
REMARK    7  A    between atoms: C_13  and  C_14
REMARK    8  A    between atoms: C_22  and  O_23
REMARK    9  A    between atoms: O_23  and  C_24
REMARK                            x       y       z     vdW  Elec       q    Type
REMARK                         _______ _______ _______ _____ _____    ______ ____
ROOT
ATOM      1  C   UNL     1       5.747   5.527  18.490  0.00  0.00    +0.000 A 
ATOM      2  N   UNL     1       6.810   5.116  19.156  0.00  0.00    +0.000 NA
ATOM      3  N   UNL     1       7.814   6.023  18.900  0.00  0.00    +0.000 NA
ATOM      4  C   UNL     1       7.298   6.926  18.092  0.00  0.00    +0.000 A 
ATOM      5  O   UNL     1       5.984   6.680  17.785  0.00  0.00    +0.000 OA
ENDROOT
BRANCH   1   9
ATOM      6  C   UNL     1       1.864   3.715  18.336  0.00  0.00    +0.000 A 
ATOM      7  C   UNL     1       2.668   3.826  17.193  0.00  0.00    +0.000 A 
ATOM      8  C   UNL     1       3.933   4.412  17.259  0.00  0.00    +0.000 A 
ATOM      9  C   UNL     1       4.406   4.955  18.458  0.00  0.00    +0.000 A 
ATOM     10  C   UNL     1       3.560   4.924  19.575  0.00  0.00    +0.000 A 
ATOM     11  C   UNL     1       2.292   4.322  19.532  0.00  0.00    +0.000 A 
BRANCH   6  13
ATOM     12  C   UNL     1       0.664   1.740  18.854  0.00  0.00    +0.000 C 
ATOM     13  O   UNL     1       0.668   3.052  18.288  0.00  0.00    +0.000 OA
ENDBRANCH   6  13
BRANCH  11  14
ATOM     14  O   UNL     1       1.642   4.406  20.733  0.00  0.00    +0.000 OA
ATOM     15  C   UNL     1       1.999   3.524  21.786  0.00  0.00    +0.000 C 
ENDBRANCH  11  14
ENDBRANCH   1   9
BRANCH   4  16
ATOM     16  C   UNL     1       7.916   8.164  17.561  0.00  0.00    +0.000 C 
BRANCH  16  17
ATOM     17  C   UNL     1       8.671   8.946  18.639  0.00  0.00    +0.000 C 
BRANCH  17  18
ATOM     18  C   UNL     1       8.607  10.449  18.356  0.00  0.00    +0.000 C 
BRANCH  18  19
ATOM     19  C   UNL     1       9.881  11.164  18.726  0.00  0.00    +0.000 A 
ATOM     20  C   UNL     1      10.188  11.421  20.069  0.00  0.00    +0.000 A 
ATOM     21  C   UNL     1      11.372  12.077  20.416  0.00  0.00    +0.000 A 
ATOM     22  C   UNL     1      12.257  12.487  19.423  0.00  0.00    +0.000 A 
ATOM     23  C   UNL     1      11.960  12.243  18.083  0.00  0.00    +0.000 A 
ATOM     24  C   UNL     1      10.775  11.590  17.735  0.00  0.00    +0.000 A 
ENDBRANCH  18  19
ENDBRANCH  17  18
ENDBRANCH  16  17
ENDBRANCH   4  16
TORSDOF 7
ENDMDL
MODEL 3
REMARK VINA RESULT:      -7.7      3.746      7.199
REMARK  Name = 
REMARK  9 active torsions:
REMARK  status: ('A' for Active; 'I' for Inactive)
REMARK    1  A    between atoms: C_1  and  O_2
REMARK    2  A    between atoms: O_2  and  C_3
REMARK    3  A    between atoms: C_6  and  C_7
REMARK    4  A    between atoms: C_10  and  C_11
REMARK    5  A    between atoms: C_11  and  C_12
REMARK    6  A    between atoms: C_12  and  C_13
REMARK    7  A    between atoms: C_13  and  C_14
REMARK    8  A    between atoms: C_22  and  O_23
REMARK    9  A    between atoms: O_23  and  C_24
REMARK                            x       y       z     vdW  Elec       q    Type
REMARK                         _______ _______ _______ _____ _____    ______ ____
ROOT
ATOM      1  C   UNL     1       5.778   5.898  17.169  0.00  0.00    +0.000 A 
ATOM      2  N   UNL     1       6.550   5.861  16.099  0.00  0.00    +0.000 NA
ATOM      3  N   UNL     1       7.658   6.627  16.382  0.00  0.00    +0.000 NA
ATOM      4  C   UNL     1       7.489   7.083  17.605  0.00  0.00    +0.000 A 
ATOM      5  O   UNL     1       6.315   6.662  18.175  0.00  0.00    +0.000 OA
ENDROOT
BRANCH   1   9
ATOM      6  C   UNL     1       2.133   3.762  17.903  0.00  0.00    +0.000 A 
ATOM      7  C   UNL     1       3.022   3.371  16.892  0.00  0.00    +0.000 A 
ATOM      8  C   UNL     1       4.209   4.071  16.669  0.00  0.00    +0.000 A 
ATOM      9  C   UNL     1       4.512   5.216  17.412  0.00  0.00    +0.000 A 
ATOM     10  C   UNL     1       3.576   5.656  18.358  0.00  0.00    +0.000 A 
ATOM     11  C   UNL     1       2.386   4.953  18.609  0.00  0.00    +0.000 A 
BRANCH   6  13
ATOM     12  C   UNL     1       1.169   2.054  19.231  0.00  0.00    +0.000 C 
ATOM     13  O   UNL     1       1.022   3.014  18.183  0.00  0.00    +0.000 OA
ENDBRANCH   6  13
BRANCH  11  14
ATOM     14  O   UNL     1       1.623   5.559  19.569  0.00  0.00    +0.000 OA
ATOM     15  C   UNL     1       2.075   6.766  20.164  0.00  0.00    +0.000 C 
ENDBRANCH  11  14
ENDBRANCH   1   9
BRANCH   4  16
ATOM     16  C   UNL     1       8.410   7.896  18.433  0.00  0.00    +0.000 C 
BRANCH  16  17
ATOM     17  C   UNL     1       8.371   9.380  18.058  0.00  0.00    +0.000 C 
BRANCH  17  18
ATOM     18  C   UNL     1       9.168  10.210  19.068  0.00  0.00    +0.000 C 
BRANCH  18  19
ATOM     19  C   UNL     1       9.672  11.506  18.486  0.00  0.00    +0.000 A 
ATOM     20  C   UNL     1       8.958  12.697  18.675  0.00  0.00    +0.000 A 
ATOM     21  C   UNL     1       9.427  13.901  18.144  0.00  0.00    +0.000 A 
ATOM     22  C   UNL     1      10.611  13.924  17.412  0.00  0.00    +0.000 A 
ATOM     23  C   UNL     1      11.327  12.745  17.211  0.00  0.00    +0.000 A 
ATOM     24  C   UNL     1      10.858  11.540  17.740  0.00  0.00    +0.000 A 
ENDBRANCH  18  19
ENDBRANCH  17  18
ENDBRANCH  16  17
ENDBRANCH   4  16
TORSDOF 7
ENDMDL
MODEL 4
REMARK VINA RESULT:      -7.6      1.491      2.920
REMARK  Name = 
REMARK  9 active torsions:
REMARK  status: ('A' for Active; 'I' for Inactive)
REMARK    1  A    between atoms: C_1  and  O_2
REMARK    2  A    between atoms: O_2  and  C_3
REMARK    3  A    between atoms: C_6  and  C_7
REMARK    4  A    between atoms: C_10  and  C_11
REMARK    5  A    between atoms: C_11  and  C_12
REMARK    6  A    between atoms: C_12  and  C_13
REMARK    7  A    between atoms: C_13  and  C_14
REMARK    8  A    between atoms: C_22  and  O_23
REMARK    9  A    between atoms: O_23  and  C_24
REMARK                            x       y       z     vdW  Elec       q    Type
REMARK                         _______ _______ _______ _____ _____    ______ ____
ROOT
ATOM      1  C   UNL     1       4.594   3.353  18.480  0.00  0.00    +0.000 A 
ATOM      2  N   UNL     1       4.104   2.316  17.827  0.00  0.00    +0.000 NA
ATOM      3  N   UNL     1       3.314   1.624  18.717  0.00  0.00    +0.000 NA
ATOM      4  C   UNL     1       3.376   2.282  19.855  0.00  0.00    +0.000 A 
ATOM      5  O   UNL     1       4.172   3.397  19.785  0.00  0.00    +0.000 OA
ENDROOT
BRANCH   1   9
ATOM      6  C   UNL     1       7.189   6.501  17.160  0.00  0.00    +0.000 A 
ATOM      7  C   UNL     1       6.542   6.556  18.402  0.00  0.00    +0.000 A 
ATOM      8  C   UNL     1       5.705   5.520  18.822  0.00  0.00    +0.000 A 
ATOM      9  C   UNL     1       5.447   4.428  17.988  0.00  0.00    +0.000 A 
ATOM     10  C   UNL     1       6.024   4.424  16.710  0.00  0.00    +0.000 A 
ATOM     11  C   UNL     1       6.883   5.447  16.278  0.00  0.00    +0.000 A 
BRANCH   6  13
ATOM     12  C   UNL     1       8.096   8.642  17.612  0.00  0.00    +0.000 C 
ATOM     13  O   UNL     1       8.085   7.469  16.796  0.00  0.00    +0.000 OA
ENDBRANCH   6  13
BRANCH  11  14
ATOM     14  O   UNL     1       7.330   5.239  15.002  0.00  0.00    +0.000 OA
ATOM     15  C   UNL     1       6.577   4.420  14.122  0.00  0.00    +0.000 C 
ENDBRANCH  11  14
ENDBRANCH   1   9
BRANCH   4  16
ATOM     16  C   UNL     1       2.660   2.019  21.125  0.00  0.00    +0.000 C 
BRANCH  16  17
ATOM     17  C   UNL     1       1.773   3.194  21.545  0.00  0.00    +0.000 C 
BRANCH  17  18
ATOM     18  C   UNL     1       0.937   3.686  20.361  0.00  0.00    +0.000 C 
BRANCH  18  19
ATOM     19  C   UNL     1       1.454   4.978  19.782  0.00  0.00    +0.000 A 
ATOM     20  C   UNL     1       1.707   6.079  20.611  0.00  0.00    +0.000 A 
ATOM     21  C   UNL     1       2.194   7.275  20.078  0.00  0.00    +0.000 A 
ATOM     22  C   UNL     1       2.427   7.383  18.709  0.00  0.00    +0.000 A 
ATOM     23  C   UNL     1       2.173   6.296  17.873  0.00  0.00    +0.000 A 
ATOM     24  C   UNL     1       1.683   5.101  18.405  0.00  0.00    +0.000 A 
ENDBRANCH  18  19
ENDBRANCH  17  18
ENDBRANCH  16  17
ENDBRANCH   4  16
TORSDOF 7
ENDMDL
MODEL 5
REMARK VINA RESULT:      -7.6      0.804      1.273
REMARK  Name = 
REMARK  9 active torsions:
REMARK  status: ('A' for Active; 'I' for Inactive)
REMARK    1  A    between atoms: C_1  and  O_2
REMARK    2  A    between atoms: O_2  and  C_3
REMARK    3  A    between atoms: C_6  and  C_7
REMARK    4  A    between atoms: C_10  and  C_11
REMARK    5  A    between atoms: C_11  and  C_12
REMARK    6  A    between atoms: C_12  and  C_13
REMARK    7  A    between atoms: C_13  and  C_14
REMARK    8  A    between atoms: C_22  and  O_23
REMARK    9  A    between atoms: O_23  and  C_24
REMARK                            x       y       z     vdW  Elec       q    Type
REMARK                         _______ _______ _______ _____ _____    ______ ____
ROOT
ATOM      1  C   UNL     1       4.087   3.448  17.396  0.00  0.00    +0.000 A 
ATOM      2  N   UNL     1       3.882   2.207  17.797  0.00  0.00    +0.000 NA
ATOM      3  N   UNL     1       2.734   2.220  18.558  0.00  0.00    +0.000 NA
ATOM      4  C   UNL     1       2.316   3.468  18.573  0.00  0.00    +0.000 A 
ATOM      5  O   UNL     1       3.124   4.312  17.854  0.00  0.00    +0.000 OA
ENDROOT
BRANCH   1   9
ATOM      6  C   UNL     1       7.062   5.000  14.727  0.00  0.00    +0.000 A 
ATOM      7  C   UNL     1       6.285   3.884  14.390  0.00  0.00    +0.000 A 
ATOM      8  C   UNL     1       5.315   3.393  15.265  0.00  0.00    +0.000 A 
ATOM      9  C   UNL     1       5.134   3.970  16.526  0.00  0.00    +0.000 A 
ATOM     10  C   UNL     1       5.978   5.028  16.894  0.00  0.00    +0.000 A 
ATOM     11  C   UNL     1       6.946   5.546  16.019  0.00  0.00    +0.000 A 
BRANCH   6  13
ATOM     12  C   UNL     1       7.696   5.218  12.455  0.00  0.00    +0.000 C 
ATOM     13  O   UNL     1       7.942   5.538  13.826  0.00  0.00    +0.000 OA
ENDBRANCH   6  13
BRANCH  11  14
ATOM     14  O   UNL     1       7.652   6.573  16.584  0.00  0.00    +0.000 OA
ATOM     15  C   UNL     1       7.449   6.894  17.951  0.00  0.00    +0.000 C 
ENDBRANCH  11  14
ENDBRANCH   1   9
BRANCH   4  16
ATOM     16  C   UNL     1       1.089   4.034  19.181  0.00  0.00    +0.000 C 
BRANCH  16  17
ATOM     17  C   UNL     1       1.339   4.589  20.585  0.00  0.00    +0.000 C 
BRANCH  17  18
ATOM     18  C   UNL     1       2.479   5.611  20.564  0.00  0.00    +0.000 C 
BRANCH  18  19
ATOM     19  C   UNL     1       2.035   6.966  20.075  0.00  0.00    +0.000 A 
ATOM     20  C   UNL     1       1.259   7.799  20.892  0.00  0.00    +0.000 A 
ATOM     21  C   UNL     1       0.853   9.058  20.444  0.00  0.00    +0.000 A 
ATOM     22  C   UNL     1       1.215   9.494  19.172  0.00  0.00    +0.000 A 
ATOM     23  C   UNL     1       1.982   8.672  18.347  0.00  0.00    +0.000 A 
ATOM     24  C   UNL     1       2.386   7.411  18.793  0.00  0.00    +0.000 A 
ENDBRANCH  18  19
ENDBRANCH  17  18
ENDBRANCH  16  17
ENDBRANCH   4  16
TORSDOF 7
ENDMDL
MODEL 6
REMARK VINA RESULT:      -7.6      2.708      6.697
REMARK  Name = 
REMARK  9 active torsions:
REMARK  status: ('A' for Active; 'I' for Inactive)
REMARK    1  A    between atoms: C_1  and  O_2
REMARK    2  A    between atoms: O_2  and  C_3
REMARK    3  A    between atoms: C_6  and  C_7
REMARK    4  A    between atoms: C_10  and  C_11
REMARK    5  A    between atoms: C_11  and  C_12
REMARK    6  A    between atoms: C_12  and  C_13
REMARK    7  A    between atoms: C_13  and  C_14
REMARK    8  A    between atoms: C_22  and  O_23
REMARK    9  A    between atoms: O_23  and  C_24
REMARK                            x       y       z     vdW  Elec       q    Type
REMARK                         _______ _______ _______ _____ _____    ______ ____
ROOT
ATOM      1  C   UNL     1       2.874   6.223  18.929  0.00  0.00    +0.000 A 
ATOM      2  N   UNL     1       3.277   5.470  19.935  0.00  0.00    +0.000 NA
ATOM      3  N   UNL     1       3.819   4.330  19.385  0.00  0.00    +0.000 NA
ATOM      4  C   UNL     1       3.707   4.460  18.080  0.00  0.00    +0.000 A 
ATOM      5  O   UNL     1       3.116   5.641  17.709  0.00  0.00    +0.000 OA
ENDROOT
BRANCH   1   9
ATOM      6  C   UNL     1       1.042  10.099  18.890  0.00  0.00    +0.000 A 
ATOM      7  C   UNL     1       1.767   9.619  17.791  0.00  0.00    +0.000 A 
ATOM      8  C   UNL     1       2.352   8.352  17.814  0.00  0.00    +0.000 A 
ATOM      9  C   UNL     1       2.277   7.553  18.959  0.00  0.00    +0.000 A 
ATOM     10  C   UNL     1       1.631   8.076  20.088  0.00  0.00    +0.000 A 
ATOM     11  C   UNL     1       1.020   9.341  20.075  0.00  0.00    +0.000 A 
BRANCH   6  13
ATOM     12  C   UNL     1       1.165  12.449  19.162  0.00  0.00    +0.000 C 
ATOM     13  O   UNL     1       0.386  11.299  18.824  0.00  0.00    +0.000 OA
ENDBRANCH   6  13
BRANCH  11  14
ATOM     14  O   UNL     1       0.449   9.648  21.280  0.00  0.00    +0.000 OA
ATOM     15  C   UNL     1       1.053   9.188  22.478  0.00  0.00    +0.000 C 
ENDBRANCH  11  14
ENDBRANCH   1   9
BRANCH   4  16
ATOM     16  C   UNL     1       4.193   3.561  17.007  0.00  0.00    +0.000 C 
BRANCH  16  17
ATOM     17  C   UNL     1       4.905   4.324  15.887  0.00  0.00    +0.000 C 
BRANCH  17  18
ATOM     18  C   UNL     1       6.423   4.187  16.025  0.00  0.00    +0.000 C 
BRANCH  18  19
ATOM     19  C   UNL     1       7.016   5.203  16.968  0.00  0.00    +0.000 A 
ATOM     20  C   UNL     1       7.058   6.559  16.618  0.00  0.00    +0.000 A 
ATOM     21  C   UNL     1       7.599   7.504  17.494  0.00  0.00    +0.000 A 
ATOM     22  C   UNL     1       8.108   7.100  18.726  0.00  0.00    +0.000 A 
ATOM     23  C   UNL     1       8.078   5.752  19.082  0.00  0.00    +0.000 A 
ATOM     24  C   UNL     1       7.540   4.806  18.205  0.00  0.00    +0.000 A 
ENDBRANCH  18  19
ENDBRANCH  17  18
ENDBRANCH  16  17
ENDBRANCH   4  16
TORSDOF 7
ENDMDL
MODEL 7
REMARK VINA RESULT:      -7.5      2.842      6.944
REMARK  Name = 
REMARK  9 active torsions:
REMARK  status: ('A' for Active; 'I' for Inactive)
REMARK    1  A    between atoms: C_1  and  O_2
REMARK    2  A    between atoms: O_2  and  C_3
REMARK    3  A    between atoms: C_6  and  C_7
REMARK    4  A    between atoms: C_10  and  C_11
REMARK    5  A    between atoms: C_11  and  C_12
REMARK    6  A    between atoms: C_12  and  C_13
REMARK    7  A    between atoms: C_13  and  C_14
REMARK    8  A    between atoms: C_22  and  O_23
REMARK    9  A    between atoms: O_23  and  C_24
REMARK                            x       y       z     vdW  Elec       q    Type
REMARK                         _______ _______ _______ _____ _____    ______ ____
ROOT
ATOM      1  C   UNL     1       3.281   7.023  18.033  0.00  0.00    +0.000 A 
ATOM      2  N   UNL     1       4.144   7.493  17.152  0.00  0.00    +0.000 NA
ATOM      3  N   UNL     1       4.769   6.403  16.589  0.00  0.00    +0.000 NA
ATOM      4  C   UNL     1       4.249   5.341  17.165  0.00  0.00    +0.000 A 
ATOM      5  O   UNL     1       3.291   5.652  18.097  0.00  0.00    +0.000 OA
ENDROOT
BRANCH   1   9
ATOM      6  C   UNL     1       0.596   9.167  20.598  0.00  0.00    +0.000 A 
ATOM      7  C   UNL     1       1.170   7.950  20.990  0.00  0.00    +0.000 A 
ATOM      8  C   UNL     1       2.049   7.266  20.148  0.00  0.00    +0.000 A 
ATOM      9  C   UNL     1       2.332   7.751  18.867  0.00  0.00    +0.000 A 
ATOM     10  C   UNL     1       1.682   8.920  18.445  0.00  0.00    +0.000 A 
ATOM     11  C   UNL     1       0.811   9.631  19.287  0.00  0.00    +0.000 A 
BRANCH   6  13
ATOM     12  C   UNL     1      -0.247   9.381  22.802  0.00  0.00    +0.000 C 
ATOM     13  O   UNL     1      -0.185   9.882  21.465  0.00  0.00    +0.000 OA
ENDBRANCH   6  13
BRANCH  11  14
ATOM     14  O   UNL     1       0.292  10.737  18.672  0.00  0.00    +0.000 OA
ATOM     15  C   UNL     1      -1.049  10.717  18.208  0.00  0.00    +0.000 C 
ENDBRANCH  11  14
ENDBRANCH   1   9
BRANCH   4  16
ATOM     16  C   UNL     1       4.504   3.908  16.885  0.00  0.00    +0.000 C 
BRANCH  16  17
ATOM     17  C   UNL     1       3.209   3.105  16.739  0.00  0.00    +0.000 C 
BRANCH  17  18
ATOM     18  C   UNL     1       3.133   2.009  17.805  0.00  0.00    +0.000 C 
BRANCH  18  19
ATOM     19  C   UNL     1       2.533   2.497  19.099  0.00  0.00    +0.000 A 
ATOM     20  C   UNL     1       3.223   2.336  20.308  0.00  0.00    +0.000 A 
ATOM     21  C   UNL     1       2.674   2.794  21.507  0.00  0.00    +0.000 A 
ATOM     22  C   UNL     1       1.426   3.413  21.510  0.00  0.00    +0.000 A 
ATOM     23  C   UNL     1       0.726   3.572  20.314  0.00  0.00    +0.000 A 
ATOM     24  C   UNL     1       1.274   3.111  19.114  0.00  0.00    +0.000 A 
ENDBRANCH  18  19
ENDBRANCH  17  18
ENDBRANCH  16  17
ENDBRANCH   4  16
TORSDOF 7
ENDMDL
MODEL 8
REMARK VINA RESULT:      -7.4      3.979      7.177
REMARK  Name = 
REMARK  9 active torsions:
REMARK  status: ('A' for Active; 'I' for Inactive)
REMARK    1  A    between atoms: C_1  and  O_2
REMARK    2  A    between atoms: O_2  and  C_3
REMARK    3  A    between atoms: C_6  and  C_7
REMARK    4  A    between atoms: C_10  and  C_11
REMARK    5  A    between atoms: C_11  and  C_12
REMARK    6  A    between atoms: C_12  and  C_13
REMARK    7  A    between atoms: C_13  and  C_14
REMARK    8  A    between atoms: C_22  and  O_23
REMARK    9  A    between atoms: O_23  and  C_24
REMARK                            x       y       z     vdW  Elec       q    Type
REMARK                         _______ _______ _______ _____ _____    ______ ____
ROOT
ATOM      1  C   UNL     1       6.305   5.391  18.536  0.00  0.00    +0.000 A 
ATOM      2  N   UNL     1       7.420   5.207  19.218  0.00  0.00    +0.000 NA
ATOM      3  N   UNL     1       8.223   6.297  18.966  0.00  0.00    +0.000 NA
ATOM      4  C   UNL     1       7.547   7.071  18.144  0.00  0.00    +0.000 A 
ATOM      5  O   UNL     1       6.314   6.564  17.823  0.00  0.00    +0.000 OA
ENDROOT
BRANCH   1   9
ATOM      6  C   UNL     1       2.847   2.866  18.297  0.00  0.00    +0.000 A 
ATOM      7  C   UNL     1       3.322   3.568  17.180  0.00  0.00    +0.000 A 
ATOM      8  C   UNL     1       4.454   4.381  17.271  0.00  0.00    +0.000 A 
ATOM      9  C   UNL     1       5.107   4.560  18.494  0.00  0.00    +0.000 A 
ATOM     10  C   UNL     1       4.573   3.930  19.626  0.00  0.00    +0.000 A 
ATOM     11  C   UNL     1       3.447   3.093  19.550  0.00  0.00    +0.000 A 
BRANCH   6  13
ATOM     12  C   UNL     1       0.545   2.462  18.681  0.00  0.00    +0.000 C 
ATOM     13  O   UNL     1       1.799   1.994  18.180  0.00  0.00    +0.000 OA
ENDBRANCH   6  13
BRANCH  11  14
ATOM     14  O   UNL     1       3.101   2.584  20.772  0.00  0.00    +0.000 OA
ATOM     15  C   UNL     1       2.310   3.363  21.656  0.00  0.00    +0.000 C 
ENDBRANCH  11  14
ENDBRANCH   1   9
BRANCH   4  16
ATOM     16  C   UNL     1       7.909   8.404  17.608  0.00  0.00    +0.000 C 
BRANCH  16  17
ATOM     17  C   UNL     1       8.659   9.259  18.633  0.00  0.00    +0.000 C 
BRANCH  17  18
ATOM     18  C   UNL     1       9.135  10.567  17.997  0.00  0.00    +0.000 C 
BRANCH  18  19
ATOM     19  C   UNL     1       9.384  11.651  19.015  0.00  0.00    +0.000 A 
ATOM     20  C   UNL     1       9.163  12.997  18.690  0.00  0.00    +0.000 A 
ATOM     21  C   UNL     1       9.385  14.003  19.633  0.00  0.00    +0.000 A 
ATOM     22  C   UNL     1       9.835  13.674  20.909  0.00  0.00    +0.000 A 
ATOM     23  C   UNL     1      10.065  12.340  21.242  0.00  0.00    +0.000 A 
ATOM     24  C   UNL     1       9.846  11.333  20.298  0.00  0.00    +0.000 A 
ENDBRANCH  18  19
ENDBRANCH  17  18
ENDBRANCH  16  17
ENDBRANCH   4  16
TORSDOF 7
ENDMDL
MODEL 9
REMARK VINA RESULT:      -7.4      3.575      7.478
REMARK  Name = 
REMARK  9 active torsions:
REMARK  status: ('A' for Active; 'I' for Inactive)
REMARK    1  A    between atoms: C_1  and  O_2
REMARK    2  A    between atoms: O_2  and  C_3
REMARK    3  A    between atoms: C_6  and  C_7
REMARK    4  A    between atoms: C_10  and  C_11
REMARK    5  A    between atoms: C_11  and  C_12
REMARK    6  A    between atoms: C_12  and  C_13
REMARK    7  A    between atoms: C_13  and  C_14
REMARK    8  A    between atoms: C_22  and  O_23
REMARK    9  A    between atoms: O_23  and  C_24
REMARK                            x       y       z     vdW  Elec       q    Type
REMARK                         _______ _______ _______ _____ _____    ______ ____
ROOT
ATOM      1  C   UNL     1       4.958   6.185  17.755  0.00  0.00    +0.000 A 
ATOM      2  N   UNL     1       4.938   6.584  16.497  0.00  0.00    +0.000 NA
ATOM      3  N   UNL     1       6.120   7.254  16.274  0.00  0.00    +0.000 NA
ATOM      4  C   UNL     1       6.781   7.222  17.412  0.00  0.00    +0.000 A 
ATOM      5  O   UNL     1       6.107   6.558  18.405  0.00  0.00    +0.000 OA
ENDROOT
BRANCH   1   9
ATOM      6  C   UNL     1       1.959   3.967  19.871  0.00  0.00    +0.000 A 
ATOM      7  C   UNL     1       2.313   5.269  20.249  0.00  0.00    +0.000 A 
ATOM      8  C   UNL     1       3.285   5.983  19.547  0.00  0.00    +0.000 A 
ATOM      9  C   UNL     1       3.973   5.392  18.482  0.00  0.00    +0.000 A 
ATOM     10  C   UNL     1       3.681   4.058  18.167  0.00  0.00    +0.000 A 
ATOM     11  C   UNL     1       2.692   3.332  18.850  0.00  0.00    +0.000 A 
BRANCH   6  13
ATOM     12  C   UNL     1       1.290   2.613  21.696  0.00  0.00    +0.000 C 
ATOM     13  O   UNL     1       0.936   3.309  20.499  0.00  0.00    +0.000 OA
ENDBRANCH   6  13
BRANCH  11  14
ATOM     14  O   UNL     1       2.574   2.053  18.378  0.00  0.00    +0.000 OA
ATOM     15  C   UNL     1       3.650   1.143  18.545  0.00  0.00    +0.000 C 
ENDBRANCH  11  14
ENDBRANCH   1   9
BRANCH   4  16
ATOM     16  C   UNL     1       8.141   7.728  17.715  0.00  0.00    +0.000 C 
BRANCH  16  17
ATOM     17  C   UNL     1       8.161   9.242  17.943  0.00  0.00    +0.000 C 
BRANCH  17  18
ATOM     18  C   UNL     1       8.928   9.582  19.223  0.00  0.00    +0.000 C 
BRANCH  18  19
ATOM     19  C   UNL     1       9.793  10.808  19.073  0.00  0.00    +0.000 A 
ATOM     20  C   UNL     1      10.120  11.297  17.801  0.00  0.00    +0.000 A 
ATOM     21  C   UNL     1      10.914  12.437  17.658  0.00  0.00    +0.000 A 
ATOM     22  C   UNL     1      11.396  13.095  18.787  0.00  0.00    +0.000 A 
ATOM     23  C   UNL     1      11.084  12.614  20.058  0.00  0.00    +0.000 A 
ATOM     24  C   UNL     1      10.291  11.472  20.201  0.00  0.00    +0.000 A 
ENDBRANCH  18  19
ENDBRANCH  17  18
ENDBRANCH  16  17
ENDBRANCH   4  16
TORSDOF 7
ENDMDL
