MODEL 1
REMARK VINA RESULT:      -6.8      0.000      0.000
REMARK  Name = 
REMARK  6 active torsions:
REMARK  status: ('A' for Active; 'I' for Inactive)
REMARK    1  A    between atoms: C_1  and  C_2
REMARK    2  A    between atoms: C_6  and  C_8
REMARK    3  A    between atoms: C_8  and  C_9
REMARK    4  A    between atoms: C_8  and  C_10
REMARK    5  A    between atoms: C_8  and  C_11
REMARK    6  A    between atoms: C_13  and  C_14
REMARK                            x       y       z     vdW  Elec       q    Type
REMARK                         _______ _______ _______ _____ _____    ______ ____
ROOT
ATOM      1  C   UNL     1       8.232   4.520  17.715  0.00  0.00    +0.000 C 
ATOM      2  C   UNL     1       6.754   4.441  17.559  0.00  0.00    +0.000 A 
ATOM      3  N   UNL     1       5.973   4.338  18.715  0.00  0.00    +0.000 NA
ATOM      4  C   UNL     1       4.706   4.231  18.388  0.00  0.00    +0.000 A 
ATOM      5  N   UNL     1       3.722   4.072  19.335  0.00  0.00    +0.000 N 
ATOM      6  C   UNL     1       2.417   3.690  19.092  0.00  0.00    +0.000 C 
ATOM      7  O   UNL     1       1.946   3.435  17.985  0.00  0.00    +0.000 OA
ATOM      8  S   UNL     1       4.359   4.371  16.733  0.00  0.00    +0.000 S 
ATOM      9  C   UNL     1       6.028   4.467  16.378  0.00  0.00    +0.000 A 
ATOM     10  H   UNL     1       4.076   4.114  20.278  0.00  0.00    +0.000 HD
ENDROOT
BRANCH   9  11
ATOM     11  C   UNL     1       6.582   4.557  14.989  0.00  0.00    +0.000 A 
ATOM     12  C   UNL     1       6.163   3.747  13.949  0.00  0.00    +0.000 A 
ATOM     13  S   UNL     1       7.030   4.126  12.524  0.00  0.00    +0.000 S 
ATOM     14  C   UNL     1       7.903   5.322  13.391  0.00  0.00    +0.000 A 
ATOM     15  N   UNL     1       8.872   6.036  12.794  0.00  0.00    +0.000 N 
ATOM     16  N   UNL     1       7.579   5.458  14.651  0.00  0.00    +0.000 NA
ATOM     17  H   UNL     1       9.282   5.656  11.950  0.00  0.00    +0.000 HD
ATOM     18  H   UNL     1       9.538   6.476  13.418  0.00  0.00    +0.000 HD
ENDBRANCH   9  11
BRANCH   6  19
ATOM     19  C   UNL     1       1.530   3.587  20.356  0.00  0.00    +0.000 C 
ATOM     20  C   UNL     1       1.126   4.990  20.830  0.00  0.00    +0.000 C 
ATOM     21  C   UNL     1       0.251   2.797  20.012  0.00  0.00    +0.000 C 
ATOM     22  C   UNL     1       2.267   2.841  21.478  0.00  0.00    +0.000 C 
ENDBRANCH   6  19
TORSDOF 2
ENDMDL
MODEL 2
REMARK VINA RESULT:      -6.8      0.047      1.001
REMARK  Name = 
REMARK  6 active torsions:
REMARK  status: ('A' for Active; 'I' for Inactive)
REMARK    1  A    between atoms: C_1  and  C_2
REMARK    2  A    between atoms: C_6  and  C_8
REMARK    3  A    between atoms: C_8  and  C_9
REMARK    4  A    between atoms: C_8  and  C_10
REMARK    5  A    between atoms: C_8  and  C_11
REMARK    6  A    between atoms: C_13  and  C_14
REMARK                            x       y       z     vdW  Elec       q    Type
REMARK                         _______ _______ _______ _____ _____    ______ ____
ROOT
ATOM      1  C   UNL     1       8.208   4.575  17.747  0.00  0.00    +0.000 C 
ATOM      2  C   UNL     1       6.734   4.461  17.583  0.00  0.00    +0.000 A 
ATOM      3  N   UNL     1       5.948   4.352  18.734  0.00  0.00    +0.000 NA
ATOM      4  C   UNL     1       4.686   4.213  18.400  0.00  0.00    +0.000 A 
ATOM      5  N   UNL     1       3.699   4.041  19.342  0.00  0.00    +0.000 N 
ATOM      6  C   UNL     1       2.405   3.628  19.094  0.00  0.00    +0.000 C 
ATOM      7  O   UNL     1       1.947   3.350  17.987  0.00  0.00    +0.000 OA
ATOM      8  S   UNL     1       4.347   4.329  16.741  0.00  0.00    +0.000 S 
ATOM      9  C   UNL     1       6.016   4.459  16.396  0.00  0.00    +0.000 A 
ATOM     10  H   UNL     1       4.046   4.101  20.287  0.00  0.00    +0.000 HD
ENDROOT
BRANCH   9  11
ATOM     11  C   UNL     1       6.577   4.548  15.010  0.00  0.00    +0.000 A 
ATOM     12  C   UNL     1       6.169   3.731  13.971  0.00  0.00    +0.000 A 
ATOM     13  S   UNL     1       7.042   4.110  12.549  0.00  0.00    +0.000 S 
ATOM     14  C   UNL     1       7.901   5.315  13.416  0.00  0.00    +0.000 A 
ATOM     15  N   UNL     1       8.868   6.035  12.822  0.00  0.00    +0.000 N 
ATOM     16  N   UNL     1       7.570   5.454  14.674  0.00  0.00    +0.000 NA
ATOM     17  H   UNL     1       9.286   5.654  11.982  0.00  0.00    +0.000 HD
ATOM     18  H   UNL     1       9.529   6.481  13.448  0.00  0.00    +0.000 HD
ENDBRANCH   9  11
BRANCH   6  19
ATOM     19  C   UNL     1       1.512   3.517  20.354  0.00  0.00    +0.000 C 
ATOM     20  C   UNL     1       2.269   2.790  21.473  0.00  0.00    +0.000 C 
ATOM     21  C   UNL     1       1.154   4.935  20.844  0.00  0.00    +0.000 C 
ATOM     22  C   UNL     1       0.206   2.778  20.031  0.00  0.00    +0.000 C 
ENDBRANCH   6  19
TORSDOF 2
ENDMDL
MODEL 3
REMARK VINA RESULT:      -6.6      5.292      8.005
REMARK  Name = 
REMARK  6 active torsions:
REMARK  status: ('A' for Active; 'I' for Inactive)
REMARK    1  A    between atoms: C_1  and  C_2
REMARK    2  A    between atoms: C_6  and  C_8
REMARK    3  A    between atoms: C_8  and  C_9
REMARK    4  A    between atoms: C_8  and  C_10
REMARK    5  A    between atoms: C_8  and  C_11
REMARK    6  A    between atoms: C_13  and  C_14
REMARK                            x       y       z     vdW  Elec       q    Type
REMARK                         _______ _______ _______ _____ _____    ______ ____
ROOT
ATOM      1  C   UNL     1       0.721   8.753  21.533  0.00  0.00    +0.000 C 
ATOM      2  C   UNL     1       1.373   8.437  20.233  0.00  0.00    +0.000 A 
ATOM      3  N   UNL     1       2.073   7.232  20.123  0.00  0.00    +0.000 NA
ATOM      4  C   UNL     1       2.620   7.142  18.932  0.00  0.00    +0.000 A 
ATOM      5  N   UNL     1       3.403   6.072  18.571  0.00  0.00    +0.000 N 
ATOM      6  C   UNL     1       4.226   6.006  17.463  0.00  0.00    +0.000 C 
ATOM      7  O   UNL     1       4.377   6.904  16.638  0.00  0.00    +0.000 OA
ATOM      8  S   UNL     1       2.239   8.395  17.852  0.00  0.00    +0.000 S 
ATOM      9  C   UNL     1       1.367   9.205  19.079  0.00  0.00    +0.000 A 
ATOM     10  H   UNL     1       3.447   5.360  19.284  0.00  0.00    +0.000 HD
ENDROOT
BRANCH   9  11
ATOM     11  C   UNL     1       0.717  10.542  18.896  0.00  0.00    +0.000 A 
ATOM     12  C   UNL     1       1.341  11.738  19.201  0.00  0.00    +0.000 A 
ATOM     13  S   UNL     1       0.287  13.048  18.880  0.00  0.00    +0.000 S 
ATOM     14  C   UNL     1      -0.917  11.935  18.375  0.00  0.00    +0.000 A 
ATOM     15  N   UNL     1      -2.133  12.361  17.992  0.00  0.00    +0.000 N 
ATOM     16  N   UNL     1      -0.577  10.673  18.420  0.00  0.00    +0.000 NA
ATOM     17  H   UNL     1      -2.423  13.282  18.296  0.00  0.00    +0.000 HD
ATOM     18  H   UNL     1      -2.868  11.665  18.017  0.00  0.00    +0.000 HD
ENDBRANCH   9  11
BRANCH   6  19
ATOM     19  C   UNL     1       4.997   4.673  17.312  0.00  0.00    +0.000 C 
ATOM     20  C   UNL     1       4.100   3.498  17.723  0.00  0.00    +0.000 C 
ATOM     21  C   UNL     1       5.401   4.489  15.835  0.00  0.00    +0.000 C 
ATOM     22  C   UNL     1       6.276   4.685  18.161  0.00  0.00    +0.000 C 
ENDBRANCH   6  19
TORSDOF 2
ENDMDL
MODEL 4
REMARK VINA RESULT:      -6.5      4.184      6.229
REMARK  Name = 
REMARK  6 active torsions:
REMARK  status: ('A' for Active; 'I' for Inactive)
REMARK    1  A    between atoms: C_1  and  C_2
REMARK    2  A    between atoms: C_6  and  C_8
REMARK    3  A    between atoms: C_8  and  C_9
REMARK    4  A    between atoms: C_8  and  C_10
REMARK    5  A    between atoms: C_8  and  C_11
REMARK    6  A    between atoms: C_13  and  C_14
REMARK                            x       y       z     vdW  Elec       q    Type
REMARK                         _______ _______ _______ _____ _____    ______ ____
ROOT
ATOM      1  C   UNL     1       4.559   6.358  16.776  0.00  0.00    +0.000 C 
ATOM      2  C   UNL     1       3.535   6.570  17.836  0.00  0.00    +0.000 A 
ATOM      3  N   UNL     1       3.007   7.855  17.993  0.00  0.00    +0.000 NA
ATOM      4  C   UNL     1       2.161   7.868  18.998  0.00  0.00    +0.000 A 
ATOM      5  N   UNL     1       1.527   9.020  19.399  0.00  0.00    +0.000 N 
ATOM      6  C   UNL     1       0.838   9.196  20.583  0.00  0.00    +0.000 C 
ATOM      7  O   UNL     1       0.695   8.341  21.455  0.00  0.00    +0.000 OA
ATOM      8  S   UNL     1       1.852   6.363  19.719  0.00  0.00    +0.000 S 
ATOM      9  C   UNL     1       3.016   5.625  18.708  0.00  0.00    +0.000 A 
ATOM     10  H   UNL     1       1.733   9.808  18.805  0.00  0.00    +0.000 HD
ENDROOT
BRANCH   9  11
ATOM     11  C   UNL     1       3.394   4.178  18.788  0.00  0.00    +0.000 A 
ATOM     12  C   UNL     1       2.884   3.211  17.940  0.00  0.00    +0.000 A 
ATOM     13  S   UNL     1       3.529   1.678  18.343  0.00  0.00    +0.000 S 
ATOM     14  C   UNL     1       4.422   2.405  19.614  0.00  0.00    +0.000 A 
ATOM     15  N   UNL     1       5.190   1.663  20.430  0.00  0.00    +0.000 N 
ATOM     16  N   UNL     1       4.278   3.699  19.741  0.00  0.00    +0.000 NA
ATOM     17  H   UNL     1       4.993   0.672  20.484  0.00  0.00    +0.000 HD
ATOM     18  H   UNL     1       5.422   2.089  21.320  0.00  0.00    +0.000 HD
ENDBRANCH   9  11
BRANCH   6  19
ATOM     19  C   UNL     1       0.229  10.606  20.771  0.00  0.00    +0.000 C 
ATOM     20  C   UNL     1       1.304  11.677  20.544  0.00  0.00    +0.000 C 
ATOM     21  C   UNL     1      -0.895  10.812  19.735  0.00  0.00    +0.000 C 
ATOM     22  C   UNL     1      -0.379  10.754  22.173  0.00  0.00    +0.000 C 
ENDBRANCH   6  19
TORSDOF 2
ENDMDL
MODEL 5
REMARK VINA RESULT:      -6.5      4.233      6.284
REMARK  Name = 
REMARK  6 active torsions:
REMARK  status: ('A' for Active; 'I' for Inactive)
REMARK    1  A    between atoms: C_1  and  C_2
REMARK    2  A    between atoms: C_6  and  C_8
REMARK    3  A    between atoms: C_8  and  C_9
REMARK    4  A    between atoms: C_8  and  C_10
REMARK    5  A    between atoms: C_8  and  C_11
REMARK    6  A    between atoms: C_13  and  C_14
REMARK                            x       y       z     vdW  Elec       q    Type
REMARK                         _______ _______ _______ _____ _____    ______ ____
ROOT
ATOM      1  C   UNL     1       4.685   6.441  16.739  0.00  0.00    +0.000 C 
ATOM      2  C   UNL     1       3.610   6.656  17.745  0.00  0.00    +0.000 A 
ATOM      3  N   UNL     1       3.080   7.943  17.879  0.00  0.00    +0.000 NA
ATOM      4  C   UNL     1       2.184   7.958  18.839  0.00  0.00    +0.000 A 
ATOM      5  N   UNL     1       1.534   9.111  19.209  0.00  0.00    +0.000 N 
ATOM      6  C   UNL     1       0.787   9.288  20.358  0.00  0.00    +0.000 C 
ATOM      7  O   UNL     1       0.596   8.432  21.219  0.00  0.00    +0.000 OA
ATOM      8  S   UNL     1       1.832   6.453  19.540  0.00  0.00    +0.000 S 
ATOM      9  C   UNL     1       3.042   5.712  18.588  0.00  0.00    +0.000 A 
ATOM     10  H   UNL     1       1.775   9.900  18.629  0.00  0.00    +0.000 HD
ENDROOT
BRANCH   9  11
ATOM     11  C   UNL     1       3.410   4.263  18.684  0.00  0.00    +0.000 A 
ATOM     12  C   UNL     1       2.913   3.295  17.829  0.00  0.00    +0.000 A 
ATOM     13  S   UNL     1       3.539   1.760  18.255  0.00  0.00    +0.000 S 
ATOM     14  C   UNL     1       4.408   2.488  19.542  0.00  0.00    +0.000 A 
ATOM     15  N   UNL     1       5.152   1.746  20.379  0.00  0.00    +0.000 N 
ATOM     16  N   UNL     1       4.269   3.784  19.659  0.00  0.00    +0.000 NA
ATOM     17  H   UNL     1       4.948   0.756  20.433  0.00  0.00    +0.000 HD
ATOM     18  H   UNL     1       5.367   2.175  21.271  0.00  0.00    +0.000 HD
ENDBRANCH   9  11
BRANCH   6  19
ATOM     19  C   UNL     1       0.175  10.701  20.517  0.00  0.00    +0.000 C 
ATOM     20  C   UNL     1      -0.385  10.875  21.935  0.00  0.00    +0.000 C 
ATOM     21  C   UNL     1       1.277  11.756  20.291  0.00  0.00    +0.000 C 
ATOM     22  C   UNL     1      -0.932  10.934  19.478  0.00  0.00    +0.000 C 
ENDBRANCH   6  19
TORSDOF 2
ENDMDL
MODEL 6
REMARK VINA RESULT:      -6.5      4.298      6.257
REMARK  Name = 
REMARK  6 active torsions:
REMARK  status: ('A' for Active; 'I' for Inactive)
REMARK    1  A    between atoms: C_1  and  C_2
REMARK    2  A    between atoms: C_6  and  C_8
REMARK    3  A    between atoms: C_8  and  C_9
REMARK    4  A    between atoms: C_8  and  C_10
REMARK    5  A    between atoms: C_8  and  C_11
REMARK    6  A    between atoms: C_13  and  C_14
REMARK                            x       y       z     vdW  Elec       q    Type
REMARK                         _______ _______ _______ _____ _____    ______ ____
ROOT
ATOM      1  C   UNL     1       4.990   6.119  16.517  0.00  0.00    +0.000 C 
ATOM      2  C   UNL     1       3.881   6.471  17.445  0.00  0.00    +0.000 A 
ATOM      3  N   UNL     1       3.416   7.789  17.447  0.00  0.00    +0.000 NA
ATOM      4  C   UNL     1       2.476   7.929  18.354  0.00  0.00    +0.000 A 
ATOM      5  N   UNL     1       1.874   9.141  18.596  0.00  0.00    +0.000 N 
ATOM      6  C   UNL     1       1.082   9.450  19.685  0.00  0.00    +0.000 C 
ATOM      7  O   UNL     1       0.803   8.679  20.601  0.00  0.00    +0.000 OA
ATOM      8  S   UNL     1       2.009   6.507  19.153  0.00  0.00    +0.000 S 
ATOM      9  C   UNL     1       3.222   5.629  18.329  0.00  0.00    +0.000 A 
ATOM     10  H   UNL     1       2.185   9.866  17.968  0.00  0.00    +0.000 HD
ENDROOT
BRANCH   9  11
ATOM     11  C   UNL     1       3.504   4.176  18.560  0.00  0.00    +0.000 A 
ATOM     12  C   UNL     1       2.911   3.162  17.831  0.00  0.00    +0.000 A 
ATOM     13  S   UNL     1       3.461   1.640  18.388  0.00  0.00    +0.000 S 
ATOM     14  C   UNL     1       4.431   2.436  19.558  0.00  0.00    +0.000 A 
ATOM     15  N   UNL     1       5.166   1.735  20.437  0.00  0.00    +0.000 N 
ATOM     16  N   UNL     1       4.377   3.743  19.545  0.00  0.00    +0.000 NA
ATOM     17  H   UNL     1       4.904   0.771  20.602  0.00  0.00    +0.000 HD
ATOM     18  H   UNL     1       5.447   2.237  21.271  0.00  0.00    +0.000 HD
ENDBRANCH   9  11
BRANCH   6  19
ATOM     19  C   UNL     1       0.542  10.900  19.698  0.00  0.00    +0.000 C 
ATOM     20  C   UNL     1      -0.874  10.938  19.108  0.00  0.00    +0.000 C 
ATOM     21  C   UNL     1       0.481  11.403  21.155  0.00  0.00    +0.000 C 
ATOM     22  C   UNL     1       1.470  11.833  18.907  0.00  0.00    +0.000 C 
ENDBRANCH   6  19
TORSDOF 2
ENDMDL
MODEL 7
REMARK VINA RESULT:      -6.5      3.593      4.518
REMARK  Name = 
REMARK  6 active torsions:
REMARK  status: ('A' for Active; 'I' for Inactive)
REMARK    1  A    between atoms: C_1  and  C_2
REMARK    2  A    between atoms: C_6  and  C_8
REMARK    3  A    between atoms: C_8  and  C_9
REMARK    4  A    between atoms: C_8  and  C_10
REMARK    5  A    between atoms: C_8  and  C_11
REMARK    6  A    between atoms: C_13  and  C_14
REMARK                            x       y       z     vdW  Elec       q    Type
REMARK                         _______ _______ _______ _____ _____    ______ ____
ROOT
ATOM      1  C   UNL     1       4.262   3.916  19.379  0.00  0.00    +0.000 C 
ATOM      2  C   UNL     1       3.831   5.251  18.882  0.00  0.00    +0.000 A 
ATOM      3  N   UNL     1       3.008   6.026  19.703  0.00  0.00    +0.000 NA
ATOM      4  C   UNL     1       2.689   7.142  19.088  0.00  0.00    +0.000 A 
ATOM      5  N   UNL     1       1.850   8.071  19.657  0.00  0.00    +0.000 N 
ATOM      6  C   UNL     1       1.250   9.130  19.002  0.00  0.00    +0.000 C 
ATOM      7  O   UNL     1       1.381   9.392  17.809  0.00  0.00    +0.000 OA
ATOM      8  S   UNL     1       3.433   7.391  17.584  0.00  0.00    +0.000 S 
ATOM      9  C   UNL     1       4.159   5.846  17.673  0.00  0.00    +0.000 A 
ATOM     10  H   UNL     1       1.575   7.828  20.596  0.00  0.00    +0.000 HD
ENDROOT
BRANCH   9  11
ATOM     11  C   UNL     1       5.008   5.258  16.587  0.00  0.00    +0.000 A 
ATOM     12  C   UNL     1       4.759   4.026  16.011  0.00  0.00    +0.000 A 
ATOM     13  S   UNL     1       5.944   3.683  14.825  0.00  0.00    +0.000 S 
ATOM     14  C   UNL     1       6.703   5.181  15.172  0.00  0.00    +0.000 A 
ATOM     15  N   UNL     1       7.834   5.543  14.543  0.00  0.00    +0.000 N 
ATOM     16  N   UNL     1       6.125   5.910  16.092  0.00  0.00    +0.000 NA
ATOM     17  H   UNL     1       8.385   4.811  14.113  0.00  0.00    +0.000 HD
ATOM     18  H   UNL     1       8.383   6.258  15.007  0.00  0.00    +0.000 HD
ENDBRANCH   9  11
BRANCH   6  19
ATOM     19  C   UNL     1       0.348  10.012  19.898  0.00  0.00    +0.000 C 
ATOM     20  C   UNL     1      -0.973  10.314  19.178  0.00  0.00    +0.000 C 
ATOM     21  C   UNL     1       0.034   9.252  21.203  0.00  0.00    +0.000 C 
ATOM     22  C   UNL     1       1.062  11.321  20.266  0.00  0.00    +0.000 C 
ENDBRANCH   6  19
TORSDOF 2
ENDMDL
MODEL 8
REMARK VINA RESULT:      -6.5      5.464      8.233
REMARK  Name = 
REMARK  6 active torsions:
REMARK  status: ('A' for Active; 'I' for Inactive)
REMARK    1  A    between atoms: C_1  and  C_2
REMARK    2  A    between atoms: C_6  and  C_8
REMARK    3  A    between atoms: C_8  and  C_9
REMARK    4  A    between atoms: C_8  and  C_10
REMARK    5  A    between atoms: C_8  and  C_11
REMARK    6  A    between atoms: C_13  and  C_14
REMARK                            x       y       z     vdW  Elec       q    Type
REMARK                         _______ _______ _______ _____ _____    ______ ____
ROOT
ATOM      1  C   UNL     1       0.133   9.240  21.926  0.00  0.00    +0.000 C 
ATOM      2  C   UNL     1       0.869   8.783  20.716  0.00  0.00    +0.000 A 
ATOM      3  N   UNL     1       1.646   7.625  20.815  0.00  0.00    +0.000 NA
ATOM      4  C   UNL     1       2.258   7.401  19.675  0.00  0.00    +0.000 A 
ATOM      5  N   UNL     1       3.122   6.344  19.510  0.00  0.00    +0.000 N 
ATOM      6  C   UNL     1       4.004   6.175  18.460  0.00  0.00    +0.000 C 
ATOM      7  O   UNL     1       4.144   6.952  17.518  0.00  0.00    +0.000 OA
ATOM      8  S   UNL     1       1.859   8.455  18.406  0.00  0.00    +0.000 S 
ATOM      9  C   UNL     1       0.877   9.373  19.461  0.00  0.00    +0.000 A 
ATOM     10  H   UNL     1       3.173   5.749  20.322  0.00  0.00    +0.000 HD
ENDROOT
BRANCH   9  11
ATOM     11  C   UNL     1       0.157  10.623  19.055  0.00  0.00    +0.000 A 
ATOM     12  C   UNL     1       0.686  11.891  19.217  0.00  0.00    +0.000 A 
ATOM     13  S   UNL     1      -0.426  13.065  18.657  0.00  0.00    +0.000 S 
ATOM     14  C   UNL     1      -1.526  11.811  18.256  0.00  0.00    +0.000 A 
ATOM     15  N   UNL     1      -2.739  12.093  17.753  0.00  0.00    +0.000 N 
ATOM     16  N   UNL     1      -1.111  10.595  18.499  0.00  0.00    +0.000 NA
ATOM     17  H   UNL     1      -3.104  13.025  17.906  0.00  0.00    +0.000 HD
ATOM     18  H   UNL     1      -3.431  11.357  17.840  0.00  0.00    +0.000 HD
ENDBRANCH   9  11
BRANCH   6  19
ATOM     19  C   UNL     1       4.861   4.889  18.541  0.00  0.00    +0.000 C 
ATOM     20  C   UNL     1       6.230   5.207  19.157  0.00  0.00    +0.000 C 
ATOM     21  C   UNL     1       4.145   3.861  19.440  0.00  0.00    +0.000 C 
ATOM     22  C   UNL     1       5.039   4.266  17.148  0.00  0.00    +0.000 C 
ENDBRANCH   6  19
TORSDOF 2
ENDMDL
MODEL 9
REMARK VINA RESULT:      -6.4      4.136      5.451
REMARK  Name = 
REMARK  6 active torsions:
REMARK  status: ('A' for Active; 'I' for Inactive)
REMARK    1  A    between atoms: C_1  and  C_2
REMARK    2  A    between atoms: C_6  and  C_8
REMARK    3  A    between atoms: C_8  and  C_9
REMARK    4  A    between atoms: C_8  and  C_10
REMARK    5  A    between atoms: C_8  and  C_11
REMARK    6  A    between atoms: C_13  and  C_14
REMARK                            x       y       z     vdW  Elec       q    Type
REMARK                         _______ _______ _______ _____ _____    ______ ____
ROOT
ATOM      1  C   UNL     1       3.225   4.296  20.027  0.00  0.00    +0.000 C 
ATOM      2  C   UNL     1       3.123   5.633  19.381  0.00  0.00    +0.000 A 
ATOM      3  N   UNL     1       2.159   6.524  19.859  0.00  0.00    +0.000 NA
ATOM      4  C   UNL     1       2.178   7.627  19.146  0.00  0.00    +0.000 A 
ATOM      5  N   UNL     1       1.299   8.658  19.377  0.00  0.00    +0.000 N 
ATOM      6  C   UNL     1       1.063   9.727  18.534  0.00  0.00    +0.000 C 
ATOM      7  O   UNL     1       1.609   9.908  17.448  0.00  0.00    +0.000 OA
ATOM      8  S   UNL     1       3.401   7.722  17.973  0.00  0.00    +0.000 S 
ATOM      9  C   UNL     1       3.894   6.126  18.339  0.00  0.00    +0.000 A 
ATOM     10  H   UNL     1       0.705   8.495  20.176  0.00  0.00    +0.000 HD
ENDROOT
BRANCH   9  11
ATOM     11  C   UNL     1       4.989   5.404  17.615  0.00  0.00    +0.000 A 
ATOM     12  C   UNL     1       4.839   4.869  16.349  0.00  0.00    +0.000 A 
ATOM     13  S   UNL     1       6.291   4.108  15.858  0.00  0.00    +0.000 S 
ATOM     14  C   UNL     1       7.003   4.532  17.360  0.00  0.00    +0.000 A 
ATOM     15  N   UNL     1       8.258   4.157  17.659  0.00  0.00    +0.000 N 
ATOM     16  N   UNL     1       6.238   5.205  18.180  0.00  0.00    +0.000 NA
ATOM     17  H   UNL     1       8.650   3.381  17.140  0.00  0.00    +0.000 HD
ATOM     18  H   UNL     1       8.493   4.158  18.645  0.00  0.00    +0.000 HD
ENDBRANCH   9  11
BRANCH   6  19
ATOM     19  C   UNL     1       0.011  10.736  19.053  0.00  0.00    +0.000 C 
ATOM     20  C   UNL     1      -1.311  10.553  18.296  0.00  0.00    +0.000 C 
ATOM     21  C   UNL     1      -0.241  10.476  20.552  0.00  0.00    +0.000 C 
ATOM     22  C   UNL     1       0.516  12.177  18.894  0.00  0.00    +0.000 C 
ENDBRANCH   6  19
TORSDOF 2
ENDMDL
