MODEL 1
REMARK VINA RESULT:      -7.8      0.000      0.000
REMARK  Name = 
REMARK  7 active torsions:
REMARK  status: ('A' for Active; 'I' for Inactive)
REMARK    1  A    between atoms: C_2  and  C_3
REMARK    2  A    between atoms: C_3  and  N_4
REMARK    3  A    between atoms: C_3  and  C_20
REMARK    4  A    between atoms: C_5  and  C_7
REMARK    5  A    between atoms: C_10  and  C_11
REMARK    6  A    between atoms: C_16  and  O_17
REMARK    7  A    between atoms: O_17  and  C_18
REMARK                            x       y       z     vdW  Elec       q    Type
REMARK                         _______ _______ _______ _____ _____    ______ ____
ROOT
ATOM      1  N   UNL     1       2.673   5.536  18.104  0.00  0.00    +0.000 N 
ATOM      2  C   UNL     1       2.846   6.887  17.894  0.00  0.00    +0.000 C 
ATOM      3  O   UNL     1       3.489   7.358  16.963  0.00  0.00    +0.000 OA
ATOM      4  H   UNL     1       1.992   5.216  18.779  0.00  0.00    +0.000 HD
ENDROOT
BRANCH   2   5
ATOM      5  C   UNL     1       2.238   7.811  18.892  0.00  0.00    +0.000 A 
ATOM      6  C   UNL     1       1.985   7.346  20.185  0.00  0.00    +0.000 A 
ATOM      7  C   UNL     1       1.285   8.145  21.092  0.00  0.00    +0.000 A 
ATOM      8  C   UNL     1       0.810   9.417  20.722  0.00  0.00    +0.000 A 
ATOM      9  C   UNL     1       1.064   9.882  19.410  0.00  0.00    +0.000 A 
ATOM     10  C   UNL     1       1.793   9.081  18.516  0.00  0.00    +0.000 A 
BRANCH   8  11
ATOM     11  C   UNL     1       0.042  10.199  21.688  0.00  0.00    +0.000 A 
ATOM     12  C   UNL     1      -0.144  11.596  21.825  0.00  0.00    +0.000 A 
ATOM     13  N   UNL     1      -0.930  11.920  22.856  0.00  0.00    +0.000 NA
ATOM     14  N   UNL     1      -1.246  10.732  23.391  0.00  0.00    +0.000 N 
ATOM     15  C   UNL     1      -0.701   9.671  22.726  0.00  0.00    +0.000 A 
ATOM     16  H   UNL     1      -1.841  10.718  24.213  0.00  0.00    +0.000 HD
ENDBRANCH   8  11
BRANCH   9  17
ATOM     17  O   UNL     1       0.557  11.110  19.064  0.00  0.00    +0.000 OA
ATOM     18  C   UNL     1       1.470  12.103  18.613  0.00  0.00    +0.000 C 
ENDBRANCH   9  17
ENDBRANCH   2   5
BRANCH   1  19
ATOM     19  C   UNL     1       3.270   4.536  17.226  0.00  0.00    +0.000 C 
BRANCH  19  20
ATOM     20  C   UNL     1       4.783   4.572  17.345  0.00  0.00    +0.000 A 
ATOM     21  C   UNL     1       5.607   4.503  16.217  0.00  0.00    +0.000 A 
ATOM     22  F   UNL     1       5.069   4.416  14.992  0.00  0.00    +0.000 F 
ATOM     23  C   UNL     1       7.002   4.530  16.320  0.00  0.00    +0.000 A 
ATOM     24  C   UNL     1       7.610   4.632  17.572  0.00  0.00    +0.000 A 
ATOM     25  C   UNL     1       6.811   4.727  18.706  0.00  0.00    +0.000 A 
ATOM     26  C   UNL     1       5.423   4.700  18.586  0.00  0.00    +0.000 A 
ATOM     27  F   UNL     1       4.694   4.836  19.701  0.00  0.00    +0.000 F 
ENDBRANCH  19  20
BRANCH  19  29
ATOM     28  C   UNL     1       1.768   2.961  18.557  0.00  0.00    +0.000 C 
ATOM     29  C   UNL     1       2.681   3.190  17.596  0.00  0.00    +0.000 C 
ENDBRANCH  19  29
ENDBRANCH   1  19
TORSDOF 6
ENDMDL
MODEL 2
REMARK VINA RESULT:      -7.8      1.414      2.164
REMARK  Name = 
REMARK  7 active torsions:
REMARK  status: ('A' for Active; 'I' for Inactive)
REMARK    1  A    between atoms: C_2  and  C_3
REMARK    2  A    between atoms: C_3  and  N_4
REMARK    3  A    between atoms: C_3  and  C_20
REMARK    4  A    between atoms: C_5  and  C_7
REMARK    5  A    between atoms: C_10  and  C_11
REMARK    6  A    between atoms: C_16  and  O_17
REMARK    7  A    between atoms: O_17  and  C_18
REMARK                            x       y       z     vdW  Elec       q    Type
REMARK                         _______ _______ _______ _____ _____    ______ ____
ROOT
ATOM      1  N   UNL     1       2.544   6.882  18.642  0.00  0.00    +0.000 N 
ATOM      2  C   UNL     1       2.252   8.154  18.201  0.00  0.00    +0.000 C 
ATOM      3  O   UNL     1       2.484   8.555  17.066  0.00  0.00    +0.000 OA
ATOM      4  H   UNL     1       2.171   6.558  19.524  0.00  0.00    +0.000 HD
ENDROOT
BRANCH   2   5
ATOM      5  C   UNL     1       1.652   9.092  19.190  0.00  0.00    +0.000 A 
ATOM      6  C   UNL     1       1.413   8.648  20.492  0.00  0.00    +0.000 A 
ATOM      7  C   UNL     1       0.720   9.460  21.394  0.00  0.00    +0.000 A 
ATOM      8  C   UNL     1       0.239  10.725  21.008  0.00  0.00    +0.000 A 
ATOM      9  C   UNL     1       0.480  11.170  19.687  0.00  0.00    +0.000 A 
ATOM     10  C   UNL     1       1.201  10.356  18.799  0.00  0.00    +0.000 A 
BRANCH   8  11
ATOM     11  C   UNL     1      -0.521  11.521  21.970  0.00  0.00    +0.000 A 
ATOM     12  C   UNL     1      -0.496  12.906  22.266  0.00  0.00    +0.000 A 
ATOM     13  N   UNL     1      -1.356  13.249  23.229  0.00  0.00    +0.000 NA
ATOM     14  N   UNL     1      -1.932  12.085  23.560  0.00  0.00    +0.000 N 
ATOM     15  C   UNL     1      -1.478  11.024  22.832  0.00  0.00    +0.000 A 
ATOM     16  H   UNL     1      -2.631  12.088  24.296  0.00  0.00    +0.000 HD
ENDBRANCH   8  11
BRANCH   9  17
ATOM     17  O   UNL     1      -0.034  12.392  19.327  0.00  0.00    +0.000 OA
ATOM     18  C   UNL     1      -1.053  12.417  18.336  0.00  0.00    +0.000 C 
ENDBRANCH   9  17
ENDBRANCH   2   5
BRANCH   1  19
ATOM     19  C   UNL     1       3.185   5.895  17.780  0.00  0.00    +0.000 C 
BRANCH  19  20
ATOM     20  C   UNL     1       4.692   5.952  17.950  0.00  0.00    +0.000 A 
ATOM     21  C   UNL     1       5.320   5.442  19.090  0.00  0.00    +0.000 A 
ATOM     22  F   UNL     1       4.594   4.871  20.062  0.00  0.00    +0.000 F 
ATOM     23  C   UNL     1       6.708   5.497  19.254  0.00  0.00    +0.000 A 
ATOM     24  C   UNL     1       7.509   6.070  18.265  0.00  0.00    +0.000 A 
ATOM     25  C   UNL     1       6.910   6.562  17.111  0.00  0.00    +0.000 A 
ATOM     26  C   UNL     1       5.526   6.498  16.962  0.00  0.00    +0.000 A 
ATOM     27  F   UNL     1       4.997   6.947  15.817  0.00  0.00    +0.000 F 
ENDBRANCH  19  20
BRANCH  19  29
ATOM     28  C   UNL     1       1.393   4.079  17.760  0.00  0.00    +0.000 C 
ATOM     29  C   UNL     1       2.603   4.538  18.124  0.00  0.00    +0.000 C 
ENDBRANCH  19  29
ENDBRANCH   1  19
TORSDOF 6
ENDMDL
MODEL 3
REMARK VINA RESULT:      -7.8      1.426      1.606
REMARK  Name = 
REMARK  7 active torsions:
REMARK  status: ('A' for Active; 'I' for Inactive)
REMARK    1  A    between atoms: C_2  and  C_3
REMARK    2  A    between atoms: C_3  and  N_4
REMARK    3  A    between atoms: C_3  and  C_20
REMARK    4  A    between atoms: C_5  and  C_7
REMARK    5  A    between atoms: C_10  and  C_11
REMARK    6  A    between atoms: C_16  and  O_17
REMARK    7  A    between atoms: O_17  and  C_18
REMARK                            x       y       z     vdW  Elec       q    Type
REMARK                         _______ _______ _______ _____ _____    ______ ____
ROOT
ATOM      1  N   UNL     1       2.554   6.886  18.660  0.00  0.00    +0.000 N 
ATOM      2  C   UNL     1       2.229   8.144  18.200  0.00  0.00    +0.000 C 
ATOM      3  O   UNL     1       2.423   8.522  17.050  0.00  0.00    +0.000 OA
ATOM      4  H   UNL     1       2.212   6.576  19.560  0.00  0.00    +0.000 HD
ENDROOT
BRANCH   2   5
ATOM      5  C   UNL     1       1.644   9.094  19.184  0.00  0.00    +0.000 A 
ATOM      6  C   UNL     1       1.390   8.657  20.487  0.00  0.00    +0.000 A 
ATOM      7  C   UNL     1       0.709   9.484  21.384  0.00  0.00    +0.000 A 
ATOM      8  C   UNL     1       0.254  10.757  20.994  0.00  0.00    +0.000 A 
ATOM      9  C   UNL     1       0.508  11.195  19.673  0.00  0.00    +0.000 A 
ATOM     10  C   UNL     1       1.218  10.366  18.789  0.00  0.00    +0.000 A 
BRANCH   8  11
ATOM     11  C   UNL     1      -0.495  11.569  21.951  0.00  0.00    +0.000 A 
ATOM     12  C   UNL     1      -0.452  12.955  22.238  0.00  0.00    +0.000 A 
ATOM     13  N   UNL     1      -1.307  13.316  23.199  0.00  0.00    +0.000 NA
ATOM     14  N   UNL     1      -1.898  12.162  23.539  0.00  0.00    +0.000 N 
ATOM     15  C   UNL     1      -1.457  11.090  22.817  0.00  0.00    +0.000 A 
ATOM     16  H   UNL     1      -2.596  12.178  24.275  0.00  0.00    +0.000 HD
ENDBRANCH   8  11
BRANCH   9  17
ATOM     17  O   UNL     1       0.020  12.425  19.309  0.00  0.00    +0.000 OA
ATOM     18  C   UNL     1      -1.055  12.463  18.378  0.00  0.00    +0.000 C 
ENDBRANCH   9  17
ENDBRANCH   2   5
BRANCH   1  19
ATOM     19  C   UNL     1       3.187   5.890  17.803  0.00  0.00    +0.000 C 
BRANCH  19  20
ATOM     20  C   UNL     1       4.695   5.942  17.964  0.00  0.00    +0.000 A 
ATOM     21  C   UNL     1       5.516   6.501  16.980  0.00  0.00    +0.000 A 
ATOM     22  F   UNL     1       4.979   7.022  15.868  0.00  0.00    +0.000 F 
ATOM     23  C   UNL     1       6.908   6.547  17.120  0.00  0.00    +0.000 A 
ATOM     24  C   UNL     1       7.514   6.029  18.265  0.00  0.00    +0.000 A 
ATOM     25  C   UNL     1       6.716   5.489  19.268  0.00  0.00    +0.000 A 
ATOM     26  C   UNL     1       5.332   5.453  19.114  0.00  0.00    +0.000 A 
ATOM     27  F   UNL     1       4.601   4.962  20.123  0.00  0.00    +0.000 F 
ENDBRANCH  19  20
BRANCH  19  29
ATOM     28  C   UNL     1       1.414   4.055  17.752  0.00  0.00    +0.000 C 
ATOM     29  C   UNL     1       2.600   4.538  18.160  0.00  0.00    +0.000 C 
ENDBRANCH  19  29
ENDBRANCH   1  19
TORSDOF 6
ENDMDL
MODEL 4
REMARK VINA RESULT:      -7.8      0.767      1.768
REMARK  Name = 
REMARK  7 active torsions:
REMARK  status: ('A' for Active; 'I' for Inactive)
REMARK    1  A    between atoms: C_2  and  C_3
REMARK    2  A    between atoms: C_3  and  N_4
REMARK    3  A    between atoms: C_3  and  C_20
REMARK    4  A    between atoms: C_5  and  C_7
REMARK    5  A    between atoms: C_10  and  C_11
REMARK    6  A    between atoms: C_16  and  O_17
REMARK    7  A    between atoms: O_17  and  C_18
REMARK                            x       y       z     vdW  Elec       q    Type
REMARK                         _______ _______ _______ _____ _____    ______ ____
ROOT
ATOM      1  N   UNL     1       2.495   5.836  18.463  0.00  0.00    +0.000 N 
ATOM      2  C   UNL     1       2.608   7.165  18.115  0.00  0.00    +0.000 C 
ATOM      3  O   UNL     1       3.196   7.563  17.115  0.00  0.00    +0.000 OA
ATOM      4  H   UNL     1       1.854   5.561  19.194  0.00  0.00    +0.000 HD
ENDROOT
BRANCH   2   5
ATOM      5  C   UNL     1       2.005   8.161  19.043  0.00  0.00    +0.000 A 
ATOM      6  C   UNL     1       1.886   7.845  20.398  0.00  0.00    +0.000 A 
ATOM      7  C   UNL     1       1.194   8.700  21.260  0.00  0.00    +0.000 A 
ATOM      8  C   UNL     1       0.594   9.880  20.782  0.00  0.00    +0.000 A 
ATOM      9  C   UNL     1       0.713  10.195  19.407  0.00  0.00    +0.000 A 
ATOM     10  C   UNL     1       1.434   9.341  18.557  0.00  0.00    +0.000 A 
BRANCH   8  11
ATOM     11  C   UNL     1      -0.160  10.722  21.709  0.00  0.00    +0.000 A 
ATOM     12  C   UNL     1      -0.313  12.127  21.784  0.00  0.00    +0.000 A 
ATOM     13  N   UNL     1      -1.095  12.514  22.795  0.00  0.00    +0.000 NA
ATOM     14  N   UNL     1      -1.442  11.358  23.379  0.00  0.00    +0.000 N 
ATOM     15  C   UNL     1      -0.920  10.257  22.764  0.00  0.00    +0.000 A 
ATOM     16  H   UNL     1      -2.041  11.395  24.198  0.00  0.00    +0.000 HD
ENDBRANCH   8  11
BRANCH   9  17
ATOM     17  O   UNL     1       0.085  11.332  18.961  0.00  0.00    +0.000 OA
ATOM     18  C   UNL     1      -1.117  11.178  18.217  0.00  0.00    +0.000 C 
ENDBRANCH   9  17
ENDBRANCH   2   5
BRANCH   1  19
ATOM     19  C   UNL     1       3.095   4.775  17.662  0.00  0.00    +0.000 C 
BRANCH  19  20
ATOM     20  C   UNL     1       4.609   4.852  17.741  0.00  0.00    +0.000 A 
ATOM     21  C   UNL     1       5.264   5.156  18.939  0.00  0.00    +0.000 A 
ATOM     22  F   UNL     1       4.559   5.374  20.057  0.00  0.00    +0.000 F 
ATOM     23  C   UNL     1       6.659   5.233  19.017  0.00  0.00    +0.000 A 
ATOM     24  C   UNL     1       7.438   5.001  17.883  0.00  0.00    +0.000 A 
ATOM     25  C   UNL     1       6.811   4.673  16.687  0.00  0.00    +0.000 A 
ATOM     26  C   UNL     1       5.421   4.598  16.625  0.00  0.00    +0.000 A 
ATOM     27  F   UNL     1       4.862   4.239  15.463  0.00  0.00    +0.000 F 
ENDBRANCH  19  20
BRANCH  19  29
ATOM     28  C   UNL     1       2.679   2.260  17.560  0.00  0.00    +0.000 C 
ATOM     29  C   UNL     1       2.543   3.455  18.162  0.00  0.00    +0.000 C 
ENDBRANCH  19  29
ENDBRANCH   1  19
TORSDOF 6
ENDMDL
MODEL 5
REMARK VINA RESULT:      -7.8      2.204      3.838
REMARK  Name = 
REMARK  7 active torsions:
REMARK  status: ('A' for Active; 'I' for Inactive)
REMARK    1  A    between atoms: C_2  and  C_3
REMARK    2  A    between atoms: C_3  and  N_4
REMARK    3  A    between atoms: C_3  and  C_20
REMARK    4  A    between atoms: C_5  and  C_7
REMARK    5  A    between atoms: C_10  and  C_11
REMARK    6  A    between atoms: C_16  and  O_17
REMARK    7  A    between atoms: O_17  and  C_18
REMARK                            x       y       z     vdW  Elec       q    Type
REMARK                         _______ _______ _______ _____ _____    ______ ____
ROOT
ATOM      1  N   UNL     1       3.792   6.346  19.470  0.00  0.00    +0.000 N 
ATOM      2  C   UNL     1       2.556   6.537  20.049  0.00  0.00    +0.000 C 
ATOM      3  O   UNL     1       2.009   5.717  20.778  0.00  0.00    +0.000 OA
ATOM      4  H   UNL     1       4.265   7.123  19.028  0.00  0.00    +0.000 HD
ENDROOT
BRANCH   2   5
ATOM      5  C   UNL     1       1.846   7.805  19.727  0.00  0.00    +0.000 A 
ATOM      6  C   UNL     1       2.004   8.371  18.459  0.00  0.00    +0.000 A 
ATOM      7  C   UNL     1       1.467   9.631  18.182  0.00  0.00    +0.000 A 
ATOM      8  C   UNL     1       0.776  10.357  19.170  0.00  0.00    +0.000 A 
ATOM      9  C   UNL     1       0.621   9.783  20.454  0.00  0.00    +0.000 A 
ATOM     10  C   UNL     1       1.142   8.504  20.711  0.00  0.00    +0.000 A 
BRANCH   8  11
ATOM     11  C   UNL     1       0.271  11.691  18.851  0.00  0.00    +0.000 A 
ATOM     12  C   UNL     1       0.868  12.970  18.964  0.00  0.00    +0.000 A 
ATOM     13  N   UNL     1       0.064  13.959  18.564  0.00  0.00    +0.000 NA
ATOM     14  N   UNL     1      -1.057  13.320  18.200  0.00  0.00    +0.000 N 
ATOM     15  C   UNL     1      -0.983  11.965  18.341  0.00  0.00    +0.000 A 
ATOM     16  H   UNL     1      -1.837  13.875  17.862  0.00  0.00    +0.000 HD
ENDBRANCH   8  11
BRANCH   9  17
ATOM     17  O   UNL     1      -0.024  10.529  21.408  0.00  0.00    +0.000 OA
ATOM     18  C   UNL     1      -0.266   9.924  22.673  0.00  0.00    +0.000 C 
ENDBRANCH   9  17
ENDBRANCH   2   5
BRANCH   1  19
ATOM     19  C   UNL     1       4.556   5.119  19.667  0.00  0.00    +0.000 C 
BRANCH  19  20
ATOM     20  C   UNL     1       3.892   3.967  18.934  0.00  0.00    +0.000 A 
ATOM     21  C   UNL     1       3.782   2.699  19.513  0.00  0.00    +0.000 A 
ATOM     22  F   UNL     1       4.253   2.477  20.748  0.00  0.00    +0.000 F 
ATOM     23  C   UNL     1       3.176   1.632  18.842  0.00  0.00    +0.000 A 
ATOM     24  C   UNL     1       2.659   1.815  17.558  0.00  0.00    +0.000 A 
ATOM     25  C   UNL     1       2.735   3.073  16.972  0.00  0.00    +0.000 A 
ATOM     26  C   UNL     1       3.339   4.126  17.655  0.00  0.00    +0.000 A 
ATOM     27  F   UNL     1       3.353   5.329  17.068  0.00  0.00    +0.000 F 
ENDBRANCH  19  20
BRANCH  19  29
ATOM     28  C   UNL     1       6.608   4.740  18.200  0.00  0.00    +0.000 C 
ATOM     29  C   UNL     1       5.973   5.380  19.197  0.00  0.00    +0.000 C 
ENDBRANCH  19  29
ENDBRANCH   1  19
TORSDOF 6
ENDMDL
MODEL 6
REMARK VINA RESULT:      -7.7      2.220      3.568
REMARK  Name = 
REMARK  7 active torsions:
REMARK  status: ('A' for Active; 'I' for Inactive)
REMARK    1  A    between atoms: C_2  and  C_3
REMARK    2  A    between atoms: C_3  and  N_4
REMARK    3  A    between atoms: C_3  and  C_20
REMARK    4  A    between atoms: C_5  and  C_7
REMARK    5  A    between atoms: C_10  and  C_11
REMARK    6  A    between atoms: C_16  and  O_17
REMARK    7  A    between atoms: O_17  and  C_18
REMARK                            x       y       z     vdW  Elec       q    Type
REMARK                         _______ _______ _______ _____ _____    ______ ____
ROOT
ATOM      1  N   UNL     1       3.979   6.319  19.228  0.00  0.00    +0.000 N 
ATOM      2  C   UNL     1       2.766   6.461  19.865  0.00  0.00    +0.000 C 
ATOM      3  O   UNL     1       2.291   5.627  20.627  0.00  0.00    +0.000 OA
ATOM      4  H   UNL     1       4.395   7.111  18.756  0.00  0.00    +0.000 HD
ENDROOT
BRANCH   2   5
ATOM      5  C   UNL     1       1.985   7.694  19.566  0.00  0.00    +0.000 A 
ATOM      6  C   UNL     1       2.096   8.281  18.304  0.00  0.00    +0.000 A 
ATOM      7  C   UNL     1       1.489   9.514  18.048  0.00  0.00    +0.000 A 
ATOM      8  C   UNL     1       0.773  10.191  19.053  0.00  0.00    +0.000 A 
ATOM      9  C   UNL     1       0.666   9.595  20.331  0.00  0.00    +0.000 A 
ATOM     10  C   UNL     1       1.257   8.343  20.567  0.00  0.00    +0.000 A 
BRANCH   8  11
ATOM     11  C   UNL     1       0.194  11.500  18.756  0.00  0.00    +0.000 A 
ATOM     12  C   UNL     1       0.729  12.806  18.864  0.00  0.00    +0.000 A 
ATOM     13  N   UNL     1      -0.134  13.756  18.491  0.00  0.00    +0.000 NA
ATOM     14  N   UNL     1      -1.230  13.064  18.148  0.00  0.00    +0.000 N 
ATOM     15  C   UNL     1      -1.084  11.712  18.277  0.00  0.00    +0.000 A 
ATOM     16  H   UNL     1      -2.044  13.580  17.834  0.00  0.00    +0.000 HD
ENDBRANCH   8  11
BRANCH   9  17
ATOM     17  O   UNL     1      -0.006  10.295  21.303  0.00  0.00    +0.000 OA
ATOM     18  C   UNL     1       0.041   9.795  22.634  0.00  0.00    +0.000 C 
ENDBRANCH   9  17
ENDBRANCH   2   5
BRANCH   1  19
ATOM     19  C   UNL     1       4.805   5.129  19.398  0.00  0.00    +0.000 C 
BRANCH  19  20
ATOM     20  C   UNL     1       4.115   3.922  18.789  0.00  0.00    +0.000 A 
ATOM     21  C   UNL     1       3.488   3.990  17.541  0.00  0.00    +0.000 A 
ATOM     22  F   UNL     1       3.497   5.134  16.843  0.00  0.00    +0.000 F 
ATOM     23  C   UNL     1       2.846   2.882  16.977  0.00  0.00    +0.000 A 
ATOM     24  C   UNL     1       2.820   1.665  17.660  0.00  0.00    +0.000 A 
ATOM     25  C   UNL     1       3.458   1.566  18.891  0.00  0.00    +0.000 A 
ATOM     26  C   UNL     1       4.095   2.678  19.438  0.00  0.00    +0.000 A 
ATOM     27  F   UNL     1       4.731   2.526  20.607  0.00  0.00    +0.000 F 
ENDBRANCH  19  20
BRANCH  19  29
ATOM     28  C   UNL     1       6.424   6.368  17.863  0.00  0.00    +0.000 C 
ATOM     29  C   UNL     1       6.156   5.415  18.773  0.00  0.00    +0.000 C 
ENDBRANCH  19  29
ENDBRANCH   1  19
TORSDOF 6
ENDMDL
MODEL 7
REMARK VINA RESULT:      -7.7      3.245      8.458
REMARK  Name = 
REMARK  7 active torsions:
REMARK  status: ('A' for Active; 'I' for Inactive)
REMARK    1  A    between atoms: C_2  and  C_3
REMARK    2  A    between atoms: C_3  and  N_4
REMARK    3  A    between atoms: C_3  and  C_20
REMARK    4  A    between atoms: C_5  and  C_7
REMARK    5  A    between atoms: C_10  and  C_11
REMARK    6  A    between atoms: C_16  and  O_17
REMARK    7  A    between atoms: O_17  and  C_18
REMARK                            x       y       z     vdW  Elec       q    Type
REMARK                         _______ _______ _______ _____ _____    ______ ____
ROOT
ATOM      1  N   UNL     1       1.208   9.673  19.559  0.00  0.00    +0.000 N 
ATOM      2  C   UNL     1       1.840   9.104  18.475  0.00  0.00    +0.000 C 
ATOM      3  O   UNL     1       1.932   9.641  17.377  0.00  0.00    +0.000 OA
ATOM      4  H   UNL     1       1.318   9.265  20.477  0.00  0.00    +0.000 HD
ENDROOT
BRANCH   2   5
ATOM      5  C   UNL     1       2.406   7.740  18.662  0.00  0.00    +0.000 A 
ATOM      6  C   UNL     1       3.175   7.175  17.641  0.00  0.00    +0.000 A 
ATOM      7  C   UNL     1       3.593   5.845  17.732  0.00  0.00    +0.000 A 
ATOM      8  C   UNL     1       3.240   5.048  18.836  0.00  0.00    +0.000 A 
ATOM      9  C   UNL     1       2.458   5.622  19.866  0.00  0.00    +0.000 A 
ATOM     10  C   UNL     1       2.067   6.967  19.776  0.00  0.00    +0.000 A 
BRANCH   8  11
ATOM     11  C   UNL     1       3.660   3.649  18.868  0.00  0.00    +0.000 A 
ATOM     12  C   UNL     1       3.189   2.514  18.164  0.00  0.00    +0.000 A 
ATOM     13  N   UNL     1       3.844   1.394  18.481  0.00  0.00    +0.000 NA
ATOM     14  N   UNL     1       4.735   1.803  19.396  0.00  0.00    +0.000 N 
ATOM     15  C   UNL     1       4.675   3.142  19.655  0.00  0.00    +0.000 A 
ATOM     16  H   UNL     1       5.356   1.113  19.804  0.00  0.00    +0.000 HD
ENDBRANCH   8  11
BRANCH   9  17
ATOM     17  O   UNL     1       2.096   4.811  20.913  0.00  0.00    +0.000 OA
ATOM     18  C   UNL     1       0.982   3.945  20.728  0.00  0.00    +0.000 C 
ENDBRANCH   9  17
ENDBRANCH   2   5
BRANCH   1  19
ATOM     19  C   UNL     1       0.565  10.981  19.479  0.00  0.00    +0.000 C 
BRANCH  19  20
ATOM     20  C   UNL     1      -0.306  11.212  20.700  0.00  0.00    +0.000 A 
ATOM     21  C   UNL     1      -1.409  12.070  20.660  0.00  0.00    +0.000 A 
ATOM     22  F   UNL     1      -1.732  12.701  19.522  0.00  0.00    +0.000 F 
ATOM     23  C   UNL     1      -2.213  12.291  21.783  0.00  0.00    +0.000 A 
ATOM     24  C   UNL     1      -1.926  11.647  22.988  0.00  0.00    +0.000 A 
ATOM     25  C   UNL     1      -0.848  10.770  23.046  0.00  0.00    +0.000 A 
ATOM     26  C   UNL     1      -0.059  10.559  21.918  0.00  0.00    +0.000 A 
ATOM     27  F   UNL     1       0.943   9.676  22.008  0.00  0.00    +0.000 F 
ENDBRANCH  19  20
BRANCH  19  29
ATOM     28  C   UNL     1       1.622  13.096  18.521  0.00  0.00    +0.000 C 
ATOM     29  C   UNL     1       1.658  12.020  19.327  0.00  0.00    +0.000 C 
ENDBRANCH  19  29
ENDBRANCH   1  19
TORSDOF 6
ENDMDL
MODEL 8
REMARK VINA RESULT:      -7.7      0.880      1.148
REMARK  Name = 
REMARK  7 active torsions:
REMARK  status: ('A' for Active; 'I' for Inactive)
REMARK    1  A    between atoms: C_2  and  C_3
REMARK    2  A    between atoms: C_3  and  N_4
REMARK    3  A    between atoms: C_3  and  C_20
REMARK    4  A    between atoms: C_5  and  C_7
REMARK    5  A    between atoms: C_10  and  C_11
REMARK    6  A    between atoms: C_16  and  O_17
REMARK    7  A    between atoms: O_17  and  C_18
REMARK                            x       y       z     vdW  Elec       q    Type
REMARK                         _______ _______ _______ _____ _____    ______ ____
ROOT
ATOM      1  N   UNL     1       2.500   6.023  18.442  0.00  0.00    +0.000 N 
ATOM      2  C   UNL     1       2.502   7.343  18.046  0.00  0.00    +0.000 C 
ATOM      3  O   UNL     1       2.979   7.739  16.988  0.00  0.00    +0.000 OA
ATOM      4  H   UNL     1       1.941   5.737  19.233  0.00  0.00    +0.000 HD
ENDROOT
BRANCH   2   5
ATOM      5  C   UNL     1       1.918   8.334  18.991  0.00  0.00    +0.000 A 
ATOM      6  C   UNL     1       1.889   8.039  20.356  0.00  0.00    +0.000 A 
ATOM      7  C   UNL     1       1.217   8.885  21.242  0.00  0.00    +0.000 A 
ATOM      8  C   UNL     1       0.548  10.034  20.781  0.00  0.00    +0.000 A 
ATOM      9  C   UNL     1       0.575  10.327  19.397  0.00  0.00    +0.000 A 
ATOM     10  C   UNL     1       1.277   9.484  18.520  0.00  0.00    +0.000 A 
BRANCH   8  11
ATOM     11  C   UNL     1      -0.182  10.865  21.736  0.00  0.00    +0.000 A 
ATOM     12  C   UNL     1      -1.002  10.524  22.839  0.00  0.00    +0.000 A 
ATOM     13  N   UNL     1      -1.497  11.592  23.471  0.00  0.00    +0.000 NA
ATOM     14  N   UNL     1      -1.003  12.624  22.772  0.00  0.00    +0.000 N 
ATOM     15  C   UNL     1      -0.202  12.246  21.733  0.00  0.00    +0.000 A 
ATOM     16  H   UNL     1      -1.253  13.563  23.062  0.00  0.00    +0.000 HD
ENDBRANCH   8  11
BRANCH   9  17
ATOM     17  O   UNL     1      -0.117  11.433  18.970  0.00  0.00    +0.000 OA
ATOM     18  C   UNL     1      -1.305  11.222  18.216  0.00  0.00    +0.000 C 
ENDBRANCH   9  17
ENDBRANCH   2   5
BRANCH   1  19
ATOM     19  C   UNL     1       3.097   4.972  17.625  0.00  0.00    +0.000 C 
BRANCH  19  20
ATOM     20  C   UNL     1       4.609   5.010  17.744  0.00  0.00    +0.000 A 
ATOM     21  C   UNL     1       5.436   4.798  16.637  0.00  0.00    +0.000 A 
ATOM     22  F   UNL     1       4.901   4.566  15.430  0.00  0.00    +0.000 F 
ATOM     23  C   UNL     1       6.830   4.827  16.741  0.00  0.00    +0.000 A 
ATOM     24  C   UNL     1       7.435   5.076  17.974  0.00  0.00    +0.000 A 
ATOM     25  C   UNL     1       6.635   5.315  19.085  0.00  0.00    +0.000 A 
ATOM     26  C   UNL     1       5.247   5.284  18.964  0.00  0.00    +0.000 A 
ATOM     27  F   UNL     1       4.516   5.560  20.051  0.00  0.00    +0.000 F 
ENDBRANCH  19  20
BRANCH  19  29
ATOM     28  C   UNL     1       2.592   2.479  17.420  0.00  0.00    +0.000 C 
ATOM     29  C   UNL     1       2.502   3.651  18.073  0.00  0.00    +0.000 C 
ENDBRANCH  19  29
ENDBRANCH   1  19
TORSDOF 6
ENDMDL
MODEL 9
REMARK VINA RESULT:      -7.7      2.212      3.738
REMARK  Name = 
REMARK  7 active torsions:
REMARK  status: ('A' for Active; 'I' for Inactive)
REMARK    1  A    between atoms: C_2  and  C_3
REMARK    2  A    between atoms: C_3  and  N_4
REMARK    3  A    between atoms: C_3  and  C_20
REMARK    4  A    between atoms: C_5  and  C_7
REMARK    5  A    between atoms: C_10  and  C_11
REMARK    6  A    between atoms: C_16  and  O_17
REMARK    7  A    between atoms: O_17  and  C_18
REMARK                            x       y       z     vdW  Elec       q    Type
REMARK                         _______ _______ _______ _____ _____    ______ ____
ROOT
ATOM      1  N   UNL     1       3.201   6.559  18.145  0.00  0.00    +0.000 N 
ATOM      2  C   UNL     1       2.657   6.942  19.351  0.00  0.00    +0.000 C 
ATOM      3  O   UNL     1       2.807   6.320  20.397  0.00  0.00    +0.000 OA
ATOM      4  H   UNL     1       3.191   7.200  17.363  0.00  0.00    +0.000 HD
ENDROOT
BRANCH   2   5
ATOM      5  C   UNL     1       1.811   8.167  19.354  0.00  0.00    +0.000 A 
ATOM      6  C   UNL     1       1.733   8.945  18.197  0.00  0.00    +0.000 A 
ATOM      7  C   UNL     1       1.065  10.171  18.219  0.00  0.00    +0.000 A 
ATOM      8  C   UNL     1       0.474  10.653  19.402  0.00  0.00    +0.000 A 
ATOM      9  C   UNL     1       0.558   9.865  20.574  0.00  0.00    +0.000 A 
ATOM     10  C   UNL     1       1.208   8.621  20.531  0.00  0.00    +0.000 A 
BRANCH   8  11
ATOM     11  C   UNL     1      -0.175  11.963  19.392  0.00  0.00    +0.000 A 
ATOM     12  C   UNL     1       0.345  13.266  19.580  0.00  0.00    +0.000 A 
ATOM     13  N   UNL     1      -0.589  14.218  19.498  0.00  0.00    +0.000 NA
ATOM     14  N   UNL     1      -1.715  13.529  19.264  0.00  0.00    +0.000 N 
ATOM     15  C   UNL     1      -1.522  12.180  19.181  0.00  0.00    +0.000 A 
ATOM     16  H   UNL     1      -2.583  14.045  19.171  0.00  0.00    +0.000 HD
ENDBRANCH   8  11
BRANCH   9  17
ATOM     17  O   UNL     1       0.005  10.376  21.722  0.00  0.00    +0.000 OA
ATOM     18  C   UNL     1       0.038   9.567  22.892  0.00  0.00    +0.000 C 
ENDBRANCH   9  17
ENDBRANCH   2   5
BRANCH   1  19
ATOM     19  C   UNL     1       4.000   5.346  18.008  0.00  0.00    +0.000 C 
BRANCH  19  20
ATOM     20  C   UNL     1       3.189   4.135  18.432  0.00  0.00    +0.000 A 
ATOM     21  C   UNL     1       3.718   3.164  19.287  0.00  0.00    +0.000 A 
ATOM     22  F   UNL     1       4.962   3.293  19.767  0.00  0.00    +0.000 F 
ATOM     23  C   UNL     1       2.977   2.043  19.677  0.00  0.00    +0.000 A 
ATOM     24  C   UNL     1       1.672   1.870  19.214  0.00  0.00    +0.000 A 
ATOM     25  C   UNL     1       1.116   2.835  18.382  0.00  0.00    +0.000 A 
ATOM     26  C   UNL     1       1.866   3.946  18.004  0.00  0.00    +0.000 A 
ATOM     27  F   UNL     1       1.276   4.870  17.235  0.00  0.00    +0.000 F 
ENDBRANCH  19  20
BRANCH  19  29
ATOM     28  C   UNL     1       5.062   4.210  15.986  0.00  0.00    +0.000 C 
ATOM     29  C   UNL     1       4.472   5.267  16.570  0.00  0.00    +0.000 C 
ENDBRANCH  19  29
ENDBRANCH   1  19
TORSDOF 6
ENDMDL
