MODEL 1
REMARK VINA RESULT:      -6.2      0.000      0.000
REMARK  Name = 
REMARK  7 active torsions:
REMARK  status: ('A' for Active; 'I' for Inactive)
REMARK    1  A    between atoms: C_1  and  O_2
REMARK    2  A    between atoms: O_2  and  C_3
REMARK    3  A    between atoms: C_7  and  O_8
REMARK    4  A    between atoms: O_8  and  C_9
REMARK    5  A    between atoms: C_10  and  O_11
REMARK    6  A    between atoms: O_11  and  C_12
REMARK    7  A    between atoms: C_13  and  C_14
REMARK                            x       y       z     vdW  Elec       q    Type
REMARK                         _______ _______ _______ _____ _____    ______ ____
ROOT
ATOM      1  C   UNL     1       0.369  15.065  19.651  0.00  0.00    +0.000 A 
ATOM      2  C   UNL     1      -0.095  14.381  18.531  0.00  0.00    +0.000 A 
ATOM      3  C   UNL     1      -0.675  13.121  18.653  0.00  0.00    +0.000 A 
ATOM      4  C   UNL     1      -0.757  12.445  19.889  0.00  0.00    +0.000 A 
ATOM      5  C   UNL     1      -0.302  13.132  21.038  0.00  0.00    +0.000 A 
ATOM      6  C   UNL     1       0.259  14.448  20.912  0.00  0.00    +0.000 A 
ATOM      7  C   UNL     1      -1.196  10.988  19.808  0.00  0.00    +0.000 C 
ATOM      8  C   UNL     1      -2.275  10.797  18.735  0.00  0.00    +0.000 C 
ATOM      9  C   UNL     1      -1.846  11.363  17.415  0.00  0.00    +0.000 C 
ATOM     10  O   UNL     1      -2.201  10.888  16.337  0.00  0.00    +0.000 OA
ATOM     11  N   UNL     1      -1.122  12.518  17.469  0.00  0.00    +0.000 N 
ATOM     12  H   UNL     1      -0.943  12.952  16.573  0.00  0.00    +0.000 HD
ENDROOT
BRANCH   7  13
ATOM     13  C   UNL     1      -0.051   9.989  19.629  0.00  0.00    +0.000 A 
ATOM     14  C   UNL     1       0.637   9.809  18.417  0.00  0.00    +0.000 A 
ATOM     15  C   UNL     1       1.663   8.870  18.314  0.00  0.00    +0.000 A 
ATOM     16  F   UNL     1       2.301   8.720  17.147  0.00  0.00    +0.000 F 
ATOM     17  C   UNL     1       2.029   8.085  19.400  0.00  0.00    +0.000 A 
ATOM     18  C   UNL     1       1.350   8.235  20.606  0.00  0.00    +0.000 A 
ATOM     19  C   UNL     1       0.321   9.172  20.709  0.00  0.00    +0.000 A 
ATOM     20  F   UNL     1      -0.325   9.285  21.878  0.00  0.00    +0.000 F 
ENDBRANCH   7  13
BRANCH   1  22
ATOM     21  C   UNL     1       2.358  16.302  19.209  0.00  0.00    +0.000 C 
ATOM     22  O   UNL     1       0.974  16.289  19.541  0.00  0.00    +0.000 OA
ENDBRANCH   1  22
BRANCH   5  23
ATOM     23  O   UNL     1      -0.269  12.697  22.339  0.00  0.00    +0.000 OA
ATOM     24  C   UNL     1      -1.395  12.251  23.059  0.00  0.00    +0.000 C 
ENDBRANCH   5  23
BRANCH   6  25
ATOM     25  O   UNL     1       0.650  14.995  22.118  0.00  0.00    +0.000 OA
ATOM     26  C   UNL     1      -0.135  15.993  22.746  0.00  0.00    +0.000 C 
ENDBRANCH   6  25
TORSDOF 4
ENDMDL
MODEL 2
REMARK VINA RESULT:      -6.2      2.423      5.192
REMARK  Name = 
REMARK  7 active torsions:
REMARK  status: ('A' for Active; 'I' for Inactive)
REMARK    1  A    between atoms: C_1  and  O_2
REMARK    2  A    between atoms: O_2  and  C_3
REMARK    3  A    between atoms: C_7  and  O_8
REMARK    4  A    between atoms: O_8  and  C_9
REMARK    5  A    between atoms: C_10  and  O_11
REMARK    6  A    between atoms: O_11  and  C_12
REMARK    7  A    between atoms: C_13  and  C_14
REMARK                            x       y       z     vdW  Elec       q    Type
REMARK                         _______ _______ _______ _____ _____    ______ ____
ROOT
ATOM      1  C   UNL     1      -4.592  12.620  19.781  0.00  0.00    +0.000 A 
ATOM      2  C   UNL     1      -3.465  13.188  20.367  0.00  0.00    +0.000 A 
ATOM      3  C   UNL     1      -2.187  12.879  19.906  0.00  0.00    +0.000 A 
ATOM      4  C   UNL     1      -1.964  11.932  18.884  0.00  0.00    +0.000 A 
ATOM      5  C   UNL     1      -3.099  11.356  18.270  0.00  0.00    +0.000 A 
ATOM      6  C   UNL     1      -4.416  11.709  18.723  0.00  0.00    +0.000 A 
ATOM      7  C   UNL     1      -0.508  11.536  18.668  0.00  0.00    +0.000 C 
ATOM      8  C   UNL     1       0.421  12.745  18.838  0.00  0.00    +0.000 C 
ATOM      9  C   UNL     1       0.183  13.446  20.140  0.00  0.00    +0.000 C 
ATOM     10  O   UNL     1       1.074  14.024  20.762  0.00  0.00    +0.000 OA
ATOM     11  N   UNL     1      -1.116  13.511  20.553  0.00  0.00    +0.000 N 
ATOM     12  H   UNL     1      -1.277  14.088  21.368  0.00  0.00    +0.000 HD
ENDROOT
BRANCH   7  13
ATOM     13  C   UNL     1      -0.040  10.352  19.516  0.00  0.00    +0.000 A 
ATOM     14  C   UNL     1      -0.627   9.998  20.742  0.00  0.00    +0.000 A 
ATOM     15  C   UNL     1      -0.143   8.915  21.477  0.00  0.00    +0.000 A 
ATOM     16  F   UNL     1      -0.723   8.601  22.642  0.00  0.00    +0.000 F 
ATOM     17  C   UNL     1       0.931   8.163  21.022  0.00  0.00    +0.000 A 
ATOM     18  C   UNL     1       1.540   8.505  19.817  0.00  0.00    +0.000 A 
ATOM     19  C   UNL     1       1.059   9.591  19.084  0.00  0.00    +0.000 A 
ATOM     20  F   UNL     1       1.672   9.908  17.935  0.00  0.00    +0.000 F 
ENDBRANCH   7  13
BRANCH   1  22
ATOM     21  C   UNL     1      -6.101  12.633  21.627  0.00  0.00    +0.000 C 
ATOM     22  O   UNL     1      -5.852  12.888  20.248  0.00  0.00    +0.000 OA
ENDBRANCH   1  22
BRANCH   5  23
ATOM     23  O   UNL     1      -3.150  10.418  17.269  0.00  0.00    +0.000 OA
ATOM     24  C   UNL     1      -2.680  10.627  15.957  0.00  0.00    +0.000 C 
ENDBRANCH   5  23
BRANCH   6  25
ATOM     25  O   UNL     1      -5.424  11.075  18.024  0.00  0.00    +0.000 OA
ATOM     26  C   UNL     1      -6.380  10.278  18.700  0.00  0.00    +0.000 C 
ENDBRANCH   6  25
TORSDOF 4
ENDMDL
MODEL 3
REMARK VINA RESULT:      -6.1      2.120      4.839
REMARK  Name = 
REMARK  7 active torsions:
REMARK  status: ('A' for Active; 'I' for Inactive)
REMARK    1  A    between atoms: C_1  and  O_2
REMARK    2  A    between atoms: O_2  and  C_3
REMARK    3  A    between atoms: C_7  and  O_8
REMARK    4  A    between atoms: O_8  and  C_9
REMARK    5  A    between atoms: C_10  and  O_11
REMARK    6  A    between atoms: O_11  and  C_12
REMARK    7  A    between atoms: C_13  and  C_14
REMARK                            x       y       z     vdW  Elec       q    Type
REMARK                         _______ _______ _______ _____ _____    ______ ____
ROOT
ATOM      1  C   UNL     1      -3.407  12.602  19.858  0.00  0.00    +0.000 A 
ATOM      2  C   UNL     1      -2.175  13.032  20.343  0.00  0.00    +0.000 A 
ATOM      3  C   UNL     1      -0.986  12.586  19.770  0.00  0.00    +0.000 A 
ATOM      4  C   UNL     1      -0.963  11.631  18.731  0.00  0.00    +0.000 A 
ATOM      5  C   UNL     1      -2.206  11.194  18.219  0.00  0.00    +0.000 A 
ATOM      6  C   UNL     1      -3.430  11.689  18.788  0.00  0.00    +0.000 A 
ATOM      7  C   UNL     1       0.414  11.075  18.387  0.00  0.00    +0.000 C 
ATOM      8  C   UNL     1       1.486  12.169  18.474  0.00  0.00    +0.000 C 
ATOM      9  C   UNL     1       1.444  12.878  19.793  0.00  0.00    +0.000 C 
ATOM     10  O   UNL     1       2.446  13.344  20.334  0.00  0.00    +0.000 OA
ATOM     11  N   UNL     1       0.203  13.085  20.319  0.00  0.00    +0.000 N 
ATOM     12  H   UNL     1       0.181  13.668  21.146  0.00  0.00    +0.000 HD
ENDROOT
BRANCH   7  13
ATOM     13  C   UNL     1       0.817   9.836  19.189  0.00  0.00    +0.000 A 
ATOM     14  C   UNL     1       0.395   9.597  20.507  0.00  0.00    +0.000 A 
ATOM     15  C   UNL     1       0.811   8.454  21.191  0.00  0.00    +0.000 A 
ATOM     16  F   UNL     1       0.393   8.252  22.446  0.00  0.00    +0.000 F 
ATOM     17  C   UNL     1       1.654   7.527  20.593  0.00  0.00    +0.000 A 
ATOM     18  C   UNL     1       2.098   7.752  19.292  0.00  0.00    +0.000 A 
ATOM     19  C   UNL     1       1.686   8.897  18.609  0.00  0.00    +0.000 A 
ATOM     20  F   UNL     1       2.140   9.096  17.364  0.00  0.00    +0.000 F 
ENDBRANCH   7  13
BRANCH   1  22
ATOM     21  C   UNL     1      -4.725  12.791  21.836  0.00  0.00    +0.000 C 
ATOM     22  O   UNL     1      -4.582  13.007  20.436  0.00  0.00    +0.000 OA
ENDBRANCH   1  22
BRANCH   5  23
ATOM     23  O   UNL     1      -2.451  10.279  17.226  0.00  0.00    +0.000 OA
ATOM     24  C   UNL     1      -2.451  10.578  15.849  0.00  0.00    +0.000 C 
ENDBRANCH   5  23
BRANCH   6  25
ATOM     25  O   UNL     1      -4.561  11.181  18.180  0.00  0.00    +0.000 OA
ATOM     26  C   UNL     1      -5.382  12.011  17.376  0.00  0.00    +0.000 C 
ENDBRANCH   6  25
TORSDOF 4
ENDMDL
MODEL 4
REMARK VINA RESULT:      -6.1      2.895      4.440
REMARK  Name = 
REMARK  7 active torsions:
REMARK  status: ('A' for Active; 'I' for Inactive)
REMARK    1  A    between atoms: C_1  and  O_2
REMARK    2  A    between atoms: O_2  and  C_3
REMARK    3  A    between atoms: C_7  and  O_8
REMARK    4  A    between atoms: O_8  and  C_9
REMARK    5  A    between atoms: C_10  and  O_11
REMARK    6  A    between atoms: O_11  and  C_12
REMARK    7  A    between atoms: C_13  and  C_14
REMARK                            x       y       z     vdW  Elec       q    Type
REMARK                         _______ _______ _______ _____ _____    ______ ____
ROOT
ATOM      1  C   UNL     1      -4.268  13.301  21.515  0.00  0.00    +0.000 A 
ATOM      2  C   UNL     1      -4.203  13.043  20.149  0.00  0.00    +0.000 A 
ATOM      3  C   UNL     1      -3.146  12.314  19.609  0.00  0.00    +0.000 A 
ATOM      4  C   UNL     1      -2.061  11.867  20.393  0.00  0.00    +0.000 A 
ATOM      5  C   UNL     1      -2.118  12.110  21.784  0.00  0.00    +0.000 A 
ATOM      6  C   UNL     1      -3.231  12.828  22.342  0.00  0.00    +0.000 A 
ATOM      7  C   UNL     1      -0.881  11.301  19.611  0.00  0.00    +0.000 C 
ATOM      8  C   UNL     1      -1.362  10.493  18.399  0.00  0.00    +0.000 C 
ATOM      9  C   UNL     1      -2.313  11.282  17.552  0.00  0.00    +0.000 C 
ATOM     10  O   UNL     1      -2.396  11.142  16.332  0.00  0.00    +0.000 OA
ATOM     11  N   UNL     1      -3.176  12.096  18.225  0.00  0.00    +0.000 N 
ATOM     12  H   UNL     1      -3.889  12.530  17.652  0.00  0.00    +0.000 HD
ENDROOT
BRANCH   7  13
ATOM     13  C   UNL     1       0.168  12.338  19.207  0.00  0.00    +0.000 A 
ATOM     14  C   UNL     1      -0.071  13.722  19.207  0.00  0.00    +0.000 A 
ATOM     15  C   UNL     1       0.925  14.616  18.812  0.00  0.00    +0.000 A 
ATOM     16  F   UNL     1       0.668  15.930  18.821  0.00  0.00    +0.000 F 
ATOM     17  C   UNL     1       2.173  14.165  18.405  0.00  0.00    +0.000 A 
ATOM     18  C   UNL     1       2.428  12.797  18.381  0.00  0.00    +0.000 A 
ATOM     19  C   UNL     1       1.431  11.902  18.772  0.00  0.00    +0.000 A 
ATOM     20  F   UNL     1       1.698  10.589  18.727  0.00  0.00    +0.000 F 
ENDBRANCH   7  13
BRANCH   1  22
ATOM     21  C   UNL     1      -6.555  13.965  21.420  0.00  0.00    +0.000 C 
ATOM     22  O   UNL     1      -5.283  14.047  22.054  0.00  0.00    +0.000 OA
ENDBRANCH   1  22
BRANCH   5  23
ATOM     23  O   UNL     1      -1.199  11.786  22.750  0.00  0.00    +0.000 OA
ATOM     24  C   UNL     1      -0.850  10.468  23.107  0.00  0.00    +0.000 C 
ENDBRANCH   5  23
BRANCH   6  25
ATOM     25  O   UNL     1      -3.154  12.980  23.712  0.00  0.00    +0.000 OA
ATOM     26  C   UNL     1      -4.162  12.450  24.555  0.00  0.00    +0.000 C 
ENDBRANCH   6  25
TORSDOF 4
ENDMDL
MODEL 5
REMARK VINA RESULT:      -6.1      5.531      8.807
REMARK  Name = 
REMARK  7 active torsions:
REMARK  status: ('A' for Active; 'I' for Inactive)
REMARK    1  A    between atoms: C_1  and  O_2
REMARK    2  A    between atoms: O_2  and  C_3
REMARK    3  A    between atoms: C_7  and  O_8
REMARK    4  A    between atoms: O_8  and  C_9
REMARK    5  A    between atoms: C_10  and  O_11
REMARK    6  A    between atoms: O_11  and  C_12
REMARK    7  A    between atoms: C_13  and  C_14
REMARK                            x       y       z     vdW  Elec       q    Type
REMARK                         _______ _______ _______ _____ _____    ______ ____
ROOT
ATOM      1  C   UNL     1       6.698   5.187  18.827  0.00  0.00    +0.000 A 
ATOM      2  C   UNL     1       5.645   4.588  19.512  0.00  0.00    +0.000 A 
ATOM      3  C   UNL     1       4.323   4.833  19.146  0.00  0.00    +0.000 A 
ATOM      4  C   UNL     1       3.981   5.744  18.124  0.00  0.00    +0.000 A 
ATOM      5  C   UNL     1       5.039   6.351  17.410  0.00  0.00    +0.000 A 
ATOM      6  C   UNL     1       6.402   6.064  17.766  0.00  0.00    +0.000 A 
ATOM      7  C   UNL     1       2.497   6.074  18.015  0.00  0.00    +0.000 C 
ATOM      8  C   UNL     1       1.637   4.833  18.283  0.00  0.00    +0.000 C 
ATOM      9  C   UNL     1       2.005   4.175  19.577  0.00  0.00    +0.000 C 
ATOM     10  O   UNL     1       1.191   3.577  20.280  0.00  0.00    +0.000 OA
ATOM     11  N   UNL     1       3.333   4.174  19.888  0.00  0.00    +0.000 N 
ATOM     12  H   UNL     1       3.582   3.625  20.701  0.00  0.00    +0.000 HD
ENDROOT
BRANCH   7  13
ATOM     13  C   UNL     1       2.046   7.259  18.871  0.00  0.00    +0.000 A 
ATOM     14  C   UNL     1       1.722   7.151  20.234  0.00  0.00    +0.000 A 
ATOM     15  C   UNL     1       1.302   8.267  20.956  0.00  0.00    +0.000 A 
ATOM     16  F   UNL     1       1.000   8.134  22.254  0.00  0.00    +0.000 F 
ATOM     17  C   UNL     1       1.186   9.511  20.351  0.00  0.00    +0.000 A 
ATOM     18  C   UNL     1       1.485   9.639  18.998  0.00  0.00    +0.000 A 
ATOM     19  C   UNL     1       1.902   8.522  18.273  0.00  0.00    +0.000 A 
ATOM     20  F   UNL     1       2.170   8.671  16.969  0.00  0.00    +0.000 F 
ENDBRANCH   7  13
BRANCH   1  22
ATOM     21  C   UNL     1       8.398   5.482  20.472  0.00  0.00    +0.000 C 
ATOM     22  O   UNL     1       8.001   4.983  19.199  0.00  0.00    +0.000 OA
ENDBRANCH   1  22
BRANCH   5  23
ATOM     23  O   UNL     1       4.972   7.265  16.389  0.00  0.00    +0.000 OA
ATOM     24  C   UNL     1       4.867   6.928  15.024  0.00  0.00    +0.000 C 
ENDBRANCH   5  23
BRANCH   6  25
ATOM     25  O   UNL     1       7.324   6.721  16.976  0.00  0.00    +0.000 OA
ATOM     26  C   UNL     1       7.919   7.930  17.415  0.00  0.00    +0.000 C 
ENDBRANCH   6  25
TORSDOF 4
ENDMDL
MODEL 6
REMARK VINA RESULT:      -6.0      2.844      5.529
REMARK  Name = 
REMARK  7 active torsions:
REMARK  status: ('A' for Active; 'I' for Inactive)
REMARK    1  A    between atoms: C_1  and  O_2
REMARK    2  A    between atoms: O_2  and  C_3
REMARK    3  A    between atoms: C_7  and  O_8
REMARK    4  A    between atoms: O_8  and  C_9
REMARK    5  A    between atoms: C_10  and  O_11
REMARK    6  A    between atoms: O_11  and  C_12
REMARK    7  A    between atoms: C_13  and  C_14
REMARK                            x       y       z     vdW  Elec       q    Type
REMARK                         _______ _______ _______ _____ _____    ______ ____
ROOT
ATOM      1  C   UNL     1      -3.394  10.679  16.564  0.00  0.00    +0.000 A 
ATOM      2  C   UNL     1      -2.117  10.140  16.692  0.00  0.00    +0.000 A 
ATOM      3  C   UNL     1      -1.340  10.404  17.818  0.00  0.00    +0.000 A 
ATOM      4  C   UNL     1      -1.767  11.277  18.841  0.00  0.00    +0.000 A 
ATOM      5  C   UNL     1      -3.067  11.822  18.732  0.00  0.00    +0.000 A 
ATOM      6  C   UNL     1      -3.880  11.514  17.588  0.00  0.00    +0.000 A 
ATOM      7  C   UNL     1      -0.706  11.642  19.872  0.00  0.00    +0.000 C 
ATOM      8  C   UNL     1       0.190  10.439  20.189  0.00  0.00    +0.000 C 
ATOM      9  C   UNL     1       0.757   9.830  18.943  0.00  0.00    +0.000 C 
ATOM     10  O   UNL     1       1.861   9.287  18.906  0.00  0.00    +0.000 OA
ATOM     11  N   UNL     1      -0.072   9.807  17.860  0.00  0.00    +0.000 N 
ATOM     12  H   UNL     1       0.277   9.288  17.065  0.00  0.00    +0.000 HD
ENDROOT
BRANCH   7  13
ATOM     13  C   UNL     1       0.125  12.877  19.517  0.00  0.00    +0.000 A 
ATOM     14  C   UNL     1       1.322  12.819  18.784  0.00  0.00    +0.000 A 
ATOM     15  C   UNL     1       2.043  13.981  18.507  0.00  0.00    +0.000 A 
ATOM     16  F   UNL     1       3.180  13.895  17.806  0.00  0.00    +0.000 F 
ATOM     17  C   UNL     1       1.604  15.221  18.949  0.00  0.00    +0.000 A 
ATOM     18  C   UNL     1       0.429  15.300  19.692  0.00  0.00    +0.000 A 
ATOM     19  C   UNL     1      -0.291  14.138  19.974  0.00  0.00    +0.000 A 
ATOM     20  F   UNL     1      -1.411  14.242  20.703  0.00  0.00    +0.000 F 
ENDBRANCH   7  13
BRANCH   1  22
ATOM     21  C   UNL     1      -3.468  10.072  14.260  0.00  0.00    +0.000 C 
ATOM     22  O   UNL     1      -4.155  10.456  15.447  0.00  0.00    +0.000 OA
ENDBRANCH   1  22
BRANCH   5  23
ATOM     23  O   UNL     1      -3.707  12.690  19.581  0.00  0.00    +0.000 OA
ATOM     24  C   UNL     1      -4.077  12.382  20.905  0.00  0.00    +0.000 C 
ENDBRANCH   5  23
BRANCH   6  25
ATOM     25  O   UNL     1      -5.126  12.109  17.625  0.00  0.00    +0.000 OA
ATOM     26  C   UNL     1      -6.276  11.354  17.965  0.00  0.00    +0.000 C 
ENDBRANCH   6  25
TORSDOF 4
ENDMDL
MODEL 7
REMARK VINA RESULT:      -6.0      3.163      6.017
REMARK  Name = 
REMARK  7 active torsions:
REMARK  status: ('A' for Active; 'I' for Inactive)
REMARK    1  A    between atoms: C_1  and  O_2
REMARK    2  A    between atoms: O_2  and  C_3
REMARK    3  A    between atoms: C_7  and  O_8
REMARK    4  A    between atoms: O_8  and  C_9
REMARK    5  A    between atoms: C_10  and  O_11
REMARK    6  A    between atoms: O_11  and  C_12
REMARK    7  A    between atoms: C_13  and  C_14
REMARK                            x       y       z     vdW  Elec       q    Type
REMARK                         _______ _______ _______ _____ _____    ______ ____
ROOT
ATOM      1  C   UNL     1       2.560   7.329  18.823  0.00  0.00    +0.000 A 
ATOM      2  C   UNL     1       2.667   8.531  18.130  0.00  0.00    +0.000 A 
ATOM      3  C   UNL     1       2.071   9.692  18.616  0.00  0.00    +0.000 A 
ATOM      4  C   UNL     1       1.276   9.700  19.782  0.00  0.00    +0.000 A 
ATOM      5  C   UNL     1       1.168   8.490  20.505  0.00  0.00    +0.000 A 
ATOM      6  C   UNL     1       1.818   7.304  20.020  0.00  0.00    +0.000 A 
ATOM      7  C   UNL     1       0.506  10.990  20.038  0.00  0.00    +0.000 C 
ATOM      8  C   UNL     1       1.341  12.215  19.648  0.00  0.00    +0.000 C 
ATOM      9  C   UNL     1       1.865  12.104  18.249  0.00  0.00    +0.000 C 
ATOM     10  O   UNL     1       2.046  13.080  17.522  0.00  0.00    +0.000 OA
ATOM     11  N   UNL     1       2.245  10.855  17.853  0.00  0.00    +0.000 N 
ATOM     12  H   UNL     1       2.706  10.814  16.953  0.00  0.00    +0.000 HD
ENDROOT
BRANCH   7  13
ATOM     13  C   UNL     1      -0.883  11.038  19.399  0.00  0.00    +0.000 A 
ATOM     14  C   UNL     1      -1.270  10.217  18.326  0.00  0.00    +0.000 A 
ATOM     15  C   UNL     1      -2.548  10.321  17.776  0.00  0.00    +0.000 A 
ATOM     16  F   UNL     1      -2.889   9.526  16.754  0.00  0.00    +0.000 F 
ATOM     17  C   UNL     1      -3.469  11.236  18.267  0.00  0.00    +0.000 A 
ATOM     18  C   UNL     1      -3.101  12.072  19.319  0.00  0.00    +0.000 A 
ATOM     19  C   UNL     1      -1.822  11.971  19.867  0.00  0.00    +0.000 A 
ATOM     20  F   UNL     1      -1.490  12.797  20.869  0.00  0.00    +0.000 F 
ENDBRANCH   7  13
BRANCH   1  22
ATOM     21  C   UNL     1       4.359   6.283  17.661  0.00  0.00    +0.000 C 
ATOM     22  O   UNL     1       3.111   6.172  18.338  0.00  0.00    +0.000 OA
ENDBRANCH   1  22
BRANCH   5  23
ATOM     23  O   UNL     1       0.459   8.236  21.652  0.00  0.00    +0.000 OA
ATOM     24  C   UNL     1       0.406   9.102  22.763  0.00  0.00    +0.000 C 
ENDBRANCH   5  23
BRANCH   6  25
ATOM     25  O   UNL     1       1.631   6.204  20.834  0.00  0.00    +0.000 OA
ATOM     26  C   UNL     1       1.075   5.009  20.316  0.00  0.00    +0.000 C 
ENDBRANCH   6  25
TORSDOF 4
ENDMDL
MODEL 8
REMARK VINA RESULT:      -6.0      2.820      5.569
REMARK  Name = 
REMARK  7 active torsions:
REMARK  status: ('A' for Active; 'I' for Inactive)
REMARK    1  A    between atoms: C_1  and  O_2
REMARK    2  A    between atoms: O_2  and  C_3
REMARK    3  A    between atoms: C_7  and  O_8
REMARK    4  A    between atoms: O_8  and  C_9
REMARK    5  A    between atoms: C_10  and  O_11
REMARK    6  A    between atoms: O_11  and  C_12
REMARK    7  A    between atoms: C_13  and  C_14
REMARK                            x       y       z     vdW  Elec       q    Type
REMARK                         _______ _______ _______ _____ _____    ______ ____
ROOT
ATOM      1  C   UNL     1      -5.160  12.479  20.269  0.00  0.00    +0.000 A 
ATOM      2  C   UNL     1      -4.395  12.981  21.317  0.00  0.00    +0.000 A 
ATOM      3  C   UNL     1      -3.007  13.051  21.220  0.00  0.00    +0.000 A 
ATOM      4  C   UNL     1      -2.304  12.556  20.100  0.00  0.00    +0.000 A 
ATOM      5  C   UNL     1      -3.068  12.054  19.022  0.00  0.00    +0.000 A 
ATOM      6  C   UNL     1      -4.501  12.022  19.111  0.00  0.00    +0.000 A 
ATOM      7  C   UNL     1      -0.790  12.489  20.258  0.00  0.00    +0.000 C 
ATOM      8  C   UNL     1      -0.265  13.696  21.045  0.00  0.00    +0.000 C 
ATOM      9  C   UNL     1      -0.991  13.866  22.345  0.00  0.00    +0.000 C 
ATOM     10  O   UNL     1      -0.458  14.328  23.353  0.00  0.00    +0.000 OA
ATOM     11  N   UNL     1      -2.325  13.583  22.323  0.00  0.00    +0.000 N 
ATOM     12  H   UNL     1      -2.825  13.815  23.172  0.00  0.00    +0.000 HD
ENDROOT
BRANCH   7  13
ATOM     13  C   UNL     1      -0.270  11.175  20.845  0.00  0.00    +0.000 A 
ATOM     14  C   UNL     1      -0.445  10.804  22.188  0.00  0.00    +0.000 A 
ATOM     15  C   UNL     1       0.068   9.598  22.666  0.00  0.00    +0.000 A 
ATOM     16  F   UNL     1      -0.114   9.271  23.951  0.00  0.00    +0.000 F 
ATOM     17  C   UNL     1       0.766   8.735  21.832  0.00  0.00    +0.000 A 
ATOM     18  C   UNL     1       0.966   9.089  20.501  0.00  0.00    +0.000 A 
ATOM     19  C   UNL     1       0.457  10.297  20.023  0.00  0.00    +0.000 A 
ATOM     20  F   UNL     1       0.676  10.620  18.741  0.00  0.00    +0.000 F 
ENDBRANCH   7  13
BRANCH   1  22
ATOM     21  C   UNL     1      -7.051  11.095  20.705  0.00  0.00    +0.000 C 
ATOM     22  O   UNL     1      -6.522  12.372  20.366  0.00  0.00    +0.000 OA
ENDBRANCH   1  22
BRANCH   5  23
ATOM     23  O   UNL     1      -2.629  11.518  17.837  0.00  0.00    +0.000 OA
ATOM     24  C   UNL     1      -2.295  10.161  17.653  0.00  0.00    +0.000 C 
ENDBRANCH   5  23
BRANCH   6  25
ATOM     25  O   UNL     1      -5.110  11.516  17.980  0.00  0.00    +0.000 OA
ATOM     26  C   UNL     1      -5.820  12.369  17.100  0.00  0.00    +0.000 C 
ENDBRANCH   6  25
TORSDOF 4
ENDMDL
MODEL 9
REMARK VINA RESULT:      -5.8      1.085      1.114
REMARK  Name = 
REMARK  7 active torsions:
REMARK  status: ('A' for Active; 'I' for Inactive)
REMARK    1  A    between atoms: C_1  and  O_2
REMARK    2  A    between atoms: O_2  and  C_3
REMARK    3  A    between atoms: C_7  and  O_8
REMARK    4  A    between atoms: O_8  and  C_9
REMARK    5  A    between atoms: C_10  and  O_11
REMARK    6  A    between atoms: O_11  and  C_12
REMARK    7  A    between atoms: C_13  and  C_14
REMARK                            x       y       z     vdW  Elec       q    Type
REMARK                         _______ _______ _______ _____ _____    ______ ____
ROOT
ATOM      1  C   UNL     1       1.019  15.465  19.580  0.00  0.00    +0.000 A 
ATOM      2  C   UNL     1       0.435  14.721  18.559  0.00  0.00    +0.000 A 
ATOM      3  C   UNL     1      -0.346  13.603  18.846  0.00  0.00    +0.000 A 
ATOM      4  C   UNL     1      -0.524  13.126  20.162  0.00  0.00    +0.000 A 
ATOM      5  C   UNL     1       0.053  13.878  21.211  0.00  0.00    +0.000 A 
ATOM      6  C   UNL     1       0.823  15.053  20.912  0.00  0.00    +0.000 A 
ATOM      7  C   UNL     1      -1.200  11.765  20.277  0.00  0.00    +0.000 C 
ATOM      8  C   UNL     1      -2.308  11.612  19.228  0.00  0.00    +0.000 C 
ATOM      9  C   UNL     1      -1.808  11.912  17.848  0.00  0.00    +0.000 C 
ATOM     10  O   UNL     1      -2.250  11.361  16.841  0.00  0.00    +0.000 OA
ATOM     11  N   UNL     1      -0.901  12.927  17.751  0.00  0.00    +0.000 N 
ATOM     12  H   UNL     1      -0.663  13.199  16.806  0.00  0.00    +0.000 HD
ENDROOT
BRANCH   7  13
ATOM     13  C   UNL     1      -0.239  10.575  20.248  0.00  0.00    +0.000 A 
ATOM     14  C   UNL     1       0.495  10.199  19.111  0.00  0.00    +0.000 A 
ATOM     15  C   UNL     1       1.343   9.093  19.145  0.00  0.00    +0.000 A 
ATOM     16  F   UNL     1       2.030   8.758  18.045  0.00  0.00    +0.000 F 
ATOM     17  C   UNL     1       1.483   8.331  20.297  0.00  0.00    +0.000 A 
ATOM     18  C   UNL     1       0.753   8.675  21.432  0.00  0.00    +0.000 A 
ATOM     19  C   UNL     1      -0.099   9.779  21.397  0.00  0.00    +0.000 A 
ATOM     20  F   UNL     1      -0.801  10.079  22.499  0.00  0.00    +0.000 F 
ENDBRANCH   7  13
BRANCH   1  22
ATOM     21  C   UNL     1       1.170  17.798  19.117  0.00  0.00    +0.000 C 
ATOM     22  O   UNL     1       1.817  16.545  19.310  0.00  0.00    +0.000 OA
ENDBRANCH   1  22
BRANCH   5  23
ATOM     23  O   UNL     1       0.029  13.626  22.560  0.00  0.00    +0.000 OA
ATOM     24  C   UNL     1      -1.134  13.656  23.356  0.00  0.00    +0.000 C 
ENDBRANCH   5  23
BRANCH   6  25
ATOM     25  O   UNL     1       1.314  15.687  22.036  0.00  0.00    +0.000 OA
ATOM     26  C   UNL     1       2.705  15.695  22.310  0.00  0.00    +0.000 C 
ENDBRANCH   6  25
TORSDOF 4
ENDMDL
