MODEL 1
REMARK VINA RESULT:      -7.2      0.000      0.000
REMARK  Name = 
REMARK  5 active torsions:
REMARK  status: ('A' for Active; 'I' for Inactive)
REMARK    1  A    between atoms: C_1  and  O_2
REMARK    2  A    between atoms: O_2  and  C_3
REMARK    3  A    between atoms: C_3  and  C_5
REMARK    4  A    between atoms: C_7  and  N_8
REMARK    5  A    between atoms: N_11  and  C_12
REMARK                            x       y       z     vdW  Elec       q    Type
REMARK                         _______ _______ _______ _____ _____    ______ ____
ROOT
ATOM      1  C   UNL     1       6.345   5.715  17.103  0.00  0.00    +0.000 A 
ATOM      2  C   UNL     1       5.241   5.403  17.910  0.00  0.00    +0.000 A 
ATOM      3  C   UNL     1       4.192   4.598  17.436  0.00  0.00    +0.000 A 
ATOM      4  N   UNL     1       4.275   4.101  16.174  0.00  0.00    +0.000 NA
ATOM      5  C   UNL     1       5.323   4.363  15.345  0.00  0.00    +0.000 A 
ATOM      6  C   UNL     1       5.330   3.833  14.048  0.00  0.00    +0.000 A 
ATOM      7  C   UNL     1       6.408   4.070  13.192  0.00  0.00    +0.000 A 
ATOM      8  C   UNL     1       7.490   4.829  13.629  0.00  0.00    +0.000 A 
ATOM      9  C   UNL     1       7.491   5.377  14.912  0.00  0.00    +0.000 A 
ATOM     10  C   UNL     1       6.401   5.174  15.790  0.00  0.00    +0.000 A 
ENDROOT
BRANCH   3  11
ATOM     11  N   UNL     1       3.063   4.287  18.270  0.00  0.00    +0.000 N 
ATOM     12  C   UNL     1       2.598   5.215  19.290  0.00  0.00    +0.000 C 
ATOM     13  C   UNL     1       2.477   4.495  20.636  0.00  0.00    +0.000 C 
ATOM     14  N   UNL     1       1.616   3.304  20.476  0.00  0.00    +0.000 NA
ATOM     15  C   UNL     1       1.377   2.650  21.768  0.00  0.00    +0.000 C 
ATOM     16  C   UNL     1       2.228   2.367  19.514  0.00  0.00    +0.000 C 
ATOM     17  C   UNL     1       2.311   3.042  18.140  0.00  0.00    +0.000 C 
ENDBRANCH   3  11
BRANCH   1  18
ATOM     18  C   UNL     1       7.369   6.642  17.668  0.00  0.00    +0.000 C 
ATOM     19  O   UNL     1       7.979   6.334  18.684  0.00  0.00    +0.000 OA
BRANCH  18  21
ATOM     20  C   UNL     1       8.026   8.968  17.835  0.00  0.00    +0.000 C 
ATOM     21  O   UNL     1       7.487   7.895  17.163  0.00  0.00    +0.000 OA
ENDBRANCH  18  21
ENDBRANCH   1  18
TORSDOF 3
ENDMDL
MODEL 2
REMARK VINA RESULT:      -7.1      3.955      5.592
REMARK  Name = 
REMARK  5 active torsions:
REMARK  status: ('A' for Active; 'I' for Inactive)
REMARK    1  A    between atoms: C_1  and  O_2
REMARK    2  A    between atoms: O_2  and  C_3
REMARK    3  A    between atoms: C_3  and  C_5
REMARK    4  A    between atoms: C_7  and  N_8
REMARK    5  A    between atoms: N_11  and  C_12
REMARK                            x       y       z     vdW  Elec       q    Type
REMARK                         _______ _______ _______ _____ _____    ______ ____
ROOT
ATOM      1  C   UNL     1       2.619   4.802  18.239  0.00  0.00    +0.000 A 
ATOM      2  C   UNL     1       2.066   5.996  18.726  0.00  0.00    +0.000 A 
ATOM      3  C   UNL     1       2.628   7.244  18.410  0.00  0.00    +0.000 A 
ATOM      4  N   UNL     1       3.717   7.278  17.597  0.00  0.00    +0.000 NA
ATOM      5  C   UNL     1       4.295   6.155  17.089  0.00  0.00    +0.000 A 
ATOM      6  C   UNL     1       5.430   6.266  16.274  0.00  0.00    +0.000 A 
ATOM      7  C   UNL     1       6.021   5.127  15.724  0.00  0.00    +0.000 A 
ATOM      8  C   UNL     1       5.478   3.870  15.976  0.00  0.00    +0.000 A 
ATOM      9  C   UNL     1       4.358   3.741  16.797  0.00  0.00    +0.000 A 
ATOM     10  C   UNL     1       3.754   4.875  17.388  0.00  0.00    +0.000 A 
ENDROOT
BRANCH   3  11
ATOM     11  N   UNL     1       2.057   8.462  18.916  0.00  0.00    +0.000 N 
ATOM     12  C   UNL     1       1.672   8.594  20.314  0.00  0.00    +0.000 C 
ATOM     13  C   UNL     1       0.227   9.092  20.412  0.00  0.00    +0.000 C 
ATOM     14  N   UNL     1       0.089  10.342  19.636  0.00  0.00    +0.000 NA
ATOM     15  C   UNL     1      -1.252  10.918  19.800  0.00  0.00    +0.000 C 
ATOM     16  C   UNL     1       0.382  10.085  18.212  0.00  0.00    +0.000 C 
ATOM     17  C   UNL     1       1.842   9.637  18.075  0.00  0.00    +0.000 C 
ENDBRANCH   3  11
BRANCH   1  18
ATOM     18  C   UNL     1       1.999   3.523  18.695  0.00  0.00    +0.000 C 
ATOM     19  O   UNL     1       1.083   3.025  18.054  0.00  0.00    +0.000 OA
BRANCH  18  21
ATOM     20  C   UNL     1       1.465   2.914  20.978  0.00  0.00    +0.000 C 
ATOM     21  O   UNL     1       2.326   3.018  19.910  0.00  0.00    +0.000 OA
ENDBRANCH  18  21
ENDBRANCH   1  18
TORSDOF 3
ENDMDL
MODEL 3
REMARK VINA RESULT:      -7.1      3.330      5.238
REMARK  Name = 
REMARK  5 active torsions:
REMARK  status: ('A' for Active; 'I' for Inactive)
REMARK    1  A    between atoms: C_1  and  O_2
REMARK    2  A    between atoms: O_2  and  C_3
REMARK    3  A    between atoms: C_3  and  C_5
REMARK    4  A    between atoms: C_7  and  N_8
REMARK    5  A    between atoms: N_11  and  C_12
REMARK                            x       y       z     vdW  Elec       q    Type
REMARK                         _______ _______ _______ _____ _____    ______ ____
ROOT
ATOM      1  C   UNL     1       4.232   5.573  17.350  0.00  0.00    +0.000 A 
ATOM      2  C   UNL     1       3.751   6.827  17.757  0.00  0.00    +0.000 A 
ATOM      3  C   UNL     1       2.576   6.947  18.519  0.00  0.00    +0.000 A 
ATOM      4  N   UNL     1       1.918   5.814  18.879  0.00  0.00    +0.000 NA
ATOM      5  C   UNL     1       2.338   4.570  18.520  0.00  0.00    +0.000 A 
ATOM      6  C   UNL     1       1.595   3.447  18.909  0.00  0.00    +0.000 A 
ATOM      7  C   UNL     1       2.024   2.162  18.572  0.00  0.00    +0.000 A 
ATOM      8  C   UNL     1       3.203   1.988  17.851  0.00  0.00    +0.000 A 
ATOM      9  C   UNL     1       3.945   3.096  17.443  0.00  0.00    +0.000 A 
ATOM     10  C   UNL     1       3.521   4.409  17.749  0.00  0.00    +0.000 A 
ENDROOT
BRANCH   3  11
ATOM     11  N   UNL     1       2.089   8.236  18.929  0.00  0.00    +0.000 N 
ATOM     12  C   UNL     1       1.741   8.507  20.316  0.00  0.00    +0.000 C 
ATOM     13  C   UNL     1       0.331   9.099  20.395  0.00  0.00    +0.000 C 
ATOM     14  N   UNL     1       0.251  10.285  19.517  0.00  0.00    +0.000 NA
ATOM     15  C   UNL     1      -1.049  10.954  19.654  0.00  0.00    +0.000 C 
ATOM     16  C   UNL     1       0.499   9.892  18.116  0.00  0.00    +0.000 C 
ATOM     17  C   UNL     1       1.926   9.346  17.994  0.00  0.00    +0.000 C 
ENDBRANCH   3  11
BRANCH   1  18
ATOM     18  C   UNL     1       5.442   5.554  16.477  0.00  0.00    +0.000 C 
ATOM     19  O   UNL     1       6.534   5.860  16.938  0.00  0.00    +0.000 OA
BRANCH  18  21
ATOM     20  C   UNL     1       5.838   4.336  14.420  0.00  0.00    +0.000 C 
ATOM     21  O   UNL     1       5.299   5.378  15.140  0.00  0.00    +0.000 OA
ENDBRANCH  18  21
ENDBRANCH   1  18
TORSDOF 3
ENDMDL
MODEL 4
REMARK VINA RESULT:      -7.1      3.283      5.207
REMARK  Name = 
REMARK  5 active torsions:
REMARK  status: ('A' for Active; 'I' for Inactive)
REMARK    1  A    between atoms: C_1  and  O_2
REMARK    2  A    between atoms: O_2  and  C_3
REMARK    3  A    between atoms: C_3  and  C_5
REMARK    4  A    between atoms: C_7  and  N_8
REMARK    5  A    between atoms: N_11  and  C_12
REMARK                            x       y       z     vdW  Elec       q    Type
REMARK                         _______ _______ _______ _____ _____    ______ ____
ROOT
ATOM      1  C   UNL     1       4.196   5.352  17.436  0.00  0.00    +0.000 A 
ATOM      2  C   UNL     1       3.749   6.625  17.821  0.00  0.00    +0.000 A 
ATOM      3  C   UNL     1       2.601   6.788  18.614  0.00  0.00    +0.000 A 
ATOM      4  N   UNL     1       1.934   5.678  19.026  0.00  0.00    +0.000 NA
ATOM      5  C   UNL     1       2.321   4.417  18.691  0.00  0.00    +0.000 A 
ATOM      6  C   UNL     1       1.571   3.319  19.135  0.00  0.00    +0.000 A 
ATOM      7  C   UNL     1       1.966   2.017  18.822  0.00  0.00    +0.000 A 
ATOM      8  C   UNL     1       3.119   1.802  18.072  0.00  0.00    +0.000 A 
ATOM      9  C   UNL     1       3.868   2.883  17.609  0.00  0.00    +0.000 A 
ATOM     10  C   UNL     1       3.477   4.213  17.890  0.00  0.00    +0.000 A 
ENDROOT
BRANCH   3  11
ATOM     11  N   UNL     1       2.149   8.097  19.001  0.00  0.00    +0.000 N 
ATOM     12  C   UNL     1       1.778   8.393  20.377  0.00  0.00    +0.000 C 
ATOM     13  C   UNL     1       0.388   9.034  20.417  0.00  0.00    +0.000 C 
ATOM     14  N   UNL     1       0.370  10.214  19.528  0.00  0.00    +0.000 NA
ATOM     15  C   UNL     1      -0.909  10.929  19.627  0.00  0.00    +0.000 C 
ATOM     16  C   UNL     1       0.637   9.800  18.137  0.00  0.00    +0.000 C 
ATOM     17  C   UNL     1       2.047   9.203  18.053  0.00  0.00    +0.000 C 
ENDBRANCH   3  11
BRANCH   1  18
ATOM     18  C   UNL     1       5.378   5.285  16.528  0.00  0.00    +0.000 C 
ATOM     19  O   UNL     1       5.255   5.566  15.342  0.00  0.00    +0.000 OA
BRANCH  18  21
ATOM     20  C   UNL     1       7.238   5.176  18.076  0.00  0.00    +0.000 C 
ATOM     21  O   UNL     1       6.536   4.740  16.976  0.00  0.00    +0.000 OA
ENDBRANCH  18  21
ENDBRANCH   1  18
TORSDOF 3
ENDMDL
MODEL 5
REMARK VINA RESULT:      -7.0      3.624      5.898
REMARK  Name = 
REMARK  5 active torsions:
REMARK  status: ('A' for Active; 'I' for Inactive)
REMARK    1  A    between atoms: C_1  and  O_2
REMARK    2  A    between atoms: O_2  and  C_3
REMARK    3  A    between atoms: C_3  and  C_5
REMARK    4  A    between atoms: C_7  and  N_8
REMARK    5  A    between atoms: N_11  and  C_12
REMARK                            x       y       z     vdW  Elec       q    Type
REMARK                         _______ _______ _______ _____ _____    ______ ____
ROOT
ATOM      1  C   UNL     1       3.877   5.577  18.364  0.00  0.00    +0.000 A 
ATOM      2  C   UNL     1       3.304   6.857  18.400  0.00  0.00    +0.000 A 
ATOM      3  C   UNL     1       2.330   7.196  19.354  0.00  0.00    +0.000 A 
ATOM      4  N   UNL     1       1.964   6.259  20.268  0.00  0.00    +0.000 NA
ATOM      5  C   UNL     1       2.488   5.003  20.288  0.00  0.00    +0.000 A 
ATOM      6  C   UNL     1       2.045   4.082  21.248  0.00  0.00    +0.000 A 
ATOM      7  C   UNL     1       2.588   2.797  21.300  0.00  0.00    +0.000 A 
ATOM      8  C   UNL     1       3.584   2.426  20.401  0.00  0.00    +0.000 A 
ATOM      9  C   UNL     1       4.025   3.325  19.430  0.00  0.00    +0.000 A 
ATOM     10  C   UNL     1       3.474   4.624  19.338  0.00  0.00    +0.000 A 
ENDROOT
BRANCH   3  11
ATOM     11  N   UNL     1       1.747   8.509  19.380  0.00  0.00    +0.000 N 
ATOM     12  C   UNL     1       1.211   9.074  20.610  0.00  0.00    +0.000 C 
ATOM     13  C   UNL     1      -0.218   9.572  20.377  0.00  0.00    +0.000 C 
ATOM     14  N   UNL     1      -0.227  10.512  19.237  0.00  0.00    +0.000 NA
ATOM     15  C   UNL     1      -1.557  11.106  19.054  0.00  0.00    +0.000 C 
ATOM     16  C   UNL     1       0.216   9.819  18.011  0.00  0.00    +0.000 C 
ATOM     17  C   UNL     1       1.667   9.356  18.193  0.00  0.00    +0.000 C 
ENDBRANCH   3  11
BRANCH   1  18
ATOM     18  C   UNL     1       4.843   5.288  17.263  0.00  0.00    +0.000 C 
ATOM     19  O   UNL     1       4.494   4.609  16.306  0.00  0.00    +0.000 OA
BRANCH  18  21
ATOM     20  C   UNL     1       7.137   4.763  17.838  0.00  0.00    +0.000 C 
ATOM     21  O   UNL     1       6.148   5.621  17.415  0.00  0.00    +0.000 OA
ENDBRANCH  18  21
ENDBRANCH   1  18
TORSDOF 3
ENDMDL
MODEL 6
REMARK VINA RESULT:      -6.9      0.534      1.088
REMARK  Name = 
REMARK  5 active torsions:
REMARK  status: ('A' for Active; 'I' for Inactive)
REMARK    1  A    between atoms: C_1  and  O_2
REMARK    2  A    between atoms: O_2  and  C_3
REMARK    3  A    between atoms: C_3  and  C_5
REMARK    4  A    between atoms: C_7  and  N_8
REMARK    5  A    between atoms: N_11  and  C_12
REMARK                            x       y       z     vdW  Elec       q    Type
REMARK                         _______ _______ _______ _____ _____    ______ ____
ROOT
ATOM      1  C   UNL     1       6.182   5.997  17.121  0.00  0.00    +0.000 A 
ATOM      2  C   UNL     1       5.084   5.698  17.942  0.00  0.00    +0.000 A 
ATOM      3  C   UNL     1       4.094   4.787  17.536  0.00  0.00    +0.000 A 
ATOM      4  N   UNL     1       4.230   4.176  16.329  0.00  0.00    +0.000 NA
ATOM      5  C   UNL     1       5.276   4.421  15.492  0.00  0.00    +0.000 A 
ATOM      6  C   UNL     1       5.339   3.769  14.253  0.00  0.00    +0.000 A 
ATOM      7  C   UNL     1       6.416   3.988  13.391  0.00  0.00    +0.000 A 
ATOM      8  C   UNL     1       7.442   4.851  13.765  0.00  0.00    +0.000 A 
ATOM      9  C   UNL     1       7.386   5.520  14.988  0.00  0.00    +0.000 A 
ATOM     10  C   UNL     1       6.295   5.336  15.869  0.00  0.00    +0.000 A 
ENDROOT
BRANCH   3  11
ATOM     11  N   UNL     1       2.971   4.489  18.382  0.00  0.00    +0.000 N 
ATOM     12  C   UNL     1       2.614   5.354  19.498  0.00  0.00    +0.000 C 
ATOM     13  C   UNL     1       2.479   4.525  20.778  0.00  0.00    +0.000 C 
ATOM     14  N   UNL     1       1.520   3.424  20.546  0.00  0.00    +0.000 NA
ATOM     15  C   UNL     1       1.270   2.674  21.784  0.00  0.00    +0.000 C 
ATOM     16  C   UNL     1       2.024   2.534  19.482  0.00  0.00    +0.000 C 
ATOM     17  C   UNL     1       2.118   3.323  18.171  0.00  0.00    +0.000 C 
ENDBRANCH   3  11
BRANCH   1  18
ATOM     18  C   UNL     1       7.137   7.037  17.606  0.00  0.00    +0.000 C 
ATOM     19  O   UNL     1       7.217   8.112  17.026  0.00  0.00    +0.000 OA
BRANCH  18  21
ATOM     20  C   UNL     1       7.942   5.638  19.413  0.00  0.00    +0.000 C 
ATOM     21  O   UNL     1       8.038   6.720  18.568  0.00  0.00    +0.000 OA
ENDBRANCH  18  21
ENDBRANCH   1  18
TORSDOF 3
ENDMDL
MODEL 7
REMARK VINA RESULT:      -6.7      4.182      5.878
REMARK  Name = 
REMARK  5 active torsions:
REMARK  status: ('A' for Active; 'I' for Inactive)
REMARK    1  A    between atoms: C_1  and  O_2
REMARK    2  A    between atoms: O_2  and  C_3
REMARK    3  A    between atoms: C_3  and  C_5
REMARK    4  A    between atoms: C_7  and  N_8
REMARK    5  A    between atoms: N_11  and  C_12
REMARK                            x       y       z     vdW  Elec       q    Type
REMARK                         _______ _______ _______ _____ _____    ______ ____
ROOT
ATOM      1  C   UNL     1       2.588   5.196  19.052  0.00  0.00    +0.000 A 
ATOM      2  C   UNL     1       2.006   6.412  19.440  0.00  0.00    +0.000 A 
ATOM      3  C   UNL     1       2.365   7.624  18.826  0.00  0.00    +0.000 A 
ATOM      4  N   UNL     1       3.281   7.596  17.822  0.00  0.00    +0.000 NA
ATOM      5  C   UNL     1       3.876   6.447  17.397  0.00  0.00    +0.000 A 
ATOM      6  C   UNL     1       4.828   6.498  16.371  0.00  0.00    +0.000 A 
ATOM      7  C   UNL     1       5.431   5.328  15.905  0.00  0.00    +0.000 A 
ATOM      8  C   UNL     1       5.080   4.098  16.455  0.00  0.00    +0.000 A 
ATOM      9  C   UNL     1       4.145   4.031  17.488  0.00  0.00    +0.000 A 
ATOM     10  C   UNL     1       3.538   5.203  17.996  0.00  0.00    +0.000 A 
ENDROOT
BRANCH   3  11
ATOM     11  N   UNL     1       1.766   8.866  19.232  0.00  0.00    +0.000 N 
ATOM     12  C   UNL     1       1.269   9.058  20.587  0.00  0.00    +0.000 C 
ATOM     13  C   UNL     1      -0.174   9.569  20.546  0.00  0.00    +0.000 C 
ATOM     14  N   UNL     1      -0.237  10.785  19.709  0.00  0.00    +0.000 NA
ATOM     15  C   UNL     1      -1.581  11.376  19.740  0.00  0.00    +0.000 C 
ATOM     16  C   UNL     1       0.169  10.466  18.327  0.00  0.00    +0.000 C 
ATOM     17  C   UNL     1       1.631  10.004  18.328  0.00  0.00    +0.000 C 
ENDBRANCH   3  11
BRANCH   1  18
ATOM     18  C   UNL     1       2.201   3.975  19.818  0.00  0.00    +0.000 C 
ATOM     19  O   UNL     1       2.991   3.471  20.606  0.00  0.00    +0.000 OA
BRANCH  18  21
ATOM     20  C   UNL     1       0.969   2.214  18.701  0.00  0.00    +0.000 C 
ATOM     21  O   UNL     1       1.052   3.327  19.506  0.00  0.00    +0.000 OA
ENDBRANCH  18  21
ENDBRANCH   1  18
TORSDOF 3
ENDMDL
MODEL 8
REMARK VINA RESULT:      -6.7      4.554      6.440
REMARK  Name = 
REMARK  5 active torsions:
REMARK  status: ('A' for Active; 'I' for Inactive)
REMARK    1  A    between atoms: C_1  and  O_2
REMARK    2  A    between atoms: O_2  and  C_3
REMARK    3  A    between atoms: C_3  and  C_5
REMARK    4  A    between atoms: C_7  and  N_8
REMARK    5  A    between atoms: N_11  and  C_12
REMARK                            x       y       z     vdW  Elec       q    Type
REMARK                         _______ _______ _______ _____ _____    ______ ____
ROOT
ATOM      1  C   UNL     1       1.914   5.215  20.032  0.00  0.00    +0.000 A 
ATOM      2  C   UNL     1       1.467   6.398  20.639  0.00  0.00    +0.000 A 
ATOM      3  C   UNL     1       1.881   7.659  20.178  0.00  0.00    +0.000 A 
ATOM      4  N   UNL     1       2.715   7.716  19.106  0.00  0.00    +0.000 NA
ATOM      5  C   UNL     1       3.178   6.604  18.471  0.00  0.00    +0.000 A 
ATOM      6  C   UNL     1       4.053   6.739  17.385  0.00  0.00    +0.000 A 
ATOM      7  C   UNL     1       4.520   5.612  16.706  0.00  0.00    +0.000 A 
ATOM      8  C   UNL     1       4.107   4.342  17.100  0.00  0.00    +0.000 A 
ATOM      9  C   UNL     1       3.249   4.189  18.189  0.00  0.00    +0.000 A 
ATOM     10  C   UNL     1       2.782   5.312  18.910  0.00  0.00    +0.000 A 
ENDROOT
BRANCH   3  11
ATOM     11  N   UNL     1       1.419   8.865  20.808  0.00  0.00    +0.000 N 
ATOM     12  C   UNL     1       1.575   9.078  22.240  0.00  0.00    +0.000 C 
ATOM     13  C   UNL     1       0.230   9.469  22.859  0.00  0.00    +0.000 C 
ATOM     14  N   UNL     1      -0.317  10.637  22.139  0.00  0.00    +0.000 NA
ATOM     15  C   UNL     1      -1.549  11.119  22.776  0.00  0.00    +0.000 C 
ATOM     16  C   UNL     1      -0.554  10.291  20.724  0.00  0.00    +0.000 C 
ATOM     17  C   UNL     1       0.785   9.948  20.061  0.00  0.00    +0.000 C 
ENDBRANCH   3  11
BRANCH   1  18
ATOM     18  C   UNL     1       1.483   3.924  20.644  0.00  0.00    +0.000 C 
ATOM     19  O   UNL     1       2.108   3.455  21.587  0.00  0.00    +0.000 OA
BRANCH  18  21
ATOM     20  C   UNL     1       0.744   2.222  19.087  0.00  0.00    +0.000 C 
ATOM     21  O   UNL     1       0.518   3.188  20.041  0.00  0.00    +0.000 OA
ENDBRANCH  18  21
ENDBRANCH   1  18
TORSDOF 3
ENDMDL
MODEL 9
REMARK VINA RESULT:      -6.6      2.417      6.308
REMARK  Name = 
REMARK  5 active torsions:
REMARK  status: ('A' for Active; 'I' for Inactive)
REMARK    1  A    between atoms: C_1  and  O_2
REMARK    2  A    between atoms: O_2  and  C_3
REMARK    3  A    between atoms: C_3  and  C_5
REMARK    4  A    between atoms: C_7  and  N_8
REMARK    5  A    between atoms: N_11  and  C_12
REMARK                            x       y       z     vdW  Elec       q    Type
REMARK                         _______ _______ _______ _____ _____    ______ ____
ROOT
ATOM      1  C   UNL     1       3.025   5.967  18.664  0.00  0.00    +0.000 A 
ATOM      2  C   UNL     1       4.114   5.834  17.789  0.00  0.00    +0.000 A 
ATOM      3  C   UNL     1       4.723   4.589  17.563  0.00  0.00    +0.000 A 
ATOM      4  N   UNL     1       4.221   3.496  18.196  0.00  0.00    +0.000 NA
ATOM      5  C   UNL     1       3.163   3.560  19.052  0.00  0.00    +0.000 A 
ATOM      6  C   UNL     1       2.713   2.394  19.686  0.00  0.00    +0.000 A 
ATOM      7  C   UNL     1       1.615   2.435  20.547  0.00  0.00    +0.000 A 
ATOM      8  C   UNL     1       0.952   3.638  20.773  0.00  0.00    +0.000 A 
ATOM      9  C   UNL     1       1.397   4.811  20.162  0.00  0.00    +0.000 A 
ATOM     10  C   UNL     1       2.522   4.802  19.305  0.00  0.00    +0.000 A 
ENDROOT
BRANCH   3  11
ATOM     11  N   UNL     1       5.840   4.464  16.667  0.00  0.00    +0.000 N 
ATOM     12  C   UNL     1       7.025   5.296  16.815  0.00  0.00    +0.000 C 
ATOM     13  C   UNL     1       7.359   5.972  15.482  0.00  0.00    +0.000 C 
ATOM     14  N   UNL     1       7.482   4.941  14.431  0.00  0.00    +0.000 NA
ATOM     15  C   UNL     1       7.919   5.533  13.160  0.00  0.00    +0.000 C 
ATOM     16  C   UNL     1       6.198   4.231  14.269  0.00  0.00    +0.000 C 
ATOM     17  C   UNL     1       5.864   3.497  15.573  0.00  0.00    +0.000 C 
ENDBRANCH   3  11
BRANCH   1  18
ATOM     18  C   UNL     1       2.498   7.343  18.900  0.00  0.00    +0.000 C 
ATOM     19  O   UNL     1       2.130   7.673  20.021  0.00  0.00    +0.000 OA
BRANCH  18  21
ATOM     20  C   UNL     1       1.443   9.265  17.871  0.00  0.00    +0.000 C 
ATOM     21  O   UNL     1       2.258   8.157  17.843  0.00  0.00    +0.000 OA
ENDBRANCH  18  21
ENDBRANCH   1  18
TORSDOF 3
ENDMDL
