MODEL 1
REMARK VINA RESULT:      -7.9      0.000      0.000
REMARK  Name = 
REMARK  7 active torsions:
REMARK  status: ('A' for Active; 'I' for Inactive)
REMARK    1  A    between atoms: C_1  and  C_2
REMARK    2  A    between atoms: C_2  and  C_3
REMARK    3  A    between atoms: C_2  and  C_4
REMARK    4  A    between atoms: C_2  and  C_5
REMARK    5  A    between atoms: C_8  and  S_9
REMARK    6  A    between atoms: C_16  and  S_17
REMARK    7  A    between atoms: S_17  and  N_18
REMARK                            x       y       z     vdW  Elec       q    Type
REMARK                         _______ _______ _______ _____ _____    ______ ____
ROOT
ATOM      1  S   UNL     1       7.561   5.789  17.969  0.00  0.00    +0.000 S 
ATOM      2  N   UNL     1       7.412   5.908  16.360  0.00  0.00    +0.000 NA
ATOM      3  S   UNL     1       6.053   5.149  15.670  0.00  0.00    +0.000 S 
ATOM      4  O   UNL     1       5.387   6.040  14.747  0.00  0.00    +0.000 OA
ATOM      5  O   UNL     1       6.385   3.779  15.329  0.00  0.00    +0.000 OA
ATOM      6  C   UNL     1       5.088   5.090  17.111  0.00  0.00    +0.000 A 
ATOM      7  C   UNL     1       3.809   4.526  17.128  0.00  0.00    +0.000 A 
ATOM      8  C   UNL     1       3.245   4.258  18.372  0.00  0.00    +0.000 A 
ATOM      9  C   UNL     1       3.960   4.566  19.545  0.00  0.00    +0.000 A 
ATOM     10  C   UNL     1       5.244   5.161  19.475  0.00  0.00    +0.000 A 
ATOM     11  C   UNL     1       5.810   5.463  18.236  0.00  0.00    +0.000 A 
ENDROOT
BRANCH   1  15
ATOM     12  C   UNL     1       8.756  10.303  18.361  0.00  0.00    +0.000 A 
ATOM     13  C   UNL     1       7.786   9.920  17.406  0.00  0.00    +0.000 A 
ATOM     14  C   UNL     1       7.343   8.577  17.259  0.00  0.00    +0.000 A 
ATOM     15  C   UNL     1       7.858   7.577  18.076  0.00  0.00    +0.000 A 
ATOM     16  C   UNL     1       8.714   7.985  19.119  0.00  0.00    +0.000 A 
ATOM     17  C   UNL     1       9.162   9.308  19.257  0.00  0.00    +0.000 A 
BRANCH  12  19
ATOM     18  C   UNL     1      10.850  11.699  17.745  0.00  0.00    +0.000 C 
ATOM     19  C   UNL     1       9.445  11.690  18.391  0.00  0.00    +0.000 C 
ATOM     20  C   UNL     1       9.633  12.127  19.868  0.00  0.00    +0.000 C 
ATOM     21  C   UNL     1       8.614  12.781  17.680  0.00  0.00    +0.000 C 
ENDBRANCH  12  19
ENDBRANCH   1  15
BRANCH   8  22
ATOM     22  S   UNL     1       1.610   3.571  18.441  0.00  0.00    +0.000 S 
ATOM     23  O   UNL     1       1.096   3.726  19.786  0.00  0.00    +0.000 OA
ATOM     24  O   UNL     1       0.879   3.997  17.278  0.00  0.00    +0.000 OA
BRANCH  22  25
ATOM     25  N   UNL     1       1.872   1.920  18.249  0.00  0.00    +0.000 NA
ATOM     26  H   UNL     1       2.424   1.756  17.405  0.00  0.00    +0.000 HD
ATOM     27  H   UNL     1       2.317   1.543  19.088  0.00  0.00    +0.000 HD
ENDBRANCH  22  25
ENDBRANCH   8  22
TORSDOF 4
ENDMDL
MODEL 2
REMARK VINA RESULT:      -7.7      0.715      1.249
REMARK  Name = 
REMARK  7 active torsions:
REMARK  status: ('A' for Active; 'I' for Inactive)
REMARK    1  A    between atoms: C_1  and  C_2
REMARK    2  A    between atoms: C_2  and  C_3
REMARK    3  A    between atoms: C_2  and  C_4
REMARK    4  A    between atoms: C_2  and  C_5
REMARK    5  A    between atoms: C_8  and  S_9
REMARK    6  A    between atoms: C_16  and  S_17
REMARK    7  A    between atoms: S_17  and  N_18
REMARK                            x       y       z     vdW  Elec       q    Type
REMARK                         _______ _______ _______ _____ _____    ______ ____
ROOT
ATOM      1  S   UNL     1       7.560   5.740  17.930  0.00  0.00    +0.000 S 
ATOM      2  N   UNL     1       7.415   5.877  16.323  0.00  0.00    +0.000 NA
ATOM      3  S   UNL     1       6.073   5.103  15.617  0.00  0.00    +0.000 S 
ATOM      4  O   UNL     1       5.394   5.995  14.703  0.00  0.00    +0.000 OA
ATOM      5  O   UNL     1       6.431   3.745  15.259  0.00  0.00    +0.000 OA
ATOM      6  C   UNL     1       5.103   5.007  17.053  0.00  0.00    +0.000 A 
ATOM      7  C   UNL     1       3.835   4.420  17.058  0.00  0.00    +0.000 A 
ATOM      8  C   UNL     1       3.272   4.124  18.296  0.00  0.00    +0.000 A 
ATOM      9  C   UNL     1       3.977   4.429  19.475  0.00  0.00    +0.000 A 
ATOM     10  C   UNL     1       5.249   5.049  19.419  0.00  0.00    +0.000 A 
ATOM     11  C   UNL     1       5.815   5.378  18.186  0.00  0.00    +0.000 A 
ENDROOT
BRANCH   1  15
ATOM     12  C   UNL     1       8.672  10.270  18.379  0.00  0.00    +0.000 A 
ATOM     13  C   UNL     1       7.696   9.883  17.433  0.00  0.00    +0.000 A 
ATOM     14  C   UNL     1       7.276   8.534  17.271  0.00  0.00    +0.000 A 
ATOM     15  C   UNL     1       7.824   7.531  18.062  0.00  0.00    +0.000 A 
ATOM     16  C   UNL     1       8.688   7.939  19.099  0.00  0.00    +0.000 A 
ATOM     17  C   UNL     1       9.112   9.268  19.252  0.00  0.00    +0.000 A 
BRANCH  12  19
ATOM     18  C   UNL     1       8.521  12.764  17.696  0.00  0.00    +0.000 C 
ATOM     19  C   UNL     1       9.335  11.669  18.421  0.00  0.00    +0.000 C 
ATOM     20  C   UNL     1      10.712  11.594  17.710  0.00  0.00    +0.000 C 
ATOM     21  C   UNL     1       9.578  12.167  19.864  0.00  0.00    +0.000 C 
ENDBRANCH  12  19
ENDBRANCH   1  15
BRANCH   8  22
ATOM     22  S   UNL     1       1.650   3.406  18.349  0.00  0.00    +0.000 S 
ATOM     23  O   UNL     1       0.841   4.005  17.308  0.00  0.00    +0.000 OA
ATOM     24  O   UNL     1       1.778   1.982  18.509  0.00  0.00    +0.000 OA
BRANCH  22  25
ATOM     25  N   UNL     1       1.015   3.983  19.796  0.00  0.00    +0.000 NA
ATOM     26  H   UNL     1       0.344   3.310  20.169  0.00  0.00    +0.000 HD
ATOM     27  H   UNL     1       1.775   4.182  20.450  0.00  0.00    +0.000 HD
ENDBRANCH  22  25
ENDBRANCH   8  22
TORSDOF 4
ENDMDL
MODEL 3
REMARK VINA RESULT:      -7.3      5.964      7.306
REMARK  Name = 
REMARK  7 active torsions:
REMARK  status: ('A' for Active; 'I' for Inactive)
REMARK    1  A    between atoms: C_1  and  C_2
REMARK    2  A    between atoms: C_2  and  C_3
REMARK    3  A    between atoms: C_2  and  C_4
REMARK    4  A    between atoms: C_2  and  C_5
REMARK    5  A    between atoms: C_8  and  S_9
REMARK    6  A    between atoms: C_16  and  S_17
REMARK    7  A    between atoms: S_17  and  N_18
REMARK                            x       y       z     vdW  Elec       q    Type
REMARK                         _______ _______ _______ _____ _____    ______ ____
ROOT
ATOM      1  S   UNL     1      -0.000  10.559  19.233  0.00  0.00    +0.000 S 
ATOM      2  N   UNL     1      -0.123  10.553  20.848  0.00  0.00    +0.000 NA
ATOM      3  S   UNL     1       0.370   9.127  21.637  0.00  0.00    +0.000 S 
ATOM      4  O   UNL     1       1.239   9.436  22.751  0.00  0.00    +0.000 OA
ATOM      5  O   UNL     1      -0.760   8.226  21.757  0.00  0.00    +0.000 OA
ATOM      6  C   UNL     1       1.372   8.513  20.361  0.00  0.00    +0.000 A 
ATOM      7  C   UNL     1       2.052   7.296  20.468  0.00  0.00    +0.000 A 
ATOM      8  C   UNL     1       2.577   6.753  19.299  0.00  0.00    +0.000 A 
ATOM      9  C   UNL     1       2.421   7.436  18.079  0.00  0.00    +0.000 A 
ATOM     10  C   UNL     1       1.746   8.680  18.027  0.00  0.00    +0.000 A 
ATOM     11  C   UNL     1       1.238   9.252  19.194  0.00  0.00    +0.000 A 
ENDROOT
BRANCH   1  15
ATOM     12  C   UNL     1       2.245  14.663  18.963  0.00  0.00    +0.000 A 
ATOM     13  C   UNL     1       1.162  14.520  19.860  0.00  0.00    +0.000 A 
ATOM     14  C   UNL     1       0.461  13.293  20.027  0.00  0.00    +0.000 A 
ATOM     15  C   UNL     1       0.834  12.170  19.299  0.00  0.00    +0.000 A 
ATOM     16  C   UNL     1       2.001  12.277  18.516  0.00  0.00    +0.000 A 
ATOM     17  C   UNL     1       2.686  13.490  18.340  0.00  0.00    +0.000 A 
BRANCH  12  19
ATOM     18  C   UNL     1       1.846  17.178  18.484  0.00  0.00    +0.000 C 
ATOM     19  C   UNL     1       2.870  16.024  18.566  0.00  0.00    +0.000 C 
ATOM     20  C   UNL     1       3.506  15.892  17.156  0.00  0.00    +0.000 C 
ATOM     21  C   UNL     1       3.981  16.473  19.542  0.00  0.00    +0.000 C 
ENDBRANCH  12  19
ENDBRANCH   1  15
BRANCH   8  22
ATOM     22  S   UNL     1       3.475   5.225  19.394  0.00  0.00    +0.000 S 
ATOM     23  O   UNL     1       4.893   5.519  19.428  0.00  0.00    +0.000 OA
ATOM     24  O   UNL     1       2.838   4.371  20.359  0.00  0.00    +0.000 OA
BRANCH  22  25
ATOM     25  N   UNL     1       3.202   4.518  17.892  0.00  0.00    +0.000 NA
ATOM     26  H   UNL     1       4.037   4.612  17.311  0.00  0.00    +0.000 HD
ATOM     27  H   UNL     1       2.919   3.544  18.018  0.00  0.00    +0.000 HD
ENDBRANCH  22  25
ENDBRANCH   8  22
TORSDOF 4
ENDMDL
MODEL 4
REMARK VINA RESULT:      -7.2      8.147      9.907
REMARK  Name = 
REMARK  7 active torsions:
REMARK  status: ('A' for Active; 'I' for Inactive)
REMARK    1  A    between atoms: C_1  and  C_2
REMARK    2  A    between atoms: C_2  and  C_3
REMARK    3  A    between atoms: C_2  and  C_4
REMARK    4  A    between atoms: C_2  and  C_5
REMARK    5  A    between atoms: C_8  and  S_9
REMARK    6  A    between atoms: C_16  and  S_17
REMARK    7  A    between atoms: S_17  and  N_18
REMARK                            x       y       z     vdW  Elec       q    Type
REMARK                         _______ _______ _______ _____ _____    ______ ____
ROOT
ATOM      1  S   UNL     1       0.789  11.476  18.613  0.00  0.00    +0.000 S 
ATOM      2  N   UNL     1       1.189  11.775  20.155  0.00  0.00    +0.000 NA
ATOM      3  S   UNL     1      -0.033  12.440  21.136  0.00  0.00    +0.000 S 
ATOM      4  O   UNL     1      -0.119  11.731  22.393  0.00  0.00    +0.000 OA
ATOM      5  O   UNL     1       0.021  13.888  21.061  0.00  0.00    +0.000 OA
ATOM      6  C   UNL     1      -1.382  11.934  20.169  0.00  0.00    +0.000 A 
ATOM      7  C   UNL     1      -2.701  12.237  20.516  0.00  0.00    +0.000 A 
ATOM      8  C   UNL     1      -3.677  12.053  19.540  0.00  0.00    +0.000 A 
ATOM      9  C   UNL     1      -3.313  11.569  18.270  0.00  0.00    +0.000 A 
ATOM     10  C   UNL     1      -1.964  11.251  17.976  0.00  0.00    +0.000 A 
ATOM     11  C   UNL     1      -0.978  11.403  18.952  0.00  0.00    +0.000 A 
ENDROOT
BRANCH   1  15
ATOM     12  C   UNL     1       2.239   7.061  19.219  0.00  0.00    +0.000 A 
ATOM     13  C   UNL     1       2.559   7.741  18.022  0.00  0.00    +0.000 A 
ATOM     14  C   UNL     1       2.191   9.095  17.786  0.00  0.00    +0.000 A 
ATOM     15  C   UNL     1       1.492   9.808  18.752  0.00  0.00    +0.000 A 
ATOM     16  C   UNL     1       1.300   9.175  19.997  0.00  0.00    +0.000 A 
ATOM     17  C   UNL     1       1.652   7.836  20.227  0.00  0.00    +0.000 A 
BRANCH  12  19
ATOM     18  C   UNL     1       3.863   5.077  19.591  0.00  0.00    +0.000 C 
ATOM     19  C   UNL     1       2.396   5.533  19.420  0.00  0.00    +0.000 C 
ATOM     20  C   UNL     1       1.847   4.803  18.165  0.00  0.00    +0.000 C 
ATOM     21  C   UNL     1       1.614   5.012  20.646  0.00  0.00    +0.000 C 
ENDBRANCH  12  19
ENDBRANCH   1  15
BRANCH   8  22
ATOM     22  S   UNL     1      -5.370  12.396  19.947  0.00  0.00    +0.000 S 
ATOM     23  O   UNL     1      -6.225  11.702  19.005  0.00  0.00    +0.000 OA
ATOM     24  O   UNL     1      -5.537  12.286  21.371  0.00  0.00    +0.000 OA
BRANCH  22  25
ATOM     25  N   UNL     1      -5.536  14.030  19.582  0.00  0.00    +0.000 NA
ATOM     26  H   UNL     1      -6.289  14.155  18.903  0.00  0.00    +0.000 HD
ATOM     27  H   UNL     1      -5.693  14.559  20.442  0.00  0.00    +0.000 HD
ENDBRANCH  22  25
ENDBRANCH   8  22
TORSDOF 4
ENDMDL
MODEL 5
REMARK VINA RESULT:      -7.2      7.255      9.532
REMARK  Name = 
REMARK  7 active torsions:
REMARK  status: ('A' for Active; 'I' for Inactive)
REMARK    1  A    between atoms: C_1  and  C_2
REMARK    2  A    between atoms: C_2  and  C_3
REMARK    3  A    between atoms: C_2  and  C_4
REMARK    4  A    between atoms: C_2  and  C_5
REMARK    5  A    between atoms: C_8  and  S_9
REMARK    6  A    between atoms: C_16  and  S_17
REMARK    7  A    between atoms: S_17  and  N_18
REMARK                            x       y       z     vdW  Elec       q    Type
REMARK                         _______ _______ _______ _____ _____    ______ ____
ROOT
ATOM      1  S   UNL     1       1.259  10.245  18.537  0.00  0.00    +0.000 S 
ATOM      2  N   UNL     1       1.244  10.576  20.124  0.00  0.00    +0.000 NA
ATOM      3  S   UNL     1      -0.143  11.363  20.717  0.00  0.00    +0.000 S 
ATOM      4  O   UNL     1      -0.625  10.711  21.915  0.00  0.00    +0.000 OA
ATOM      5  O   UNL     1       0.042  12.799  20.633  0.00  0.00    +0.000 OA
ATOM      6  C   UNL     1      -1.212  10.916  19.425  0.00  0.00    +0.000 A 
ATOM      7  C   UNL     1      -2.547  11.325  19.389  0.00  0.00    +0.000 A 
ATOM      8  C   UNL     1      -3.230  11.172  18.185  0.00  0.00    +0.000 A 
ATOM      9  C   UNL     1      -2.571  10.614  17.074  0.00  0.00    +0.000 A 
ATOM     10  C   UNL     1      -1.222  10.191  17.169  0.00  0.00    +0.000 A 
ATOM     11  C   UNL     1      -0.533  10.310  18.377  0.00  0.00    +0.000 A 
ENDROOT
BRANCH   1  15
ATOM     12  C   UNL     1       2.189   5.807  19.718  0.00  0.00    +0.000 A 
ATOM     13  C   UNL     1       2.578   6.285  18.446  0.00  0.00    +0.000 A 
ATOM     14  C   UNL     1       2.368   7.630  18.034  0.00  0.00    +0.000 A 
ATOM     15  C   UNL     1       1.764   8.539  18.895  0.00  0.00    +0.000 A 
ATOM     16  C   UNL     1       1.510   8.098  20.210  0.00  0.00    +0.000 A 
ATOM     17  C   UNL     1       1.705   6.768  20.613  0.00  0.00    +0.000 A 
BRANCH  12  19
ATOM     18  C   UNL     1       2.295   4.068  21.636  0.00  0.00    +0.000 C 
ATOM     19  C   UNL     1       2.169   4.310  20.115  0.00  0.00    +0.000 C 
ATOM     20  C   UNL     1       3.377   3.597  19.450  0.00  0.00    +0.000 C 
ATOM     21  C   UNL     1       0.884   3.590  19.647  0.00  0.00    +0.000 C 
ENDBRANCH  12  19
ENDBRANCH   1  15
BRANCH   8  22
ATOM     22  S   UNL     1      -4.937  11.649  18.102  0.00  0.00    +0.000 S 
ATOM     23  O   UNL     1      -5.207  12.189  16.785  0.00  0.00    +0.000 OA
ATOM     24  O   UNL     1      -5.738  10.610  18.693  0.00  0.00    +0.000 OA
BRANCH  22  25
ATOM     25  N   UNL     1      -5.028  12.962  19.151  0.00  0.00    +0.000 NA
ATOM     26  H   UNL     1      -5.440  12.664  20.037  0.00  0.00    +0.000 HD
ATOM     27  H   UNL     1      -4.099  13.371  19.268  0.00  0.00    +0.000 HD
ENDBRANCH  22  25
ENDBRANCH   8  22
TORSDOF 4
ENDMDL
MODEL 6
REMARK VINA RESULT:      -7.2      8.433     10.078
REMARK  Name = 
REMARK  7 active torsions:
REMARK  status: ('A' for Active; 'I' for Inactive)
REMARK    1  A    between atoms: C_1  and  C_2
REMARK    2  A    between atoms: C_2  and  C_3
REMARK    3  A    between atoms: C_2  and  C_4
REMARK    4  A    between atoms: C_2  and  C_5
REMARK    5  A    between atoms: C_8  and  S_9
REMARK    6  A    between atoms: C_16  and  S_17
REMARK    7  A    between atoms: S_17  and  N_18
REMARK                            x       y       z     vdW  Elec       q    Type
REMARK                         _______ _______ _______ _____ _____    ______ ____
ROOT
ATOM      1  S   UNL     1       0.593  11.645  19.461  0.00  0.00    +0.000 S 
ATOM      2  N   UNL     1       0.915  11.599  21.048  0.00  0.00    +0.000 NA
ATOM      3  S   UNL     1      -0.303  12.185  22.083  0.00  0.00    +0.000 S 
ATOM      4  O   UNL     1      -0.537  11.259  23.169  0.00  0.00    +0.000 OA
ATOM      5  O   UNL     1      -0.113  13.606  22.298  0.00  0.00    +0.000 OA
ATOM      6  C   UNL     1      -1.626  12.016  20.972  0.00  0.00    +0.000 A 
ATOM      7  C   UNL     1      -2.932  12.380  21.309  0.00  0.00    +0.000 A 
ATOM      8  C   UNL     1      -3.853  12.489  20.271  0.00  0.00    +0.000 A 
ATOM      9  C   UNL     1      -3.451  12.224  18.948  0.00  0.00    +0.000 A 
ATOM     10  C   UNL     1      -2.120  11.832  18.661  0.00  0.00    +0.000 A 
ATOM     11  C   UNL     1      -1.192  11.690  19.694  0.00  0.00    +0.000 A 
ENDROOT
BRANCH   1  15
ATOM     12  C   UNL     1       2.274   7.333  18.729  0.00  0.00    +0.000 A 
ATOM     13  C   UNL     1       1.818   7.693  20.018  0.00  0.00    +0.000 A 
ATOM     14  C   UNL     1       1.255   8.967  20.305  0.00  0.00    +0.000 A 
ATOM     15  C   UNL     1       1.130   9.918  19.300  0.00  0.00    +0.000 A 
ATOM     16  C   UNL     1       1.452   9.507  17.990  0.00  0.00    +0.000 A 
ATOM     17  C   UNL     1       2.018   8.254  17.708  0.00  0.00    +0.000 A 
BRANCH  12  19
ATOM     18  C   UNL     1       2.286   4.901  17.835  0.00  0.00    +0.000 C 
ATOM     19  C   UNL     1       3.112   6.065  18.427  0.00  0.00    +0.000 C 
ATOM     20  C   UNL     1       3.731   5.544  19.751  0.00  0.00    +0.000 C 
ATOM     21  C   UNL     1       4.272   6.342  17.444  0.00  0.00    +0.000 C 
ENDBRANCH  12  19
ENDBRANCH   1  15
BRANCH   8  22
ATOM     22  S   UNL     1      -5.531  12.919  20.656  0.00  0.00    +0.000 S 
ATOM     23  O   UNL     1      -6.054  11.954  21.601  0.00  0.00    +0.000 OA
ATOM     24  O   UNL     1      -5.608  14.339  20.876  0.00  0.00    +0.000 OA
BRANCH  22  25
ATOM     25  N   UNL     1      -6.350  12.625  19.216  0.00  0.00    +0.000 NA
ATOM     26  H   UNL     1      -5.968  13.217  18.477  0.00  0.00    +0.000 HD
ATOM     27  H   UNL     1      -6.297  11.630  18.988  0.00  0.00    +0.000 HD
ENDBRANCH  22  25
ENDBRANCH   8  22
TORSDOF 4
ENDMDL
MODEL 7
REMARK VINA RESULT:      -7.2      8.083      9.870
REMARK  Name = 
REMARK  7 active torsions:
REMARK  status: ('A' for Active; 'I' for Inactive)
REMARK    1  A    between atoms: C_1  and  C_2
REMARK    2  A    between atoms: C_2  and  C_3
REMARK    3  A    between atoms: C_2  and  C_4
REMARK    4  A    between atoms: C_2  and  C_5
REMARK    5  A    between atoms: C_8  and  S_9
REMARK    6  A    between atoms: C_16  and  S_17
REMARK    7  A    between atoms: S_17  and  N_18
REMARK                            x       y       z     vdW  Elec       q    Type
REMARK                         _______ _______ _______ _____ _____    ______ ____
ROOT
ATOM      1  S   UNL     1       0.624  11.540  18.700  0.00  0.00    +0.000 S 
ATOM      2  N   UNL     1       0.648  11.649  20.316  0.00  0.00    +0.000 NA
ATOM      3  S   UNL     1      -0.804  12.136  21.061  0.00  0.00    +0.000 S 
ATOM      4  O   UNL     1      -1.123  11.265  22.170  0.00  0.00    +0.000 OA
ATOM      5  O   UNL     1      -0.829  13.581  21.173  0.00  0.00    +0.000 OA
ATOM      6  C   UNL     1      -1.866  11.712  19.756  0.00  0.00    +0.000 A 
ATOM      7  C   UNL     1      -3.246  11.919  19.822  0.00  0.00    +0.000 A 
ATOM      8  C   UNL     1      -3.964  11.830  18.632  0.00  0.00    +0.000 A 
ATOM      9  C   UNL     1      -3.293  11.530  17.432  0.00  0.00    +0.000 A 
ATOM     10  C   UNL     1      -1.895  11.302  17.422  0.00  0.00    +0.000 A 
ATOM     11  C   UNL     1      -1.166  11.359  18.610  0.00  0.00    +0.000 A 
ENDROOT
BRANCH   1  15
ATOM     12  C   UNL     1       2.234   7.169  19.207  0.00  0.00    +0.000 A 
ATOM     13  C   UNL     1       2.501   7.875  18.012  0.00  0.00    +0.000 A 
ATOM     14  C   UNL     1       2.083   9.218  17.804  0.00  0.00    +0.000 A 
ATOM     15  C   UNL     1       1.385   9.895  18.797  0.00  0.00    +0.000 A 
ATOM     16  C   UNL     1       1.246   9.239  20.038  0.00  0.00    +0.000 A 
ATOM     17  C   UNL     1       1.648   7.910  20.239  0.00  0.00    +0.000 A 
BRANCH  12  19
ATOM     18  C   UNL     1       1.709   5.050  20.603  0.00  0.00    +0.000 C 
ATOM     19  C   UNL     1       2.446   5.644  19.381  0.00  0.00    +0.000 C 
ATOM     20  C   UNL     1       3.958   5.370  19.598  0.00  0.00    +0.000 C 
ATOM     21  C   UNL     1       1.995   4.837  18.143  0.00  0.00    +0.000 C 
ENDBRANCH  12  19
ENDBRANCH   1  15
BRANCH   8  22
ATOM     22  S   UNL     1      -5.724  12.055  18.675  0.00  0.00    +0.000 S 
ATOM     23  O   UNL     1      -6.324  10.913  19.334  0.00  0.00    +0.000 OA
ATOM     24  O   UNL     1      -6.009  13.411  19.062  0.00  0.00    +0.000 OA
BRANCH  22  25
ATOM     25  N   UNL     1      -6.173  11.926  17.059  0.00  0.00    +0.000 NA
ATOM     26  H   UNL     1      -6.299  12.859  16.663  0.00  0.00    +0.000 HD
ATOM     27  H   UNL     1      -5.476  11.376  16.552  0.00  0.00    +0.000 HD
ENDBRANCH  22  25
ENDBRANCH   8  22
TORSDOF 4
ENDMDL
MODEL 8
REMARK VINA RESULT:      -7.2      8.177     10.011
REMARK  Name = 
REMARK  7 active torsions:
REMARK  status: ('A' for Active; 'I' for Inactive)
REMARK    1  A    between atoms: C_1  and  C_2
REMARK    2  A    between atoms: C_2  and  C_3
REMARK    3  A    between atoms: C_2  and  C_4
REMARK    4  A    between atoms: C_2  and  C_5
REMARK    5  A    between atoms: C_8  and  S_9
REMARK    6  A    between atoms: C_16  and  S_17
REMARK    7  A    between atoms: S_17  and  N_18
REMARK                            x       y       z     vdW  Elec       q    Type
REMARK                         _______ _______ _______ _____ _____    ______ ____
ROOT
ATOM      1  S   UNL     1       0.892  11.184  19.559  0.00  0.00    +0.000 S 
ATOM      2  N   UNL     1       1.074  11.252  21.168  0.00  0.00    +0.000 NA
ATOM      3  S   UNL     1      -0.177  12.012  22.037  0.00  0.00    +0.000 S 
ATOM      4  O   UNL     1      -0.576  11.203  23.167  0.00  0.00    +0.000 OA
ATOM      5  O   UNL     1       0.107  13.429  22.155  0.00  0.00    +0.000 OA
ATOM      6  C   UNL     1      -1.410  11.844  20.827  0.00  0.00    +0.000 A 
ATOM      7  C   UNL     1      -2.707  12.331  21.013  0.00  0.00    +0.000 A 
ATOM      8  C   UNL     1      -3.524  12.416  19.890  0.00  0.00    +0.000 A 
ATOM      9  C   UNL     1      -3.034  12.009  18.635  0.00  0.00    +0.000 A 
ATOM     10  C   UNL     1      -1.719  11.498  18.503  0.00  0.00    +0.000 A 
ATOM     11  C   UNL     1      -0.897  11.378  19.625  0.00  0.00    +0.000 A 
ENDROOT
BRANCH   1  15
ATOM     12  C   UNL     1       2.291   6.717  19.346  0.00  0.00    +0.000 A 
ATOM     13  C   UNL     1       1.705   7.207  20.535  0.00  0.00    +0.000 A 
ATOM     14  C   UNL     1       1.217   8.537  20.660  0.00  0.00    +0.000 A 
ATOM     15  C   UNL     1       1.301   9.415  19.586  0.00  0.00    +0.000 A 
ATOM     16  C   UNL     1       1.753   8.883  18.361  0.00  0.00    +0.000 A 
ATOM     17  C   UNL     1       2.245   7.574  18.241  0.00  0.00    +0.000 A 
BRANCH  12  19
ATOM     18  C   UNL     1       4.591   5.526  19.272  0.00  0.00    +0.000 C 
ATOM     19  C   UNL     1       3.053   5.372  19.243  0.00  0.00    +0.000 C 
ATOM     20  C   UNL     1       2.700   4.696  17.891  0.00  0.00    +0.000 C 
ATOM     21  C   UNL     1       2.675   4.388  20.372  0.00  0.00    +0.000 C 
ENDBRANCH  12  19
ENDBRANCH   1  15
BRANCH   8  22
ATOM     22  S   UNL     1      -5.189  12.999  20.085  0.00  0.00    +0.000 S 
ATOM     23  O   UNL     1      -6.023  11.894  20.512  0.00  0.00    +0.000 OA
ATOM     24  O   UNL     1      -5.161  14.261  20.775  0.00  0.00    +0.000 OA
BRANCH  22  25
ATOM     25  N   UNL     1      -5.671  13.339  18.509  0.00  0.00    +0.000 NA
ATOM     26  H   UNL     1      -4.898  13.155  17.867  0.00  0.00    +0.000 HD
ATOM     27  H   UNL     1      -6.507  12.797  18.281  0.00  0.00    +0.000 HD
ENDBRANCH  22  25
ENDBRANCH   8  22
TORSDOF 4
ENDMDL
MODEL 9
REMARK VINA RESULT:      -7.2      5.840      7.124
REMARK  Name = 
REMARK  7 active torsions:
REMARK  status: ('A' for Active; 'I' for Inactive)
REMARK    1  A    between atoms: C_1  and  C_2
REMARK    2  A    between atoms: C_2  and  C_3
REMARK    3  A    between atoms: C_2  and  C_4
REMARK    4  A    between atoms: C_2  and  C_5
REMARK    5  A    between atoms: C_8  and  S_9
REMARK    6  A    between atoms: C_16  and  S_17
REMARK    7  A    between atoms: S_17  and  N_18
REMARK                            x       y       z     vdW  Elec       q    Type
REMARK                         _______ _______ _______ _____ _____    ______ ____
ROOT
ATOM      1  S   UNL     1       0.245  10.794  19.226  0.00  0.00    +0.000 S 
ATOM      2  N   UNL     1       0.133  10.744  20.841  0.00  0.00    +0.000 NA
ATOM      3  S   UNL     1       0.519   9.260  21.579  0.00  0.00    +0.000 S 
ATOM      4  O   UNL     1       1.417   9.464  22.694  0.00  0.00    +0.000 OA
ATOM      5  O   UNL     1      -0.675   8.444  21.681  0.00  0.00    +0.000 OA
ATOM      6  C   UNL     1       1.463   8.612  20.275  0.00  0.00    +0.000 A 
ATOM      7  C   UNL     1       2.047   7.344  20.336  0.00  0.00    +0.000 A 
ATOM      8  C   UNL     1       2.522   6.801  19.146  0.00  0.00    +0.000 A 
ATOM      9  C   UNL     1       2.410   7.534  17.949  0.00  0.00    +0.000 A 
ATOM     10  C   UNL     1       1.833   8.827  17.944  0.00  0.00    +0.000 A 
ATOM     11  C   UNL     1       1.379   9.398  19.134  0.00  0.00    +0.000 A 
ENDROOT
BRANCH   1  15
ATOM     12  C   UNL     1       2.730  14.763  19.058  0.00  0.00    +0.000 A 
ATOM     13  C   UNL     1       1.794  14.571  20.100  0.00  0.00    +0.000 A 
ATOM     14  C   UNL     1       1.036  13.376  20.240  0.00  0.00    +0.000 A 
ATOM     15  C   UNL     1       1.202  12.333  19.337  0.00  0.00    +0.000 A 
ATOM     16  C   UNL     1       2.236  12.469  18.388  0.00  0.00    +0.000 A 
ATOM     17  C   UNL     1       2.976  13.653  18.241  0.00  0.00    +0.000 A 
BRANCH  12  19
ATOM     18  C   UNL     1       2.933  16.716  17.368  0.00  0.00    +0.000 C 
ATOM     19  C   UNL     1       3.389  16.124  18.721  0.00  0.00    +0.000 C 
ATOM     20  C   UNL     1       4.925  15.929  18.625  0.00  0.00    +0.000 C 
ATOM     21  C   UNL     1       3.118  17.197  19.799  0.00  0.00    +0.000 C 
ENDBRANCH  12  19
ENDBRANCH   1  15
BRANCH   8  22
ATOM     22  S   UNL     1       3.300   5.206  19.182  0.00  0.00    +0.000 S 
ATOM     23  O   UNL     1       2.830   4.432  18.052  0.00  0.00    +0.000 OA
ATOM     24  O   UNL     1       4.697   5.378  19.476  0.00  0.00    +0.000 OA
BRANCH  22  25
ATOM     25  N   UNL     1       2.625   4.473  20.538  0.00  0.00    +0.000 NA
ATOM     26  H   UNL     1       1.887   3.830  20.248  0.00  0.00    +0.000 HD
ATOM     27  H   UNL     1       3.358   4.010  21.079  0.00  0.00    +0.000 HD
ENDBRANCH  22  25
ENDBRANCH   8  22
TORSDOF 4
ENDMDL
