MODEL 1
REMARK VINA RESULT:      -6.5      0.000      0.000
REMARK  Name = 
REMARK  3 active torsions:
REMARK  status: ('A' for Active; 'I' for Inactive)
REMARK    1  A    between atoms: C_2  and  O_3
REMARK    2  A    between atoms: C_2  and  C_4
REMARK    3  A    between atoms: N_7  and  C_8
REMARK                            x       y       z     vdW  Elec       q    Type
REMARK                         _______ _______ _______ _____ _____    ______ ____
ROOT
ATOM      1  C   UNL     1      -1.207  10.135  22.737  0.00  0.00    +0.000 C 
ATOM      2  C   UNL     1       0.206  10.151  23.358  0.00  0.00    +0.000 C 
ATOM      3  C   UNL     1       1.035   9.158  22.581  0.00  0.00    +0.000 C 
ATOM      4  C   UNL     1       0.572   9.249  21.096  0.00  0.00    +0.000 C 
ATOM      5  C   UNL     1      -0.978   9.197  21.448  0.00  0.00    +0.000 C 
ATOM      6  C   UNL     1       0.830  10.659  20.468  0.00  0.00    +0.000 C 
ATOM      7  O   UNL     1       1.706  11.438  20.827  0.00  0.00    +0.000 OA
ATOM      8  C   UNL     1      -0.073  11.016  19.332  0.00  0.00    +0.000 A 
ATOM      9  C   UNL     1      -1.169  11.831  19.557  0.00  0.00    +0.000 A 
ATOM     10  C   UNL     1      -2.321  11.632  18.795  0.00  0.00    +0.000 A 
ATOM     11  F   UNL     1      -3.453  12.271  19.116  0.00  0.00    +0.000 F 
ATOM     12  C   UNL     1      -2.361  10.696  17.771  0.00  0.00    +0.000 A 
ATOM     13  C   UNL     1      -1.196  10.029  17.428  0.00  0.00    +0.000 A 
ATOM     14  C   UNL     1      -0.051  10.204  18.207  0.00  0.00    +0.000 A 
ATOM     15  S   UNL     1       1.461   9.513  17.687  0.00  0.00    +0.000 S 
ATOM     16  C   UNL     1       1.723   8.222  18.883  0.00  0.00    +0.000 A 
ATOM     17  C   UNL     1       2.556   7.249  18.274  0.00  0.00    +0.000 A 
ATOM     18  C   UNL     1       3.084   6.192  18.975  0.00  0.00    +0.000 A 
ATOM     19  C   UNL     1       2.735   6.061  20.307  0.00  0.00    +0.000 A 
ATOM     20  C   UNL     1       1.854   6.985  20.914  0.00  0.00    +0.000 A 
ATOM     21  C   UNL     1       1.326   8.127  20.251  0.00  0.00    +0.000 A 
ENDROOT
BRANCH   1  25
ATOM     22  C   UNL     1      -2.443  14.373  23.305  0.00  0.00    +0.000 C 
ATOM     23  C   UNL     1      -3.454  13.238  23.179  0.00  0.00    +0.000 C 
ATOM     24  C   UNL     1      -2.844  11.855  23.515  0.00  0.00    +0.000 C 
ATOM     25  N   UNL     1      -1.721  11.542  22.608  0.00  0.00    +0.000 NA
ATOM     26  C   UNL     1      -0.673  12.579  22.842  0.00  0.00    +0.000 C 
ATOM     27  C   UNL     1      -1.169  14.005  22.542  0.00  0.00    +0.000 C 
BRANCH  22  29
ATOM     28  O   UNL     1      -1.089  15.053  25.208  0.00  0.00    +0.000 OA
ATOM     29  C   UNL     1      -2.176  14.711  24.762  0.00  0.00    +0.000 C 
BRANCH  29  30
ATOM     30  O   UNL     1      -3.272  14.592  25.551  0.00  0.00    +0.000 OA
ATOM     31  H   UNL     1      -4.054  14.240  25.083  0.00  0.00    +0.000 HD
ENDBRANCH  29  30
ENDBRANCH  22  29
ENDBRANCH   1  25
TORSDOF 3
ENDMDL
MODEL 2
REMARK VINA RESULT:      -6.3      3.067      7.861
REMARK  Name = 
REMARK  3 active torsions:
REMARK  status: ('A' for Active; 'I' for Inactive)
REMARK    1  A    between atoms: C_2  and  O_3
REMARK    2  A    between atoms: C_2  and  C_4
REMARK    3  A    between atoms: N_7  and  C_8
REMARK                            x       y       z     vdW  Elec       q    Type
REMARK                         _______ _______ _______ _____ _____    ______ ____
ROOT
ATOM      1  C   UNL     1      -0.920  13.791  20.874  0.00  0.00    +0.000 C 
ATOM      2  C   UNL     1      -0.369  13.639  22.307  0.00  0.00    +0.000 C 
ATOM      3  C   UNL     1      -1.121  14.622  23.170  0.00  0.00    +0.000 C 
ATOM      4  C   UNL     1      -2.585  14.660  22.640  0.00  0.00    +0.000 C 
ATOM      5  C   UNL     1      -2.159  14.794  21.113  0.00  0.00    +0.000 C 
ATOM      6  C   UNL     1      -3.311  13.279  22.770  0.00  0.00    +0.000 C 
ATOM      7  O   UNL     1      -3.043  12.421  23.603  0.00  0.00    +0.000 OA
ATOM      8  C   UNL     1      -4.423  13.059  21.797  0.00  0.00    +0.000 A 
ATOM      9  C   UNL     1      -4.198  12.307  20.656  0.00  0.00    +0.000 A 
ATOM     10  C   UNL     1      -4.890  12.633  19.489  0.00  0.00    +0.000 A 
ATOM     11  F   UNL     1      -4.557  12.052  18.330  0.00  0.00    +0.000 F 
ATOM     12  C   UNL     1      -5.852  13.635  19.471  0.00  0.00    +0.000 A 
ATOM     13  C   UNL     1      -6.208  14.242  20.665  0.00  0.00    +0.000 A 
ATOM     14  C   UNL     1      -5.496  13.939  21.827  0.00  0.00    +0.000 A 
ATOM     15  S   UNL     1      -6.042  14.558  23.361  0.00  0.00    +0.000 S 
ATOM     16  C   UNL     1      -4.783  15.748  23.764  0.00  0.00    +0.000 A 
ATOM     17  C   UNL     1      -5.369  16.700  24.637  0.00  0.00    +0.000 A 
ATOM     18  C   UNL     1      -4.629  17.672  25.267  0.00  0.00    +0.000 A 
ATOM     19  C   UNL     1      -3.277  17.739  24.986  0.00  0.00    +0.000 A 
ATOM     20  C   UNL     1      -2.687  16.839  24.069  0.00  0.00    +0.000 A 
ATOM     21  C   UNL     1      -3.394  15.781  23.434  0.00  0.00    +0.000 A 
ENDROOT
BRANCH   1  25
ATOM     22  C   UNL     1      -0.497   9.795  18.960  0.00  0.00    +0.000 C 
ATOM     23  C   UNL     1      -1.085  10.995  18.223  0.00  0.00    +0.000 C 
ATOM     24  C   UNL     1      -0.664  12.346  18.852  0.00  0.00    +0.000 C 
ATOM     25  N   UNL     1      -1.112  12.434  20.257  0.00  0.00    +0.000 NA
ATOM     26  C   UNL     1      -0.419  11.342  21.002  0.00  0.00    +0.000 C 
ATOM     27  C   UNL     1      -0.760   9.942  20.460  0.00  0.00    +0.000 C 
BRANCH  22  29
ATOM     28  O   UNL     1       1.797   9.109  19.389  0.00  0.00    +0.000 OA
ATOM     29  C   UNL     1       0.978   9.623  18.639  0.00  0.00    +0.000 C 
BRANCH  29  30
ATOM     30  O   UNL     1       1.322  10.105  17.419  0.00  0.00    +0.000 OA
ATOM     31  H   UNL     1       2.255  10.391  17.362  0.00  0.00    +0.000 HD
ENDBRANCH  29  30
ENDBRANCH  22  29
ENDBRANCH   1  25
TORSDOF 3
ENDMDL
MODEL 3
REMARK VINA RESULT:      -6.2      4.136      5.730
REMARK  Name = 
REMARK  3 active torsions:
REMARK  status: ('A' for Active; 'I' for Inactive)
REMARK    1  A    between atoms: C_2  and  O_3
REMARK    2  A    between atoms: C_2  and  C_4
REMARK    3  A    between atoms: N_7  and  C_8
REMARK                            x       y       z     vdW  Elec       q    Type
REMARK                         _______ _______ _______ _____ _____    ______ ____
ROOT
ATOM      1  C   UNL     1      -1.578  13.024  20.922  0.00  0.00    +0.000 C 
ATOM      2  C   UNL     1      -0.339  12.515  21.690  0.00  0.00    +0.000 C 
ATOM      3  C   UNL     1       0.870  12.913  20.880  0.00  0.00    +0.000 C 
ATOM      4  C   UNL     1       0.557  14.307  20.258  0.00  0.00    +0.000 C 
ATOM      5  C   UNL     1      -0.892  13.892  19.751  0.00  0.00    +0.000 C 
ATOM      6  C   UNL     1       0.340  15.416  21.341  0.00  0.00    +0.000 C 
ATOM      7  O   UNL     1       0.827  15.405  22.466  0.00  0.00    +0.000 OA
ATOM      8  C   UNL     1      -0.514  16.563  20.904  0.00  0.00    +0.000 A 
ATOM      9  C   UNL     1      -1.849  16.602  21.266  0.00  0.00    +0.000 A 
ATOM     10  C   UNL     1      -2.765  17.186  20.390  0.00  0.00    +0.000 A 
ATOM     11  F   UNL     1      -4.078  17.071  20.623  0.00  0.00    +0.000 F 
ATOM     12  C   UNL     1      -2.356  17.798  19.213  0.00  0.00    +0.000 A 
ATOM     13  C   UNL     1      -0.999  17.926  18.963  0.00  0.00    +0.000 A 
ATOM     14  C   UNL     1      -0.083  17.315  19.820  0.00  0.00    +0.000 A 
ATOM     15  S   UNL     1       1.622  17.614  19.619  0.00  0.00    +0.000 S 
ATOM     16  C   UNL     1       2.219  16.044  19.034  0.00  0.00    +0.000 A 
ATOM     17  C   UNL     1       3.408  16.293  18.302  0.00  0.00    +0.000 A 
ATOM     18  C   UNL     1       4.215  15.279  17.844  0.00  0.00    +0.000 A 
ATOM     19  C   UNL     1       3.808  13.977  18.070  0.00  0.00    +0.000 A 
ATOM     20  C   UNL     1       2.593  13.709  18.742  0.00  0.00    +0.000 A 
ATOM     21  C   UNL     1       1.751  14.718  19.286  0.00  0.00    +0.000 A 
ENDROOT
BRANCH   1  25
ATOM     22  C   UNL     1      -4.795  13.890  23.874  0.00  0.00    +0.000 C 
ATOM     23  C   UNL     1      -4.902  14.296  22.408  0.00  0.00    +0.000 C 
ATOM     24  C   UNL     1      -3.971  13.467  21.489  0.00  0.00    +0.000 C 
ATOM     25  N   UNL     1      -2.558  13.634  21.886  0.00  0.00    +0.000 NA
ATOM     26  C   UNL     1      -2.431  13.100  23.275  0.00  0.00    +0.000 C 
ATOM     27  C   UNL     1      -3.321  13.849  24.284  0.00  0.00    +0.000 C 
BRANCH  22  29
ATOM     28  O   UNL     1      -6.542  12.223  23.578  0.00  0.00    +0.000 OA
ATOM     29  C   UNL     1      -5.510  12.575  24.133  0.00  0.00    +0.000 C 
BRANCH  29  30
ATOM     30  O   UNL     1      -4.895  11.803  25.063  0.00  0.00    +0.000 OA
ATOM     31  H   UNL     1      -4.176  11.251  24.698  0.00  0.00    +0.000 HD
ENDBRANCH  29  30
ENDBRANCH  22  29
ENDBRANCH   1  25
TORSDOF 3
ENDMDL
MODEL 4
REMARK VINA RESULT:      -6.2      3.015      5.125
REMARK  Name = 
REMARK  3 active torsions:
REMARK  status: ('A' for Active; 'I' for Inactive)
REMARK    1  A    between atoms: C_2  and  O_3
REMARK    2  A    between atoms: C_2  and  C_4
REMARK    3  A    between atoms: N_7  and  C_8
REMARK                            x       y       z     vdW  Elec       q    Type
REMARK                         _______ _______ _______ _____ _____    ______ ____
ROOT
ATOM      1  C   UNL     1      -1.551  14.824  22.533  0.00  0.00    +0.000 C 
ATOM      2  C   UNL     1      -1.889  15.722  21.324  0.00  0.00    +0.000 C 
ATOM      3  C   UNL     1      -0.648  15.785  20.468  0.00  0.00    +0.000 C 
ATOM      4  C   UNL     1       0.021  14.380  20.540  0.00  0.00    +0.000 C 
ATOM      5  C   UNL     1      -0.096  14.269  22.122  0.00  0.00    +0.000 C 
ATOM      6  C   UNL     1      -0.888  13.247  19.955  0.00  0.00    +0.000 C 
ATOM      7  O   UNL     1      -1.749  13.411  19.099  0.00  0.00    +0.000 OA
ATOM      8  C   UNL     1      -0.620  11.882  20.500  0.00  0.00    +0.000 A 
ATOM      9  C   UNL     1      -1.428  11.373  21.502  0.00  0.00    +0.000 A 
ATOM     10  C   UNL     1      -0.864  10.518  22.450  0.00  0.00    +0.000 A 
ATOM     11  F   UNL     1      -1.568  10.163  23.532  0.00  0.00    +0.000 F 
ATOM     12  C   UNL     1       0.460  10.108  22.362  0.00  0.00    +0.000 A 
ATOM     13  C   UNL     1       1.198  10.467  21.245  0.00  0.00    +0.000 A 
ATOM     14  C   UNL     1       0.646  11.346  20.312  0.00  0.00    +0.000 A 
ATOM     15  S   UNL     1       1.490  11.665  18.822  0.00  0.00    +0.000 S 
ATOM     16  C   UNL     1       2.007  13.355  19.030  0.00  0.00    +0.000 A 
ATOM     17  C   UNL     1       3.147  13.549  18.208  0.00  0.00    +0.000 A 
ATOM     18  C   UNL     1       3.707  14.789  18.009  0.00  0.00    +0.000 A 
ATOM     19  C   UNL     1       3.156  15.862  18.686  0.00  0.00    +0.000 A 
ATOM     20  C   UNL     1       2.060  15.677  19.559  0.00  0.00    +0.000 A 
ATOM     21  C   UNL     1       1.408  14.428  19.756  0.00  0.00    +0.000 A 
ENDROOT
BRANCH   1  25
ATOM     22  C   UNL     1      -5.451  12.918  23.521  0.00  0.00    +0.000 C 
ATOM     23  C   UNL     1      -4.254  12.864  24.464  0.00  0.00    +0.000 C 
ATOM     24  C   UNL     1      -3.225  13.988  24.190  0.00  0.00    +0.000 C 
ATOM     25  N   UNL     1      -2.700  13.894  22.812  0.00  0.00    +0.000 NA
ATOM     26  C   UNL     1      -3.859  14.093  21.892  0.00  0.00    +0.000 C 
ATOM     27  C   UNL     1      -4.955  13.029  22.077  0.00  0.00    +0.000 C 
BRANCH  22  29
ATOM     28  O   UNL     1      -6.316  15.192  23.488  0.00  0.00    +0.000 OA
ATOM     29  C   UNL     1      -6.398  14.043  23.901  0.00  0.00    +0.000 C 
BRANCH  29  30
ATOM     30  O   UNL     1      -7.369  13.659  24.766  0.00  0.00    +0.000 OA
ATOM     31  H   UNL     1      -7.873  12.877  24.466  0.00  0.00    +0.000 HD
ENDBRANCH  29  30
ENDBRANCH  22  29
ENDBRANCH   1  25
TORSDOF 3
ENDMDL
MODEL 5
REMARK VINA RESULT:      -6.0      4.573      7.563
REMARK  Name = 
REMARK  3 active torsions:
REMARK  status: ('A' for Active; 'I' for Inactive)
REMARK    1  A    between atoms: C_2  and  O_3
REMARK    2  A    between atoms: C_2  and  C_4
REMARK    3  A    between atoms: N_7  and  C_8
REMARK                            x       y       z     vdW  Elec       q    Type
REMARK                         _______ _______ _______ _____ _____    ______ ____
ROOT
ATOM      1  C   UNL     1       1.100  16.063  19.085  0.00  0.00    +0.000 C 
ATOM      2  C   UNL     1       0.884  16.893  20.368  0.00  0.00    +0.000 C 
ATOM      3  C   UNL     1      -0.471  16.511  20.911  0.00  0.00    +0.000 C 
ATOM      4  C   UNL     1      -0.652  14.988  20.641  0.00  0.00    +0.000 C 
ATOM      5  C   UNL     1      -0.172  15.075  19.127  0.00  0.00    +0.000 C 
ATOM      6  C   UNL     1       0.410  14.111  21.385  0.00  0.00    +0.000 C 
ATOM      7  O   UNL     1       0.978  14.428  22.423  0.00  0.00    +0.000 OA
ATOM      8  C   UNL     1       0.690  12.789  20.749  0.00  0.00    +0.000 A 
ATOM      9  C   UNL     1       1.809  12.636  19.948  0.00  0.00    +0.000 A 
ATOM     10  C   UNL     1       1.746  11.755  18.867  0.00  0.00    +0.000 A 
ATOM     11  F   UNL     1       2.738  11.728  17.969  0.00  0.00    +0.000 F 
ATOM     12  C   UNL     1       0.621  10.976  18.630  0.00  0.00    +0.000 A 
ATOM     13  C   UNL     1      -0.411  10.993  19.554  0.00  0.00    +0.000 A 
ATOM     14  C   UNL     1      -0.364  11.895  20.619  0.00  0.00    +0.000 A 
ATOM     15  S   UNL     1      -1.563  11.807  21.879  0.00  0.00    +0.000 S 
ATOM     16  C   UNL     1      -2.509  13.289  21.611  0.00  0.00    +0.000 A 
ATOM     17  C   UNL     1      -3.802  13.065  22.149  0.00  0.00    +0.000 A 
ATOM     18  C   UNL     1      -4.739  14.065  22.251  0.00  0.00    +0.000 A 
ATOM     19  C   UNL     1      -4.409  15.313  21.757  0.00  0.00    +0.000 A 
ATOM     20  C   UNL     1      -3.148  15.539  21.159  0.00  0.00    +0.000 A 
ATOM     21  C   UNL     1      -2.122  14.557  21.080  0.00  0.00    +0.000 A 
ENDROOT
BRANCH   1  25
ATOM     22  C   UNL     1       5.510  15.466  18.996  0.00  0.00    +0.000 C 
ATOM     23  C   UNL     1       4.624  15.189  17.785  0.00  0.00    +0.000 C 
ATOM     24  C   UNL     1       3.270  15.937  17.853  0.00  0.00    +0.000 C 
ATOM     25  N   UNL     1       2.508  15.535  19.053  0.00  0.00    +0.000 NA
ATOM     26  C   UNL     1       3.319  15.942  20.238  0.00  0.00    +0.000 C 
ATOM     27  C   UNL     1       4.699  15.260  20.277  0.00  0.00    +0.000 C 
BRANCH  22  29
ATOM     28  O   UNL     1       5.624  17.868  19.364  0.00  0.00    +0.000 OA
ATOM     29  C   UNL     1       6.132  16.850  18.915  0.00  0.00    +0.000 C 
BRANCH  29  30
ATOM     30  O   UNL     1       7.330  16.864  18.279  0.00  0.00    +0.000 OA
ATOM     31  H   UNL     1       7.550  17.728  17.880  0.00  0.00    +0.000 HD
ENDBRANCH  29  30
ENDBRANCH  22  29
ENDBRANCH   1  25
TORSDOF 3
ENDMDL
MODEL 6
REMARK VINA RESULT:      -6.0      6.066      8.667
REMARK  Name = 
REMARK  3 active torsions:
REMARK  status: ('A' for Active; 'I' for Inactive)
REMARK    1  A    between atoms: C_2  and  O_3
REMARK    2  A    between atoms: C_2  and  C_4
REMARK    3  A    between atoms: N_7  and  C_8
REMARK                            x       y       z     vdW  Elec       q    Type
REMARK                         _______ _______ _______ _____ _____    ______ ____
ROOT
ATOM      1  C   UNL     1      -3.860  13.145  22.272  0.00  0.00    +0.000 C 
ATOM      2  C   UNL     1      -4.162  12.792  23.744  0.00  0.00    +0.000 C 
ATOM      3  C   UNL     1      -3.437  13.806  24.594  0.00  0.00    +0.000 C 
ATOM      4  C   UNL     1      -3.510  15.164  23.836  0.00  0.00    +0.000 C 
ATOM      5  C   UNL     1      -3.081  14.546  22.434  0.00  0.00    +0.000 C 
ATOM      6  C   UNL     1      -4.978  15.677  23.655  0.00  0.00    +0.000 C 
ATOM      7  O   UNL     1      -5.914  15.403  24.397  0.00  0.00    +0.000 OA
ATOM      8  C   UNL     1      -5.187  16.587  22.488  0.00  0.00    +0.000 A 
ATOM      9  C   UNL     1      -5.712  16.083  21.310  0.00  0.00    +0.000 A 
ATOM     10  C   UNL     1      -5.300  16.641  20.099  0.00  0.00    +0.000 A 
ATOM     11  F   UNL     1      -5.641  16.055  18.944  0.00  0.00    +0.000 F 
ATOM     12  C   UNL     1      -4.445  17.734  20.056  0.00  0.00    +0.000 A 
ATOM     13  C   UNL     1      -4.088  18.350  21.245  0.00  0.00    +0.000 A 
ATOM     14  C   UNL     1      -4.473  17.777  22.458  0.00  0.00    +0.000 A 
ATOM     15  S   UNL     1      -4.183  18.631  23.948  0.00  0.00    +0.000 S 
ATOM     16  C   UNL     1      -2.915  17.645  24.713  0.00  0.00    +0.000 A 
ATOM     17  C   UNL     1      -2.199  18.493  25.596  0.00  0.00    +0.000 A 
ATOM     18  C   UNL     1      -1.250  18.014  26.467  0.00  0.00    +0.000 A 
ATOM     19  C   UNL     1      -0.961  16.663  26.428  0.00  0.00    +0.000 A 
ATOM     20  C   UNL     1      -1.618  15.812  25.509  0.00  0.00    +0.000 A 
ATOM     21  C   UNL     1      -2.647  16.245  24.628  0.00  0.00    +0.000 A 
ENDROOT
BRANCH   1  25
ATOM     22  C   UNL     1      -7.479  11.834  20.037  0.00  0.00    +0.000 C 
ATOM     23  C   UNL     1      -6.221  12.331  19.333  0.00  0.00    +0.000 C 
ATOM     24  C   UNL     1      -4.958  12.228  20.224  0.00  0.00    +0.000 C 
ATOM     25  N   UNL     1      -5.116  13.030  21.454  0.00  0.00    +0.000 NA
ATOM     26  C   UNL     1      -6.263  12.445  22.209  0.00  0.00    +0.000 C 
ATOM     27  C   UNL     1      -7.582  12.489  21.416  0.00  0.00    +0.000 C 
BRANCH  22  29
ATOM     28  O   UNL     1      -7.683   9.671  21.132  0.00  0.00    +0.000 OA
ATOM     29  C   UNL     1      -7.505  10.317  20.108  0.00  0.00    +0.000 C 
BRANCH  29  30
ATOM     30  O   UNL     1      -7.304   9.719  18.908  0.00  0.00    +0.000 OA
ATOM     31  H   UNL     1      -7.127   8.760  18.974  0.00  0.00    +0.000 HD
ENDBRANCH  29  30
ENDBRANCH  22  29
ENDBRANCH   1  25
TORSDOF 3
ENDMDL
MODEL 7
REMARK VINA RESULT:      -6.0      3.511      8.059
REMARK  Name = 
REMARK  3 active torsions:
REMARK  status: ('A' for Active; 'I' for Inactive)
REMARK    1  A    between atoms: C_2  and  O_3
REMARK    2  A    between atoms: C_2  and  C_4
REMARK    3  A    between atoms: N_7  and  C_8
REMARK                            x       y       z     vdW  Elec       q    Type
REMARK                         _______ _______ _______ _____ _____    ______ ____
ROOT
ATOM      1  C   UNL     1      -1.766  13.930  20.755  0.00  0.00    +0.000 C 
ATOM      2  C   UNL     1      -1.597  13.889  22.288  0.00  0.00    +0.000 C 
ATOM      3  C   UNL     1      -2.697  14.743  22.870  0.00  0.00    +0.000 C 
ATOM      4  C   UNL     1      -3.955  14.528  21.977  0.00  0.00    +0.000 C 
ATOM      5  C   UNL     1      -3.166  14.714  20.608  0.00  0.00    +0.000 C 
ATOM      6  C   UNL     1      -4.462  13.047  21.991  0.00  0.00    +0.000 C 
ATOM      7  O   UNL     1      -4.291  12.256  22.911  0.00  0.00    +0.000 OA
ATOM      8  C   UNL     1      -5.226  12.632  20.776  0.00  0.00    +0.000 A 
ATOM      9  C   UNL     1      -4.590  11.915  19.777  0.00  0.00    +0.000 A 
ATOM     10  C   UNL     1      -4.991  12.107  18.454  0.00  0.00    +0.000 A 
ATOM     11  F   UNL     1      -4.275  11.576  17.455  0.00  0.00    +0.000 F 
ATOM     12  C   UNL     1      -6.060  12.932  18.131  0.00  0.00    +0.000 A 
ATOM     13  C   UNL     1      -6.811  13.485  19.157  0.00  0.00    +0.000 A 
ATOM     14  C   UNL     1      -6.394  13.320  20.478  0.00  0.00    +0.000 A 
ATOM     15  S   UNL     1      -7.418  13.857  21.781  0.00  0.00    +0.000 S 
ATOM     16  C   UNL     1      -6.516  15.245  22.430  0.00  0.00    +0.000 A 
ATOM     17  C   UNL     1      -7.455  16.096  23.067  0.00  0.00    +0.000 A 
ATOM     18  C   UNL     1      -7.073  17.185  23.813  0.00  0.00    +0.000 A 
ATOM     19  C   UNL     1      -5.723  17.475  23.888  0.00  0.00    +0.000 A 
ATOM     20  C   UNL     1      -4.776  16.675  23.207  0.00  0.00    +0.000 A 
ATOM     21  C   UNL     1      -5.112  15.506  22.470  0.00  0.00    +0.000 A 
ENDROOT
BRANCH   1  25
ATOM     22  C   UNL     1      -0.262  10.179  18.888  0.00  0.00    +0.000 C 
ATOM     23  C   UNL     1      -1.258  11.097  18.187  0.00  0.00    +0.000 C 
ATOM     24  C   UNL     1      -1.235  12.541  18.746  0.00  0.00    +0.000 C 
ATOM     25  N   UNL     1      -1.570  12.552  20.185  0.00  0.00    +0.000 NA
ATOM     26  C   UNL     1      -0.507  11.770  20.883  0.00  0.00    +0.000 C 
ATOM     27  C   UNL     1      -0.431  10.309  20.403  0.00  0.00    +0.000 C 
BRANCH  22  29
ATOM     28  O   UNL     1       1.871  11.349  18.885  0.00  0.00    +0.000 OA
ATOM     29  C   UNL     1       1.159  10.462  18.433  0.00  0.00    +0.000 C 
BRANCH  29  30
ATOM     30  O   UNL     1       1.584   9.630  17.450  0.00  0.00    +0.000 OA
ATOM     31  H   UNL     1       0.857   9.240  16.927  0.00  0.00    +0.000 HD
ENDBRANCH  29  30
ENDBRANCH  22  29
ENDBRANCH   1  25
TORSDOF 3
ENDMDL
MODEL 8
REMARK VINA RESULT:      -6.0      3.451      4.931
REMARK  Name = 
REMARK  3 active torsions:
REMARK  status: ('A' for Active; 'I' for Inactive)
REMARK    1  A    between atoms: C_2  and  O_3
REMARK    2  A    between atoms: C_2  and  C_4
REMARK    3  A    between atoms: N_7  and  C_8
REMARK                            x       y       z     vdW  Elec       q    Type
REMARK                         _______ _______ _______ _____ _____    ______ ____
ROOT
ATOM      1  C   UNL     1      -2.810  14.924  21.682  0.00  0.00    +0.000 C 
ATOM      2  C   UNL     1      -3.761  13.789  22.115  0.00  0.00    +0.000 C 
ATOM      3  C   UNL     1      -3.829  12.813  20.966  0.00  0.00    +0.000 C 
ATOM      4  C   UNL     1      -2.407  12.766  20.331  0.00  0.00    +0.000 C 
ATOM      5  C   UNL     1      -2.238  14.347  20.290  0.00  0.00    +0.000 C 
ATOM      6  C   UNL     1      -1.319  12.236  21.324  0.00  0.00    +0.000 C 
ATOM      7  O   UNL     1      -1.535  11.479  22.263  0.00  0.00    +0.000 OA
ATOM      8  C   UNL     1       0.072  12.701  21.040  0.00  0.00    +0.000 A 
ATOM      9  C   UNL     1       0.601  13.761  21.756  0.00  0.00    +0.000 A 
ATOM     10  C   UNL     1       1.504  14.616  21.122  0.00  0.00    +0.000 A 
ATOM     11  F   UNL     1       1.885  15.750  21.722  0.00  0.00    +0.000 F 
ATOM     12  C   UNL     1       1.941  14.378  19.825  0.00  0.00    +0.000 A 
ATOM     13  C   UNL     1       1.557  13.206  19.194  0.00  0.00    +0.000 A 
ATOM     14  C   UNL     1       0.630  12.366  19.814  0.00  0.00    +0.000 A 
ATOM     15  S   UNL     1       0.273  10.810  19.116  0.00  0.00    +0.000 S 
ATOM     16  C   UNL     1      -1.395  11.025  18.536  0.00  0.00    +0.000 A 
ATOM     17  C   UNL     1      -1.595  10.099  17.480  0.00  0.00    +0.000 A 
ATOM     18  C   UNL     1      -2.828   9.889  16.910  0.00  0.00    +0.000 A 
ATOM     19  C   UNL     1      -3.886  10.656  17.360  0.00  0.00    +0.000 A 
ATOM     20  C   UNL     1      -3.693  11.630  18.367  0.00  0.00    +0.000 A 
ATOM     21  C   UNL     1      -2.453  11.847  19.030  0.00  0.00    +0.000 A 
ENDROOT
BRANCH   1  25
ATOM     22  C   UNL     1      -0.842  16.618  25.297  0.00  0.00    +0.000 C 
ATOM     23  C   UNL     1      -0.368  16.939  23.884  0.00  0.00    +0.000 C 
ATOM     24  C   UNL     1      -1.463  16.697  22.817  0.00  0.00    +0.000 C 
ATOM     25  N   UNL     1      -1.897  15.285  22.821  0.00  0.00    +0.000 NA
ATOM     26  C   UNL     1      -2.493  15.018  24.164  0.00  0.00    +0.000 C 
ATOM     27  C   UNL     1      -1.491  15.232  25.313  0.00  0.00    +0.000 C 
BRANCH  22  29
ATOM     28  O   UNL     1      -2.968  17.762  25.600  0.00  0.00    +0.000 OA
ATOM     29  C   UNL     1      -1.766  17.702  25.825  0.00  0.00    +0.000 C 
BRANCH  29  30
ATOM     30  O   UNL     1      -1.131  18.628  26.585  0.00  0.00    +0.000 OA
ATOM     31  H   UNL     1      -1.722  19.329  26.922  0.00  0.00    +0.000 HD
ENDBRANCH  29  30
ENDBRANCH  22  29
ENDBRANCH   1  25
TORSDOF 3
ENDMDL
MODEL 9
REMARK VINA RESULT:      -5.9      9.024     11.844
REMARK  Name = 
REMARK  3 active torsions:
REMARK  status: ('A' for Active; 'I' for Inactive)
REMARK    1  A    between atoms: C_2  and  O_3
REMARK    2  A    between atoms: C_2  and  C_4
REMARK    3  A    between atoms: N_7  and  C_8
REMARK                            x       y       z     vdW  Elec       q    Type
REMARK                         _______ _______ _______ _____ _____    ______ ____
ROOT
ATOM      1  C   UNL     1       7.519  14.928  18.967  0.00  0.00    +0.000 C 
ATOM      2  C   UNL     1       7.701  16.460  18.985  0.00  0.00    +0.000 C 
ATOM      3  C   UNL     1       6.652  17.013  19.919  0.00  0.00    +0.000 C 
ATOM      4  C   UNL     1       6.502  15.991  21.084  0.00  0.00    +0.000 C 
ATOM      5  C   UNL     1       6.417  14.724  20.126  0.00  0.00    +0.000 C 
ATOM      6  C   UNL     1       7.818  15.822  21.915  0.00  0.00    +0.000 C 
ATOM      7  O   UNL     1       8.687  16.678  22.034  0.00  0.00    +0.000 OA
ATOM      8  C   UNL     1       7.958  14.509  22.612  0.00  0.00    +0.000 A 
ATOM      9  C   UNL     1       8.736  13.512  22.050  0.00  0.00    +0.000 A 
ATOM     10  C   UNL     1       8.366  12.180  22.246  0.00  0.00    +0.000 A 
ATOM     11  F   UNL     1       8.983  11.208  21.563  0.00  0.00    +0.000 F 
ATOM     12  C   UNL     1       7.291  11.837  23.055  0.00  0.00    +0.000 A 
ATOM     13  C   UNL     1       6.646  12.834  23.769  0.00  0.00    +0.000 A 
ATOM     14  C   UNL     1       6.993  14.168  23.551  0.00  0.00    +0.000 A 
ATOM     15  S   UNL     1       6.318  15.413  24.565  0.00  0.00    +0.000 S 
ATOM     16  C   UNL     1       5.230  16.267  23.446  0.00  0.00    +0.000 A 
ATOM     17  C   UNL     1       4.225  16.890  24.232  0.00  0.00    +0.000 A 
ATOM     18  C   UNL     1       3.310  17.764  23.696  0.00  0.00    +0.000 A 
ATOM     19  C   UNL     1       3.355  17.991  22.333  0.00  0.00    +0.000 A 
ATOM     20  C   UNL     1       4.309  17.331  21.524  0.00  0.00    +0.000 A 
ATOM     21  C   UNL     1       5.313  16.462  22.034  0.00  0.00    +0.000 A 
ENDROOT
BRANCH   1  25
ATOM     22  C   UNL     1      11.667  13.453  18.316  0.00  0.00    +0.000 C 
ATOM     23  C   UNL     1      10.444  12.567  18.106  0.00  0.00    +0.000 C 
ATOM     24  C   UNL     1       9.149  13.383  17.872  0.00  0.00    +0.000 C 
ATOM     25  N   UNL     1       8.862  14.256  19.029  0.00  0.00    +0.000 NA
ATOM     26  C   UNL     1      10.000  15.216  19.140  0.00  0.00    +0.000 C 
ATOM     27  C   UNL     1      11.351  14.515  19.371  0.00  0.00    +0.000 C 
BRANCH  22  29
ATOM     28  O   UNL     1      12.333  15.249  16.816  0.00  0.00    +0.000 OA
ATOM     29  C   UNL     1      12.140  14.055  17.004  0.00  0.00    +0.000 C 
BRANCH  29  30
ATOM     30  O   UNL     1      12.332  13.134  16.028  0.00  0.00    +0.000 OA
ATOM     31  H   UNL     1      13.223  13.167  15.630  0.00  0.00    +0.000 HD
ENDBRANCH  29  30
ENDBRANCH  22  29
ENDBRANCH   1  25
TORSDOF 3
ENDMDL
