MODEL 1
REMARK VINA RESULT:      -8.0      0.000      0.000
REMARK  Name = 
REMARK  4 active torsions:
REMARK  status: ('A' for Active; 'I' for Inactive)
REMARK    1  A    between atoms: C_1  and  C_2
REMARK    2  A    between atoms: C_9  and  C_10
REMARK    3  A    between atoms: C_10  and  C_12
REMARK    4  A    between atoms: C_17  and  N_18
REMARK                            x       y       z     vdW  Elec       q    Type
REMARK                         _______ _______ _______ _____ _____    ______ ____
ROOT
ATOM      1  C   UNL     1       3.361   1.395  18.300  0.00  0.00    +0.000 C 
ATOM      2  C   UNL     1       3.170   2.100  19.644  0.00  0.00    +0.000 C 
ATOM      3  C   UNL     1       3.999   3.413  19.706  0.00  0.00    +0.000 C 
ATOM      4  N   UNL     1       3.341   4.482  18.950  0.00  0.00    +0.000 N 
ATOM      5  C   UNL     1       4.042   5.248  18.047  0.00  0.00    +0.000 A 
ATOM      6  C   UNL     1       3.649   6.550  17.740  0.00  0.00    +0.000 A 
ATOM      7  C   UNL     1       4.318   7.291  16.767  0.00  0.00    +0.000 A 
ATOM      8  C   UNL     1       5.386   6.714  16.102  0.00  0.00    +0.000 A 
ATOM      9  C   UNL     1       5.738   5.422  16.454  0.00  0.00    +0.000 A 
ATOM     10  N   UNL     1       5.099   4.698  17.415  0.00  0.00    +0.000 NA
ATOM     11  C   UNL     1       1.950   4.725  19.320  0.00  0.00    +0.000 C 
ATOM     12  C   UNL     1       1.145   3.410  19.226  0.00  0.00    +0.000 C 
ATOM     13  N   UNL     1       1.732   2.278  19.965  0.00  0.00    +0.000 NA
ATOM     14  H   UNL     1       1.223   1.428  19.724  0.00  0.00    +0.000 HD
ENDROOT
BRANCH   9  15
ATOM     15  C   UNL     1       6.840   4.752  15.711  0.00  0.00    +0.000 C 
ATOM     16  O   UNL     1       7.918   4.533  16.260  0.00  0.00    +0.000 OA
BRANCH  15  17
ATOM     17  C   UNL     1       6.665   4.401  14.277  0.00  0.00    +0.000 A 
ATOM     18  C   UNL     1       5.623   3.561  13.867  0.00  0.00    +0.000 A 
ATOM     19  C   UNL     1       5.485   3.240  12.524  0.00  0.00    +0.000 A 
ATOM     20  C   UNL     1       6.381   3.800  11.632  0.00  0.00    +0.000 A 
ATOM     21  N   UNL     1       7.365   4.656  11.988  0.00  0.00    +0.000 NA
ATOM     22  C   UNL     1       7.496   4.953  13.298  0.00  0.00    +0.000 A 
BRANCH  22  23
ATOM     23  N   UNL     1       8.579   5.776  13.605  0.00  0.00    +0.000 N 
ATOM     24  H   UNL     1       8.680   5.813  14.613  0.00  0.00    +0.000 HD
ATOM     25  H   UNL     1       9.419   5.476  13.111  0.00  0.00    +0.000 HD
ENDBRANCH  22  23
ENDBRANCH  15  17
ENDBRANCH   9  15
TORSDOF 3
ENDMDL
MODEL 2
REMARK VINA RESULT:      -7.5      3.065      7.025
REMARK  Name = 
REMARK  4 active torsions:
REMARK  status: ('A' for Active; 'I' for Inactive)
REMARK    1  A    between atoms: C_1  and  C_2
REMARK    2  A    between atoms: C_9  and  C_10
REMARK    3  A    between atoms: C_10  and  C_12
REMARK    4  A    between atoms: C_17  and  N_18
REMARK                            x       y       z     vdW  Elec       q    Type
REMARK                         _______ _______ _______ _____ _____    ______ ____
ROOT
ATOM      1  C   UNL     1       6.543   7.163  16.862  0.00  0.00    +0.000 C 
ATOM      2  C   UNL     1       7.271   5.818  16.874  0.00  0.00    +0.000 C 
ATOM      3  C   UNL     1       6.497   4.774  17.727  0.00  0.00    +0.000 C 
ATOM      4  N   UNL     1       5.346   4.248  16.990  0.00  0.00    +0.000 N 
ATOM      5  C   UNL     1       4.101   4.178  17.571  0.00  0.00    +0.000 A 
ATOM      6  C   UNL     1       3.159   3.235  17.162  0.00  0.00    +0.000 A 
ATOM      7  C   UNL     1       1.874   3.223  17.702  0.00  0.00    +0.000 A 
ATOM      8  C   UNL     1       1.539   4.168  18.656  0.00  0.00    +0.000 A 
ATOM      9  C   UNL     1       2.516   5.076  19.030  0.00  0.00    +0.000 A 
ATOM     10  N   UNL     1       3.778   5.082  18.519  0.00  0.00    +0.000 NA
ATOM     11  C   UNL     1       5.660   3.711  15.669  0.00  0.00    +0.000 C 
ATOM     12  C   UNL     1       6.407   4.775  14.835  0.00  0.00    +0.000 C 
ATOM     13  N   UNL     1       7.587   5.358  15.499  0.00  0.00    +0.000 NA
ATOM     14  H   UNL     1       7.920   6.147  14.946  0.00  0.00    +0.000 HD
ENDROOT
BRANCH   9  15
ATOM     15  C   UNL     1       2.166   6.144  20.005  0.00  0.00    +0.000 C 
ATOM     16  O   UNL     1       2.036   5.880  21.198  0.00  0.00    +0.000 OA
BRANCH  15  17
ATOM     17  C   UNL     1       1.907   7.529  19.530  0.00  0.00    +0.000 A 
ATOM     18  C   UNL     1       2.026   7.855  18.174  0.00  0.00    +0.000 A 
ATOM     19  C   UNL     1       1.788   9.157  17.755  0.00  0.00    +0.000 A 
ATOM     20  C   UNL     1       1.408  10.082  18.710  0.00  0.00    +0.000 A 
ATOM     21  N   UNL     1       1.234   9.788  20.018  0.00  0.00    +0.000 NA
ATOM     22  C   UNL     1       1.477   8.521  20.415  0.00  0.00    +0.000 A 
BRANCH  22  23
ATOM     23  N   UNL     1       1.356   8.306  21.788  0.00  0.00    +0.000 N 
ATOM     24  H   UNL     1       1.931   8.985  22.272  0.00  0.00    +0.000 HD
ATOM     25  H   UNL     1       0.377   8.307  22.073  0.00  0.00    +0.000 HD
ENDBRANCH  22  23
ENDBRANCH  15  17
ENDBRANCH   9  15
TORSDOF 3
ENDMDL
MODEL 3
REMARK VINA RESULT:      -7.1      1.507      2.008
REMARK  Name = 
REMARK  4 active torsions:
REMARK  status: ('A' for Active; 'I' for Inactive)
REMARK    1  A    between atoms: C_1  and  C_2
REMARK    2  A    between atoms: C_9  and  C_10
REMARK    3  A    between atoms: C_10  and  C_12
REMARK    4  A    between atoms: C_17  and  N_18
REMARK                            x       y       z     vdW  Elec       q    Type
REMARK                         _______ _______ _______ _____ _____    ______ ____
ROOT
ATOM      1  C   UNL     1       1.297   3.789  17.805  0.00  0.00    +0.000 C 
ATOM      2  C   UNL     1       1.835   2.519  18.466  0.00  0.00    +0.000 C 
ATOM      3  C   UNL     1       3.343   2.321  18.146  0.00  0.00    +0.000 C 
ATOM      4  N   UNL     1       4.171   3.207  18.966  0.00  0.00    +0.000 N 
ATOM      5  C   UNL     1       5.168   3.971  18.404  0.00  0.00    +0.000 A 
ATOM      6  C   UNL     1       6.282   4.370  19.141  0.00  0.00    +0.000 A 
ATOM      7  C   UNL     1       7.247   5.208  18.585  0.00  0.00    +0.000 A 
ATOM      8  C   UNL     1       7.085   5.646  17.282  0.00  0.00    +0.000 A 
ATOM      9  C   UNL     1       5.964   5.211  16.595  0.00  0.00    +0.000 A 
ATOM     10  N   UNL     1       5.026   4.379  17.126  0.00  0.00    +0.000 NA
ATOM     11  C   UNL     1       3.927   3.115  20.403  0.00  0.00    +0.000 C 
ATOM     12  C   UNL     1       2.427   3.340  20.695  0.00  0.00    +0.000 C 
ATOM     13  N   UNL     1       1.516   2.483  19.915  0.00  0.00    +0.000 NA
ATOM     14  H   UNL     1       0.558   2.802  20.060  0.00  0.00    +0.000 HD
ENDROOT
BRANCH   9  15
ATOM     15  C   UNL     1       5.730   5.716  15.214  0.00  0.00    +0.000 C 
ATOM     16  O   UNL     1       5.254   6.835  15.032  0.00  0.00    +0.000 OA
BRANCH  15  17
ATOM     17  C   UNL     1       6.010   4.842  14.045  0.00  0.00    +0.000 A 
ATOM     18  C   UNL     1       5.040   3.954  13.565  0.00  0.00    +0.000 A 
ATOM     19  C   UNL     1       5.328   3.141  12.477  0.00  0.00    +0.000 A 
ATOM     20  C   UNL     1       6.573   3.271  11.887  0.00  0.00    +0.000 A 
ATOM     21  N   UNL     1       7.511   4.155  12.294  0.00  0.00    +0.000 NA
ATOM     22  C   UNL     1       7.224   4.933  13.358  0.00  0.00    +0.000 A 
BRANCH  22  23
ATOM     23  N   UNL     1       8.264   5.764  13.772  0.00  0.00    +0.000 N 
ATOM     24  H   UNL     1       7.868   6.553  14.270  0.00  0.00    +0.000 HD
ATOM     25  H   UNL     1       8.961   5.241  14.303  0.00  0.00    +0.000 HD
ENDBRANCH  22  23
ENDBRANCH  15  17
ENDBRANCH   9  15
TORSDOF 3
ENDMDL
MODEL 4
REMARK VINA RESULT:      -6.9      3.749      6.709
REMARK  Name = 
REMARK  4 active torsions:
REMARK  status: ('A' for Active; 'I' for Inactive)
REMARK    1  A    between atoms: C_1  and  C_2
REMARK    2  A    between atoms: C_9  and  C_10
REMARK    3  A    between atoms: C_10  and  C_12
REMARK    4  A    between atoms: C_17  and  N_18
REMARK                            x       y       z     vdW  Elec       q    Type
REMARK                         _______ _______ _______ _____ _____    ______ ____
ROOT
ATOM      1  C   UNL     1       0.858   4.104  20.438  0.00  0.00    +0.000 C 
ATOM      2  C   UNL     1       0.980   3.082  19.307  0.00  0.00    +0.000 C 
ATOM      3  C   UNL     1       1.454   3.762  17.992  0.00  0.00    +0.000 C 
ATOM      4  N   UNL     1       2.893   4.026  18.030  0.00  0.00    +0.000 N 
ATOM      5  C   UNL     1       3.399   5.258  17.684  0.00  0.00    +0.000 A 
ATOM      6  C   UNL     1       4.694   5.398  17.185  0.00  0.00    +0.000 A 
ATOM      7  C   UNL     1       5.224   6.658  16.911  0.00  0.00    +0.000 A 
ATOM      8  C   UNL     1       4.446   7.778  17.144  0.00  0.00    +0.000 A 
ATOM      9  C   UNL     1       3.166   7.579  17.633  0.00  0.00    +0.000 A 
ATOM     10  N   UNL     1       2.635   6.351  17.887  0.00  0.00    +0.000 NA
ATOM     11  C   UNL     1       3.720   2.864  18.343  0.00  0.00    +0.000 C 
ATOM     12  C   UNL     1       3.244   2.223  19.665  0.00  0.00    +0.000 C 
ATOM     13  N   UNL     1       1.803   1.916  19.714  0.00  0.00    +0.000 NA
ATOM     14  H   UNL     1       1.556   1.642  20.664  0.00  0.00    +0.000 HD
ENDROOT
BRANCH   9  15
ATOM     15  C   UNL     1       2.329   8.767  17.955  0.00  0.00    +0.000 C 
ATOM     16  O   UNL     1       2.357   9.763  17.235  0.00  0.00    +0.000 OA
BRANCH  15  17
ATOM     17  C   UNL     1       1.500   8.781  19.189  0.00  0.00    +0.000 A 
ATOM     18  C   UNL     1       1.830   7.972  20.283  0.00  0.00    +0.000 A 
ATOM     19  C   UNL     1       1.036   7.995  21.421  0.00  0.00    +0.000 A 
ATOM     20  C   UNL     1      -0.047   8.855  21.434  0.00  0.00    +0.000 A 
ATOM     21  N   UNL     1      -0.363   9.685  20.415  0.00  0.00    +0.000 NA
ATOM     22  C   UNL     1       0.411   9.648  19.310  0.00  0.00    +0.000 A 
BRANCH  22  23
ATOM     23  N   UNL     1      -0.018  10.471  18.269  0.00  0.00    +0.000 N 
ATOM     24  H   UNL     1      -0.731   9.980  17.743  0.00  0.00    +0.000 HD
ATOM     25  H   UNL     1      -0.310  11.383  18.621  0.00  0.00    +0.000 HD
ENDBRANCH  22  23
ENDBRANCH  15  17
ENDBRANCH   9  15
TORSDOF 3
ENDMDL
MODEL 5
REMARK VINA RESULT:      -6.9      1.704      2.324
REMARK  Name = 
REMARK  4 active torsions:
REMARK  status: ('A' for Active; 'I' for Inactive)
REMARK    1  A    between atoms: C_1  and  C_2
REMARK    2  A    between atoms: C_9  and  C_10
REMARK    3  A    between atoms: C_10  and  C_12
REMARK    4  A    between atoms: C_17  and  N_18
REMARK                            x       y       z     vdW  Elec       q    Type
REMARK                         _______ _______ _______ _____ _____    ______ ____
ROOT
ATOM      1  C   UNL     1       3.575   1.845  17.821  0.00  0.00    +0.000 C 
ATOM      2  C   UNL     1       3.092   1.913  19.270  0.00  0.00    +0.000 C 
ATOM      3  C   UNL     1       3.365   3.316  19.881  0.00  0.00    +0.000 C 
ATOM      4  N   UNL     1       2.379   4.292  19.411  0.00  0.00    +0.000 N 
ATOM      5  C   UNL     1       2.769   5.519  18.927  0.00  0.00    +0.000 A 
ATOM      6  C   UNL     1       1.926   6.628  18.992  0.00  0.00    +0.000 A 
ATOM      7  C   UNL     1       2.298   7.847  18.429  0.00  0.00    +0.000 A 
ATOM      8  C   UNL     1       3.525   7.946  17.795  0.00  0.00    +0.000 A 
ATOM      9  C   UNL     1       4.325   6.815  17.768  0.00  0.00    +0.000 A 
ATOM     10  N   UNL     1       3.974   5.626  18.330  0.00  0.00    +0.000 NA
ATOM     11  C   UNL     1       0.987   3.898  19.610  0.00  0.00    +0.000 C 
ATOM     12  C   UNL     1       0.737   2.514  18.973  0.00  0.00    +0.000 C 
ATOM     13  N   UNL     1       1.682   1.465  19.395  0.00  0.00    +0.000 NA
ATOM     14  H   UNL     1       1.537   0.638  18.817  0.00  0.00    +0.000 HD
ENDROOT
BRANCH   9  15
ATOM     15  C   UNL     1       5.621   6.872  17.038  0.00  0.00    +0.000 C 
ATOM     16  O   UNL     1       6.383   7.824  17.193  0.00  0.00    +0.000 OA
BRANCH  15  17
ATOM     17  C   UNL     1       5.974   5.806  16.063  0.00  0.00    +0.000 A 
ATOM     18  C   UNL     1       5.273   5.676  14.859  0.00  0.00    +0.000 A 
ATOM     19  C   UNL     1       5.614   4.667  13.969  0.00  0.00    +0.000 A 
ATOM     20  C   UNL     1       6.671   3.840  14.305  0.00  0.00    +0.000 A 
ATOM     21  N   UNL     1       7.400   3.972  15.436  0.00  0.00    +0.000 NA
ATOM     22  C   UNL     1       7.053   4.950  16.298  0.00  0.00    +0.000 A 
BRANCH  22  23
ATOM     23  N   UNL     1       7.796   4.979  17.478  0.00  0.00    +0.000 N 
ATOM     24  H   UNL     1       8.680   4.511  17.314  0.00  0.00    +0.000 HD
ATOM     25  H   UNL     1       7.886   5.932  17.830  0.00  0.00    +0.000 HD
ENDBRANCH  22  23
ENDBRANCH  15  17
ENDBRANCH   9  15
TORSDOF 3
ENDMDL
MODEL 6
REMARK VINA RESULT:      -6.7      0.998      1.481
REMARK  Name = 
REMARK  4 active torsions:
REMARK  status: ('A' for Active; 'I' for Inactive)
REMARK    1  A    between atoms: C_1  and  C_2
REMARK    2  A    between atoms: C_9  and  C_10
REMARK    3  A    between atoms: C_10  and  C_12
REMARK    4  A    between atoms: C_17  and  N_18
REMARK                            x       y       z     vdW  Elec       q    Type
REMARK                         _______ _______ _______ _____ _____    ______ ____
ROOT
ATOM      1  C   UNL     1       3.458   1.412  18.435  0.00  0.00    +0.000 C 
ATOM      2  C   UNL     1       3.131   2.088  19.768  0.00  0.00    +0.000 C 
ATOM      3  C   UNL     1       3.905   3.428  19.916  0.00  0.00    +0.000 C 
ATOM      4  N   UNL     1       3.275   4.485  19.122  0.00  0.00    +0.000 N 
ATOM      5  C   UNL     1       4.020   5.291  18.292  0.00  0.00    +0.000 A 
ATOM      6  C   UNL     1       3.607   6.583  17.970  0.00  0.00    +0.000 A 
ATOM      7  C   UNL     1       4.328   7.362  17.067  0.00  0.00    +0.000 A 
ATOM      8  C   UNL     1       5.467   6.834  16.486  0.00  0.00    +0.000 A 
ATOM      9  C   UNL     1       5.835   5.548  16.848  0.00  0.00    +0.000 A 
ATOM     10  N   UNL     1       5.145   4.788  17.743  0.00  0.00    +0.000 NA
ATOM     11  C   UNL     1       1.850   4.675  19.379  0.00  0.00    +0.000 C 
ATOM     12  C   UNL     1       1.103   3.335  19.200  0.00  0.00    +0.000 C 
ATOM     13  N   UNL     1       1.666   2.211  19.970  0.00  0.00    +0.000 NA
ATOM     14  H   UNL     1       1.210   1.348  19.676  0.00  0.00    +0.000 HD
ENDROOT
BRANCH   9  15
ATOM     15  C   UNL     1       7.018   4.929  16.191  0.00  0.00    +0.000 C 
ATOM     16  O   UNL     1       8.012   4.632  16.850  0.00  0.00    +0.000 OA
BRANCH  15  17
ATOM     17  C   UNL     1       7.029   4.725  14.718  0.00  0.00    +0.000 A 
ATOM     18  C   UNL     1       7.866   5.489  13.896  0.00  0.00    +0.000 A 
ATOM     19  C   UNL     1       7.852   5.287  12.523  0.00  0.00    +0.000 A 
ATOM     20  C   UNL     1       7.020   4.301  12.024  0.00  0.00    +0.000 A 
ATOM     21  N   UNL     1       6.240   3.512  12.796  0.00  0.00    +0.000 NA
ATOM     22  C   UNL     1       6.254   3.724  14.129  0.00  0.00    +0.000 A 
BRANCH  22  23
ATOM     23  N   UNL     1       5.368   2.929  14.856  0.00  0.00    +0.000 N 
ATOM     24  H   UNL     1       4.729   2.484  14.208  0.00  0.00    +0.000 HD
ATOM     25  H   UNL     1       5.871   2.280  15.461  0.00  0.00    +0.000 HD
ENDBRANCH  22  23
ENDBRANCH  15  17
ENDBRANCH   9  15
TORSDOF 3
ENDMDL
MODEL 7
REMARK VINA RESULT:      -6.6      9.548     12.047
REMARK  Name = 
REMARK  4 active torsions:
REMARK  status: ('A' for Active; 'I' for Inactive)
REMARK    1  A    between atoms: C_1  and  C_2
REMARK    2  A    between atoms: C_9  and  C_10
REMARK    3  A    between atoms: C_10  and  C_12
REMARK    4  A    between atoms: C_17  and  N_18
REMARK                            x       y       z     vdW  Elec       q    Type
REMARK                         _______ _______ _______ _____ _____    ______ ____
ROOT
ATOM      1  C   UNL     1      -5.368  12.630  21.961  0.00  0.00    +0.000 C 
ATOM      2  C   UNL     1      -6.163  13.290  20.833  0.00  0.00    +0.000 C 
ATOM      3  C   UNL     1      -5.332  13.336  19.520  0.00  0.00    +0.000 C 
ATOM      4  N   UNL     1      -5.318  12.026  18.865  0.00  0.00    +0.000 N 
ATOM      5  C   UNL     1      -4.143  11.465  18.422  0.00  0.00    +0.000 A 
ATOM      6  C   UNL     1      -4.123  10.557  17.364  0.00  0.00    +0.000 A 
ATOM      7  C   UNL     1      -2.939   9.935  16.974  0.00  0.00    +0.000 A 
ATOM      8  C   UNL     1      -1.771  10.228  17.657  0.00  0.00    +0.000 A 
ATOM      9  C   UNL     1      -1.848  11.143  18.694  0.00  0.00    +0.000 A 
ATOM     10  N   UNL     1      -2.998  11.767  19.070  0.00  0.00    +0.000 NA
ATOM     11  C   UNL     1      -6.638  11.447  18.628  0.00  0.00    +0.000 C 
ATOM     12  C   UNL     1      -7.432  11.392  19.951  0.00  0.00    +0.000 C 
ATOM     13  N   UNL     1      -7.503  12.672  20.678  0.00  0.00    +0.000 NA
ATOM     14  H   UNL     1      -7.909  12.507  21.599  0.00  0.00    +0.000 HD
ENDROOT
BRANCH   9  15
ATOM     15  C   UNL     1      -0.622  11.430  19.489  0.00  0.00    +0.000 C 
ATOM     16  O   UNL     1       0.244  12.182  19.048  0.00  0.00    +0.000 OA
BRANCH  15  17
ATOM     17  C   UNL     1      -0.408  10.754  20.796  0.00  0.00    +0.000 A 
ATOM     18  C   UNL     1       0.205   9.497  20.861  0.00  0.00    +0.000 A 
ATOM     19  C   UNL     1       0.386   8.883  22.092  0.00  0.00    +0.000 A 
ATOM     20  C   UNL     1      -0.027   9.566  23.221  0.00  0.00    +0.000 A 
ATOM     21  N   UNL     1      -0.574  10.802  23.196  0.00  0.00    +0.000 NA
ATOM     22  C   UNL     1      -0.753  11.386  21.993  0.00  0.00    +0.000 A 
BRANCH  22  23
ATOM     23  N   UNL     1      -1.394  12.625  22.035  0.00  0.00    +0.000 N 
ATOM     24  H   UNL     1      -2.008  12.697  21.232  0.00  0.00    +0.000 HD
ATOM     25  H   UNL     1      -1.859  12.766  22.932  0.00  0.00    +0.000 HD
ENDBRANCH  22  23
ENDBRANCH  15  17
ENDBRANCH   9  15
TORSDOF 3
ENDMDL
MODEL 8
REMARK VINA RESULT:      -6.5      2.976      6.977
REMARK  Name = 
REMARK  4 active torsions:
REMARK  status: ('A' for Active; 'I' for Inactive)
REMARK    1  A    between atoms: C_1  and  C_2
REMARK    2  A    between atoms: C_9  and  C_10
REMARK    3  A    between atoms: C_10  and  C_12
REMARK    4  A    between atoms: C_17  and  N_18
REMARK                            x       y       z     vdW  Elec       q    Type
REMARK                         _______ _______ _______ _____ _____    ______ ____
ROOT
ATOM      1  C   UNL     1       6.710   7.040  17.288  0.00  0.00    +0.000 C 
ATOM      2  C   UNL     1       7.306   5.663  16.993  0.00  0.00    +0.000 C 
ATOM      3  C   UNL     1       6.456   4.538  17.648  0.00  0.00    +0.000 C 
ATOM      4  N   UNL     1       5.243   4.279  16.870  0.00  0.00    +0.000 N 
ATOM      5  C   UNL     1       4.011   4.201  17.478  0.00  0.00    +0.000 A 
ATOM      6  C   UNL     1       2.974   3.450  16.927  0.00  0.00    +0.000 A 
ATOM      7  C   UNL     1       1.708   3.440  17.508  0.00  0.00    +0.000 A 
ATOM      8  C   UNL     1       1.488   4.193  18.649  0.00  0.00    +0.000 A 
ATOM      9  C   UNL     1       2.556   4.914  19.157  0.00  0.00    +0.000 A 
ATOM     10  N   UNL     1       3.800   4.915  18.604  0.00  0.00    +0.000 NA
ATOM     11  C   UNL     1       5.472   4.002  15.454  0.00  0.00    +0.000 C 
ATOM     12  C   UNL     1       6.296   5.146  14.824  0.00  0.00    +0.000 C 
ATOM     13  N   UNL     1       7.542   5.472  15.540  0.00  0.00    +0.000 NA
ATOM     14  H   UNL     1       7.936   6.326  15.146  0.00  0.00    +0.000 HD
ENDROOT
BRANCH   9  15
ATOM     15  C   UNL     1       2.333   5.784  20.344  0.00  0.00    +0.000 C 
ATOM     16  O   UNL     1       2.564   5.364  21.476  0.00  0.00    +0.000 OA
BRANCH  15  17
ATOM     17  C   UNL     1       1.767   7.148  20.171  0.00  0.00    +0.000 A 
ATOM     18  C   UNL     1       0.921   7.700  21.140  0.00  0.00    +0.000 A 
ATOM     19  C   UNL     1       0.398   8.972  20.952  0.00  0.00    +0.000 A 
ATOM     20  C   UNL     1       0.768   9.660  19.810  0.00  0.00    +0.000 A 
ATOM     21  N   UNL     1       1.623   9.175  18.882  0.00  0.00    +0.000 NA
ATOM     22  C   UNL     1       2.118   7.934  19.071  0.00  0.00    +0.000 A 
BRANCH  22  23
ATOM     23  N   UNL     1       2.929   7.466  18.037  0.00  0.00    +0.000 N 
ATOM     24  H   UNL     1       3.873   7.360  18.392  0.00  0.00    +0.000 HD
ATOM     25  H   UNL     1       2.541   6.619  17.622  0.00  0.00    +0.000 HD
ENDBRANCH  22  23
ENDBRANCH  15  17
ENDBRANCH   9  15
TORSDOF 3
ENDMDL
MODEL 9
REMARK VINA RESULT:      -6.5      4.857      7.433
REMARK  Name = 
REMARK  4 active torsions:
REMARK  status: ('A' for Active; 'I' for Inactive)
REMARK    1  A    between atoms: C_1  and  C_2
REMARK    2  A    between atoms: C_9  and  C_10
REMARK    3  A    between atoms: C_10  and  C_12
REMARK    4  A    between atoms: C_17  and  N_18
REMARK                            x       y       z     vdW  Elec       q    Type
REMARK                         _______ _______ _______ _____ _____    ______ ____
ROOT
ATOM      1  C   UNL     1       2.563  12.573  18.205  0.00  0.00    +0.000 C 
ATOM      2  C   UNL     1       1.078  12.837  18.460  0.00  0.00    +0.000 C 
ATOM      3  C   UNL     1       0.302  11.505  18.657  0.00  0.00    +0.000 C 
ATOM      4  N   UNL     1       0.529  10.963  19.999  0.00  0.00    +0.000 N 
ATOM      5  C   UNL     1       0.869   9.642  20.184  0.00  0.00    +0.000 A 
ATOM      6  C   UNL     1       0.563   8.972  21.367  0.00  0.00    +0.000 A 
ATOM      7  C   UNL     1       0.979   7.658  21.576  0.00  0.00    +0.000 A 
ATOM      8  C   UNL     1       1.710   7.021  20.588  0.00  0.00    +0.000 A 
ATOM      9  C   UNL     1       1.978   7.733  19.430  0.00  0.00    +0.000 A 
ATOM     10  N   UNL     1       1.559   9.010  19.212  0.00  0.00    +0.000 NA
ATOM     11  C   UNL     1       0.252  11.894  21.089  0.00  0.00    +0.000 C 
ATOM     12  C   UNL     1       1.053  13.198  20.880  0.00  0.00    +0.000 C 
ATOM     13  N   UNL     1       0.881  13.819  19.555  0.00  0.00    +0.000 NA
ATOM     14  H   UNL     1       1.555  14.577  19.456  0.00  0.00    +0.000 HD
ENDROOT
BRANCH   9  15
ATOM     15  C   UNL     1       2.816   7.097  18.377  0.00  0.00    +0.000 C 
ATOM     16  O   UNL     1       3.399   7.787  17.544  0.00  0.00    +0.000 OA
BRANCH  15  17
ATOM     17  C   UNL     1       2.900   5.615  18.287  0.00  0.00    +0.000 A 
ATOM     18  C   UNL     1       1.815   4.864  17.820  0.00  0.00    +0.000 A 
ATOM     19  C   UNL     1       1.914   3.481  17.753  0.00  0.00    +0.000 A 
ATOM     20  C   UNL     1       3.112   2.901  18.129  0.00  0.00    +0.000 A 
ATOM     21  N   UNL     1       4.194   3.601  18.535  0.00  0.00    +0.000 NA
ATOM     22  C   UNL     1       4.083   4.945  18.605  0.00  0.00    +0.000 A 
BRANCH  22  23
ATOM     23  N   UNL     1       5.209   5.598  19.106  0.00  0.00    +0.000 N 
ATOM     24  H   UNL     1       5.706   4.960  19.717  0.00  0.00    +0.000 HD
ATOM     25  H   UNL     1       5.777   5.981  18.350  0.00  0.00    +0.000 HD
ENDBRANCH  22  23
ENDBRANCH  15  17
ENDBRANCH   9  15
TORSDOF 3
ENDMDL
