MODEL 1
REMARK VINA RESULT:      -6.3      0.000      0.000
REMARK  Name = 
REMARK  4 active torsions:
REMARK  status: ('A' for Active; 'I' for Inactive)
REMARK    1  A    between atoms: N_6  and  C_7
REMARK    2  A    between atoms: C_9  and  C_10
REMARK    3  A    between atoms: C_10  and  O_11
REMARK    4  A    between atoms: C_13  and  O_14
REMARK                            x       y       z     vdW  Elec       q    Type
REMARK                         _______ _______ _______ _____ _____    ______ ____
ROOT
ATOM      1  O   UNL     1       7.792   5.857  15.472  0.00  0.00    +0.000 OA
ATOM      2  C   UNL     1       7.005   5.410  16.300  0.00  0.00    +0.000 A 
ATOM      3  N   UNL     1       7.112   5.737  17.626  0.00  0.00    +0.000 N 
ATOM      4  C   UNL     1       6.402   5.181  18.660  0.00  0.00    +0.000 A 
ATOM      5  O   UNL     1       6.658   5.481  19.822  0.00  0.00    +0.000 OA
ATOM      6  N   UNL     1       5.442   4.252  18.292  0.00  0.00    +0.000 N 
ATOM      7  C   UNL     1       5.195   3.957  16.964  0.00  0.00    +0.000 A 
ATOM      8  C   UNL     1       5.897   4.481  15.953  0.00  0.00    +0.000 A 
ATOM      9  I   UNL     1       5.508   4.014  14.003  0.00  0.00    +0.000 I 
ATOM     10  H   UNL     1       7.860   6.363  17.878  0.00  0.00    +0.000 HD
ENDROOT
BRANCH   6  11
ATOM     11  C   UNL     1       4.669   3.630  19.363  0.00  0.00    +0.000 C 
ATOM     12  O   UNL     1       4.168   2.344  18.940  0.00  0.00    +0.000 OA
ATOM     13  C   UNL     1       2.778   2.238  19.294  0.00  0.00    +0.000 C 
ATOM     14  C   UNL     1       2.475   3.378  20.258  0.00  0.00    +0.000 C 
ATOM     15  C   UNL     1       3.475   4.454  19.886  0.00  0.00    +0.000 C 
BRANCH  15  16
ATOM     16  O   UNL     1       2.896   5.335  18.920  0.00  0.00    +0.000 OA
ATOM     17  H   UNL     1       3.012   4.915  18.041  0.00  0.00    +0.000 HD
ENDBRANCH  15  16
BRANCH  13  18
ATOM     18  C   UNL     1       1.934   2.229  18.008  0.00  0.00    +0.000 C 
BRANCH  18  19
ATOM     19  O   UNL     1       1.023   3.329  17.960  0.00  0.00    +0.000 OA
ATOM     20  H   UNL     1       0.984   3.698  18.863  0.00  0.00    +0.000 HD
ENDBRANCH  18  19
ENDBRANCH  13  18
ENDBRANCH   6  11
TORSDOF 4
ENDMDL
MODEL 2
REMARK VINA RESULT:      -6.2      1.303      1.405
REMARK  Name = 
REMARK  4 active torsions:
REMARK  status: ('A' for Active; 'I' for Inactive)
REMARK    1  A    between atoms: N_6  and  C_7
REMARK    2  A    between atoms: C_9  and  C_10
REMARK    3  A    between atoms: C_10  and  O_11
REMARK    4  A    between atoms: C_13  and  O_14
REMARK                            x       y       z     vdW  Elec       q    Type
REMARK                         _______ _______ _______ _____ _____    ______ ____
ROOT
ATOM      1  O   UNL     1       7.988   5.508  13.801  0.00  0.00    +0.000 OA
ATOM      2  C   UNL     1       7.263   5.303  14.769  0.00  0.00    +0.000 A 
ATOM      3  N   UNL     1       7.514   5.895  15.978  0.00  0.00    +0.000 N 
ATOM      4  C   UNL     1       6.879   5.624  17.164  0.00  0.00    +0.000 A 
ATOM      5  O   UNL     1       7.261   6.145  18.208  0.00  0.00    +0.000 OA
ATOM      6  N   UNL     1       5.843   4.707  17.089  0.00  0.00    +0.000 N 
ATOM      7  C   UNL     1       5.455   4.155  15.882  0.00  0.00    +0.000 A 
ATOM      8  C   UNL     1       6.081   4.402  14.726  0.00  0.00    +0.000 A 
ATOM      9  I   UNL     1       5.483   3.560  12.965  0.00  0.00    +0.000 I 
ATOM     10  H   UNL     1       8.314   6.506  16.024  0.00  0.00    +0.000 HD
ENDROOT
BRANCH   6  11
ATOM     11  C   UNL     1       5.146   4.383  18.330  0.00  0.00    +0.000 C 
ATOM     12  O   UNL     1       4.512   3.091  18.228  0.00  0.00    +0.000 OA
ATOM     13  C   UNL     1       3.164   3.185  18.719  0.00  0.00    +0.000 C 
ATOM     14  C   UNL     1       3.048   4.516  19.451  0.00  0.00    +0.000 C 
ATOM     15  C   UNL     1       4.077   5.401  18.777  0.00  0.00    +0.000 C 
BRANCH  15  16
ATOM     16  O   UNL     1       3.463   6.123  17.707  0.00  0.00    +0.000 OA
ATOM     17  H   UNL     1       3.312   5.483  16.977  0.00  0.00    +0.000 HD
ENDBRANCH  15  16
BRANCH  13  18
ATOM     18  C   UNL     1       2.189   2.999  17.544  0.00  0.00    +0.000 C 
BRANCH  18  19
ATOM     19  O   UNL     1       1.240   4.065  17.465  0.00  0.00    +0.000 OA
ATOM     20  H   UNL     1       0.946   4.245  18.378  0.00  0.00    +0.000 HD
ENDBRANCH  18  19
ENDBRANCH  13  18
ENDBRANCH   6  11
TORSDOF 4
ENDMDL
MODEL 3
REMARK VINA RESULT:      -5.9      1.204      1.221
REMARK  Name = 
REMARK  4 active torsions:
REMARK  status: ('A' for Active; 'I' for Inactive)
REMARK    1  A    between atoms: N_6  and  C_7
REMARK    2  A    between atoms: C_9  and  C_10
REMARK    3  A    between atoms: C_10  and  O_11
REMARK    4  A    between atoms: C_13  and  O_14
REMARK                            x       y       z     vdW  Elec       q    Type
REMARK                         _______ _______ _______ _____ _____    ______ ____
ROOT
ATOM      1  O   UNL     1       7.981   5.619  14.295  0.00  0.00    +0.000 OA
ATOM      2  C   UNL     1       7.253   5.409  15.261  0.00  0.00    +0.000 A 
ATOM      3  N   UNL     1       7.479   6.026  16.463  0.00  0.00    +0.000 N 
ATOM      4  C   UNL     1       6.843   5.755  17.648  0.00  0.00    +0.000 A 
ATOM      5  O   UNL     1       7.202   6.301  18.686  0.00  0.00    +0.000 OA
ATOM      6  N   UNL     1       5.833   4.809  17.579  0.00  0.00    +0.000 N 
ATOM      7  C   UNL     1       5.468   4.229  16.377  0.00  0.00    +0.000 A 
ATOM      8  C   UNL     1       6.097   4.475  15.223  0.00  0.00    +0.000 A 
ATOM      9  I   UNL     1       5.535   3.591  13.470  0.00  0.00    +0.000 I 
ATOM     10  H   UNL     1       8.262   6.659  16.506  0.00  0.00    +0.000 HD
ENDROOT
BRANCH   6  11
ATOM     11  C   UNL     1       5.134   4.485  18.820  0.00  0.00    +0.000 C 
ATOM     12  O   UNL     1       5.252   3.076  19.109  0.00  0.00    +0.000 OA
ATOM     13  C   UNL     1       3.962   2.558  19.473  0.00  0.00    +0.000 C 
ATOM     14  C   UNL     1       3.056   3.756  19.726  0.00  0.00    +0.000 C 
ATOM     15  C   UNL     1       3.637   4.852  18.856  0.00  0.00    +0.000 C 
BRANCH  15  16
ATOM     16  O   UNL     1       2.995   4.844  17.579  0.00  0.00    +0.000 OA
ATOM     17  H   UNL     1       3.620   5.249  16.939  0.00  0.00    +0.000 HD
ENDBRANCH  15  16
BRANCH  13  18
ATOM     18  C   UNL     1       3.481   1.597  18.372  0.00  0.00    +0.000 C 
BRANCH  18  19
ATOM     19  O   UNL     1       2.146   1.890  17.955  0.00  0.00    +0.000 OA
ATOM     20  H   UNL     1       1.876   2.699  18.431  0.00  0.00    +0.000 HD
ENDBRANCH  18  19
ENDBRANCH  13  18
ENDBRANCH   6  11
TORSDOF 4
ENDMDL
MODEL 4
REMARK VINA RESULT:      -5.9      1.659      2.516
REMARK  Name = 
REMARK  4 active torsions:
REMARK  status: ('A' for Active; 'I' for Inactive)
REMARK    1  A    between atoms: N_6  and  C_7
REMARK    2  A    between atoms: C_9  and  C_10
REMARK    3  A    between atoms: C_10  and  O_11
REMARK    4  A    between atoms: C_13  and  O_14
REMARK                            x       y       z     vdW  Elec       q    Type
REMARK                         _______ _______ _______ _____ _____    ______ ____
ROOT
ATOM      1  O   UNL     1       7.857   4.469  17.402  0.00  0.00    +0.000 OA
ATOM      2  C   UNL     1       6.635   4.458  17.504  0.00  0.00    +0.000 A 
ATOM      3  N   UNL     1       6.028   4.519  18.730  0.00  0.00    +0.000 N 
ATOM      4  C   UNL     1       4.689   4.354  18.983  0.00  0.00    +0.000 A 
ATOM      5  O   UNL     1       4.273   4.328  20.138  0.00  0.00    +0.000 OA
ATOM      6  N   UNL     1       3.889   4.176  17.867  0.00  0.00    +0.000 N 
ATOM      7  C   UNL     1       4.415   4.220  16.588  0.00  0.00    +0.000 A 
ATOM      8  C   UNL     1       5.720   4.362  16.336  0.00  0.00    +0.000 A 
ATOM      9  I   UNL     1       6.460   4.413  14.433  0.00  0.00    +0.000 I 
ATOM     10  H   UNL     1       6.634   4.581  19.532  0.00  0.00    +0.000 HD
ENDROOT
BRANCH   6  11
ATOM     11  C   UNL     1       2.458   3.989  18.092  0.00  0.00    +0.000 C 
ATOM     12  O   UNL     1       2.114   4.339  19.449  0.00  0.00    +0.000 OA
ATOM     13  C   UNL     1       1.273   3.314  20.004  0.00  0.00    +0.000 C 
ATOM     14  C   UNL     1       0.815   2.438  18.845  0.00  0.00    +0.000 C 
ATOM     15  C   UNL     1       1.923   2.568  17.819  0.00  0.00    +0.000 C 
BRANCH  15  16
ATOM     16  O   UNL     1       2.882   1.527  18.013  0.00  0.00    +0.000 OA
ATOM     17  H   UNL     1       3.166   1.227  17.122  0.00  0.00    +0.000 HD
ENDBRANCH  15  16
BRANCH  13  18
ATOM     18  C   UNL     1       2.046   2.578  21.111  0.00  0.00    +0.000 C 
BRANCH  18  19
ATOM     19  O   UNL     1       2.293   3.420  22.239  0.00  0.00    +0.000 OA
ATOM     20  H   UNL     1       2.720   2.860  22.917  0.00  0.00    +0.000 HD
ENDBRANCH  18  19
ENDBRANCH  13  18
ENDBRANCH   6  11
TORSDOF 4
ENDMDL
MODEL 5
REMARK VINA RESULT:      -5.8      2.032      2.531
REMARK  Name = 
REMARK  4 active torsions:
REMARK  status: ('A' for Active; 'I' for Inactive)
REMARK    1  A    between atoms: N_6  and  C_7
REMARK    2  A    between atoms: C_9  and  C_10
REMARK    3  A    between atoms: C_10  and  O_11
REMARK    4  A    between atoms: C_13  and  O_14
REMARK                            x       y       z     vdW  Elec       q    Type
REMARK                         _______ _______ _______ _____ _____    ______ ____
ROOT
ATOM      1  O   UNL     1       5.554   7.286  15.650  0.00  0.00    +0.000 OA
ATOM      2  C   UNL     1       4.865   6.627  16.422  0.00  0.00    +0.000 A 
ATOM      3  N   UNL     1       3.974   7.232  17.267  0.00  0.00    +0.000 N 
ATOM      4  C   UNL     1       3.271   6.625  18.277  0.00  0.00    +0.000 A 
ATOM      5  O   UNL     1       2.577   7.291  19.040  0.00  0.00    +0.000 OA
ATOM      6  N   UNL     1       3.448   5.256  18.387  0.00  0.00    +0.000 N 
ATOM      7  C   UNL     1       4.241   4.557  17.495  0.00  0.00    +0.000 A 
ATOM      8  C   UNL     1       4.943   5.145  16.520  0.00  0.00    +0.000 A 
ATOM      9  I   UNL     1       6.110   4.080  15.228  0.00  0.00    +0.000 I 
ATOM     10  H   UNL     1       3.912   8.236  17.215  0.00  0.00    +0.000 HD
ENDROOT
BRANCH   6  11
ATOM     11  C   UNL     1       2.724   4.571  19.455  0.00  0.00    +0.000 C 
ATOM     12  O   UNL     1       3.453   3.403  19.888  0.00  0.00    +0.000 OA
ATOM     13  C   UNL     1       2.549   2.290  19.985  0.00  0.00    +0.000 C 
ATOM     14  C   UNL     1       1.136   2.856  19.913  0.00  0.00    +0.000 C 
ATOM     15  C   UNL     1       1.287   4.132  19.109  0.00  0.00    +0.000 C 
BRANCH  15  16
ATOM     16  O   UNL     1       1.071   3.855  17.724  0.00  0.00    +0.000 OA
ATOM     17  H   UNL     1       0.636   4.645  17.336  0.00  0.00    +0.000 HD
ENDBRANCH  15  16
BRANCH  13  18
ATOM     18  C   UNL     1       2.897   1.266  18.892  0.00  0.00    +0.000 C 
BRANCH  18  19
ATOM     19  O   UNL     1       4.306   1.183  18.667  0.00  0.00    +0.000 OA
ATOM     20  H   UNL     1       4.693   2.007  19.021  0.00  0.00    +0.000 HD
ENDBRANCH  18  19
ENDBRANCH  13  18
ENDBRANCH   6  11
TORSDOF 4
ENDMDL
MODEL 6
REMARK VINA RESULT:      -5.7      2.548      5.411
REMARK  Name = 
REMARK  4 active torsions:
REMARK  status: ('A' for Active; 'I' for Inactive)
REMARK    1  A    between atoms: N_6  and  C_7
REMARK    2  A    between atoms: C_9  and  C_10
REMARK    3  A    between atoms: C_10  and  O_11
REMARK    4  A    between atoms: C_13  and  O_14
REMARK                            x       y       z     vdW  Elec       q    Type
REMARK                         _______ _______ _______ _____ _____    ______ ____
ROOT
ATOM      1  O   UNL     1       0.661   4.124  20.155  0.00  0.00    +0.000 OA
ATOM      2  C   UNL     1       1.727   4.098  19.548  0.00  0.00    +0.000 A 
ATOM      3  N   UNL     1       2.172   2.950  18.950  0.00  0.00    +0.000 N 
ATOM      4  C   UNL     1       3.408   2.753  18.387  0.00  0.00    +0.000 A 
ATOM      5  O   UNL     1       3.733   1.645  17.971  0.00  0.00    +0.000 OA
ATOM      6  N   UNL     1       4.241   3.860  18.376  0.00  0.00    +0.000 N 
ATOM      7  C   UNL     1       3.818   5.086  18.855  0.00  0.00    +0.000 A 
ATOM      8  C   UNL     1       2.622   5.279  19.422  0.00  0.00    +0.000 A 
ATOM      9  I   UNL     1       2.036   7.104  20.127  0.00  0.00    +0.000 I 
ATOM     10  H   UNL     1       1.578   2.140  19.029  0.00  0.00    +0.000 HD
ENDROOT
BRANCH   6  11
ATOM     11  C   UNL     1       5.569   3.691  17.792  0.00  0.00    +0.000 C 
ATOM     12  O   UNL     1       6.560   4.361  18.599  0.00  0.00    +0.000 OA
ATOM     13  C   UNL     1       7.427   5.127  17.745  0.00  0.00    +0.000 C 
ATOM     14  C   UNL     1       7.162   4.670  16.317  0.00  0.00    +0.000 C 
ATOM     15  C   UNL     1       5.726   4.188  16.341  0.00  0.00    +0.000 C 
BRANCH  15  16
ATOM     16  O   UNL     1       4.852   5.262  15.985  0.00  0.00    +0.000 OA
ATOM     17  H   UNL     1       3.953   5.016  16.293  0.00  0.00    +0.000 HD
ENDBRANCH  15  16
BRANCH  13  18
ATOM     18  C   UNL     1       7.191   6.624  18.006  0.00  0.00    +0.000 C 
BRANCH  18  19
ATOM     19  O   UNL     1       7.023   7.357  16.791  0.00  0.00    +0.000 OA
ATOM     20  H   UNL     1       7.470   6.842  16.091  0.00  0.00    +0.000 HD
ENDBRANCH  18  19
ENDBRANCH  13  18
ENDBRANCH   6  11
TORSDOF 4
ENDMDL
MODEL 7
REMARK VINA RESULT:      -5.6      1.950      2.821
REMARK  Name = 
REMARK  4 active torsions:
REMARK  status: ('A' for Active; 'I' for Inactive)
REMARK    1  A    between atoms: N_6  and  C_7
REMARK    2  A    between atoms: C_9  and  C_10
REMARK    3  A    between atoms: C_10  and  O_11
REMARK    4  A    between atoms: C_13  and  O_14
REMARK                            x       y       z     vdW  Elec       q    Type
REMARK                         _______ _______ _______ _____ _____    ______ ____
ROOT
ATOM      1  O   UNL     1       6.173   7.055  16.513  0.00  0.00    +0.000 OA
ATOM      2  C   UNL     1       5.239   6.291  16.736  0.00  0.00    +0.000 A 
ATOM      3  N   UNL     1       4.236   6.635  17.602  0.00  0.00    +0.000 N 
ATOM      4  C   UNL     1       3.234   5.813  18.053  0.00  0.00    +0.000 A 
ATOM      5  O   UNL     1       2.448   6.203  18.912  0.00  0.00    +0.000 OA
ATOM      6  N   UNL     1       3.220   4.538  17.511  0.00  0.00    +0.000 N 
ATOM      7  C   UNL     1       4.130   4.156  16.542  0.00  0.00    +0.000 A 
ATOM      8  C   UNL     1       5.120   4.946  16.113  0.00  0.00    +0.000 A 
ATOM      9  I   UNL     1       6.450   4.342  14.686  0.00  0.00    +0.000 I 
ATOM     10  H   UNL     1       4.304   7.542  18.035  0.00  0.00    +0.000 HD
ENDROOT
BRANCH   6  11
ATOM     11  C   UNL     1       2.174   3.627  17.970  0.00  0.00    +0.000 C 
ATOM     12  O   UNL     1       1.440   4.216  19.064  0.00  0.00    +0.000 OA
ATOM     13  C   UNL     1       1.292   3.244  20.113  0.00  0.00    +0.000 C 
ATOM     14  C   UNL     1       1.677   1.893  19.525  0.00  0.00    +0.000 C 
ATOM     15  C   UNL     1       2.656   2.233  18.420  0.00  0.00    +0.000 C 
BRANCH  15  16
ATOM     16  O   UNL     1       3.990   2.206  18.933  0.00  0.00    +0.000 OA
ATOM     17  H   UNL     1       4.465   1.485  18.465  0.00  0.00    +0.000 HD
ENDBRANCH  15  16
BRANCH  13  18
ATOM     18  C   UNL     1       2.126   3.688  21.327  0.00  0.00    +0.000 C 
BRANCH  18  19
ATOM     19  O   UNL     1       2.814   2.592  21.932  0.00  0.00    +0.000 OA
ATOM     20  H   UNL     1       2.600   2.620  22.884  0.00  0.00    +0.000 HD
ENDBRANCH  18  19
ENDBRANCH  13  18
ENDBRANCH   6  11
TORSDOF 4
ENDMDL
MODEL 8
REMARK VINA RESULT:      -5.5      2.674      5.241
REMARK  Name = 
REMARK  4 active torsions:
REMARK  status: ('A' for Active; 'I' for Inactive)
REMARK    1  A    between atoms: N_6  and  C_7
REMARK    2  A    between atoms: C_9  and  C_10
REMARK    3  A    between atoms: C_10  and  O_11
REMARK    4  A    between atoms: C_13  and  O_14
REMARK                            x       y       z     vdW  Elec       q    Type
REMARK                         _______ _______ _______ _____ _____    ______ ____
ROOT
ATOM      1  O   UNL     1       1.184   6.930  20.788  0.00  0.00    +0.000 OA
ATOM      2  C   UNL     1       1.988   6.315  20.094  0.00  0.00    +0.000 A 
ATOM      3  N   UNL     1       2.369   5.040  20.416  0.00  0.00    +0.000 N 
ATOM      4  C   UNL     1       3.369   4.315  19.818  0.00  0.00    +0.000 A 
ATOM      5  O   UNL     1       3.691   3.217  20.261  0.00  0.00    +0.000 OA
ATOM      6  N   UNL     1       3.992   4.932  18.745  0.00  0.00    +0.000 N 
ATOM      7  C   UNL     1       3.582   6.171  18.288  0.00  0.00    +0.000 A 
ATOM      8  C   UNL     1       2.620   6.890  18.878  0.00  0.00    +0.000 A 
ATOM      9  I   UNL     1       2.049   8.721  18.178  0.00  0.00    +0.000 I 
ATOM     10  H   UNL     1       1.951   4.638  21.239  0.00  0.00    +0.000 HD
ENDROOT
BRANCH   6  11
ATOM     11  C   UNL     1       5.068   4.198  18.085  0.00  0.00    +0.000 C 
ATOM     12  O   UNL     1       6.329   4.466  18.733  0.00  0.00    +0.000 OA
ATOM     13  C   UNL     1       7.324   4.751  17.735  0.00  0.00    +0.000 C 
ATOM     14  C   UNL     1       6.738   4.338  16.391  0.00  0.00    +0.000 C 
ATOM     15  C   UNL     1       5.241   4.483  16.579  0.00  0.00    +0.000 C 
BRANCH  15  16
ATOM     16  O   UNL     1       4.829   5.790  16.173  0.00  0.00    +0.000 OA
ATOM     17  H   UNL     1       5.504   6.421  16.505  0.00  0.00    +0.000 HD
ENDBRANCH  15  16
BRANCH  13  18
ATOM     18  C   UNL     1       7.731   6.230  17.843  0.00  0.00    +0.000 C 
BRANCH  18  19
ATOM     19  O   UNL     1       7.654   6.898  16.582  0.00  0.00    +0.000 OA
ATOM     20  H   UNL     1       8.544   6.842  16.183  0.00  0.00    +0.000 HD
ENDBRANCH  18  19
ENDBRANCH  13  18
ENDBRANCH   6  11
TORSDOF 4
ENDMDL
MODEL 9
REMARK VINA RESULT:      -5.4      2.107      2.398
REMARK  Name = 
REMARK  4 active torsions:
REMARK  status: ('A' for Active; 'I' for Inactive)
REMARK    1  A    between atoms: N_6  and  C_7
REMARK    2  A    between atoms: C_9  and  C_10
REMARK    3  A    between atoms: C_10  and  O_11
REMARK    4  A    between atoms: C_13  and  O_14
REMARK                            x       y       z     vdW  Elec       q    Type
REMARK                         _______ _______ _______ _____ _____    ______ ____
ROOT
ATOM      1  O   UNL     1       6.578   4.609  15.472  0.00  0.00    +0.000 OA
ATOM      2  C   UNL     1       6.004   4.388  16.534  0.00  0.00    +0.000 A 
ATOM      3  N   UNL     1       5.226   3.273  16.698  0.00  0.00    +0.000 N 
ATOM      4  C   UNL     1       4.413   2.999  17.769  0.00  0.00    +0.000 A 
ATOM      5  O   UNL     1       3.681   2.014  17.758  0.00  0.00    +0.000 OA
ATOM      6  N   UNL     1       4.454   3.924  18.799  0.00  0.00    +0.000 N 
ATOM      7  C   UNL     1       5.303   5.014  18.757  0.00  0.00    +0.000 A 
ATOM      8  C   UNL     1       6.084   5.296  17.708  0.00  0.00    +0.000 A 
ATOM      9  I   UNL     1       7.319   6.922  17.680  0.00  0.00    +0.000 I 
ATOM     10  H   UNL     1       5.159   2.649  15.910  0.00  0.00    +0.000 HD
ENDROOT
BRANCH   6  11
ATOM     11  C   UNL     1       3.597   3.675  19.955  0.00  0.00    +0.000 C 
ATOM     12  O   UNL     1       2.845   2.457  19.770  0.00  0.00    +0.000 OA
ATOM     13  C   UNL     1       1.470   2.692  20.117  0.00  0.00    +0.000 C 
ATOM     14  C   UNL     1       1.417   4.027  20.848  0.00  0.00    +0.000 C 
ATOM     15  C   UNL     1       2.599   4.800  20.298  0.00  0.00    +0.000 C 
BRANCH  15  16
ATOM     16  O   UNL     1       2.182   5.583  19.178  0.00  0.00    +0.000 OA
ATOM     17  H   UNL     1       2.857   6.285  19.050  0.00  0.00    +0.000 HD
ENDBRANCH  15  16
BRANCH  13  18
ATOM     18  C   UNL     1       0.612   2.612  18.842  0.00  0.00    +0.000 C 
BRANCH  18  19
ATOM     19  O   UNL     1       1.133   3.434  17.796  0.00  0.00    +0.000 OA
ATOM     20  H   UNL     1       2.029   3.099  17.599  0.00  0.00    +0.000 HD
ENDBRANCH  18  19
ENDBRANCH  13  18
ENDBRANCH   6  11
TORSDOF 4
ENDMDL
