MODEL 1
REMARK VINA RESULT:      -6.1      0.000      0.000
REMARK  Name = 
REMARK  13 active torsions:
REMARK  status: ('A' for Active; 'I' for Inactive)
REMARK    1  A    between atoms: C_1  and  C_2
REMARK    2  A    between atoms: C_2  and  C_3
REMARK    3  A    between atoms: C_3  and  C_4
REMARK    4  A    between atoms: C_4  and  C_5
REMARK    5  A    between atoms: C_5  and  C_6
REMARK    6  A    between atoms: C_6  and  C_7
REMARK    7  A    between atoms: C_7  and  C_8
REMARK    8  A    between atoms: C_8  and  C_9
REMARK    9  A    between atoms: C_11  and  N_12
REMARK   10  A    between atoms: C_13  and  C_14
REMARK   11  A    between atoms: C_14  and  O_16
REMARK   12  A    between atoms: O_16  and  C_17
REMARK   13  A    between atoms: C_18  and  C_19
REMARK                            x       y       z     vdW  Elec       q    Type
REMARK                         _______ _______ _______ _____ _____    ______ ____
ROOT
ATOM      1  C   UNL     1       5.027   4.074  17.299  0.00  0.00    +0.000 A 
ATOM      2  S   UNL     1       5.626   4.064  15.703  0.00  0.00    +0.000 S 
ATOM      3  C   UNL     1       6.785   5.269  16.040  0.00  0.00    +0.000 A 
ATOM      4  C   UNL     1       6.715   5.713  17.355  0.00  0.00    +0.000 A 
ATOM      5  C   UNL     1       5.668   5.017  18.091  0.00  0.00    +0.000 A 
ATOM      6  C   UNL     1       5.276   5.239  19.523  0.00  0.00    +0.000 C 
ENDROOT
BRANCH   3   7
ATOM      7  N   UNL     1       7.651   5.650  15.078  0.00  0.00    +0.000 N 
ATOM      8  H   UNL     1       8.434   6.259  15.288  0.00  0.00    +0.000 HD
ATOM      9  H   UNL     1       7.712   5.143  14.196  0.00  0.00    +0.000 HD
ENDBRANCH   3   7
BRANCH   4  10
ATOM     10  C   UNL     1       7.637   6.741  17.858  0.00  0.00    +0.000 C 
ATOM     11  O   UNL     1       8.325   6.615  18.866  0.00  0.00    +0.000 OA
BRANCH  10  12
ATOM     12  O   UNL     1       7.601   7.878  17.103  0.00  0.00    +0.000 OA
ATOM     13  C   UNL     1       7.977   9.070  17.792  0.00  0.00    +0.000 C 
ENDBRANCH  10  12
ENDBRANCH   4  10
BRANCH   1  14
ATOM     14  C   UNL     1       3.932   3.118  17.694  0.00  0.00    +0.000 C 
BRANCH  14  15
ATOM     15  C   UNL     1       2.626   3.443  16.969  0.00  0.00    +0.000 C 
BRANCH  15  16
ATOM     16  C   UNL     1       1.573   4.021  17.916  0.00  0.00    +0.000 C 
BRANCH  16  17
ATOM     17  C   UNL     1       1.961   5.432  18.357  0.00  0.00    +0.000 C 
BRANCH  17  18
ATOM     18  C   UNL     1       1.555   5.704  19.805  0.00  0.00    +0.000 C 
BRANCH  18  19
ATOM     19  C   UNL     1       1.211   4.401  20.527  0.00  0.00    +0.000 C 
BRANCH  19  21
ATOM     20  C   UNL     1       2.439   2.481  21.590  0.00  0.00    +0.000 C 
ATOM     21  C   UNL     1       2.316   3.993  21.500  0.00  0.00    +0.000 C 
ENDBRANCH  19  21
ENDBRANCH  18  19
ENDBRANCH  17  18
ENDBRANCH  16  17
ENDBRANCH  15  16
ENDBRANCH  14  15
ENDBRANCH   1  14
TORSDOF 10
ENDMDL
MODEL 2
REMARK VINA RESULT:      -6.0      2.004      3.503
REMARK  Name = 
REMARK  13 active torsions:
REMARK  status: ('A' for Active; 'I' for Inactive)
REMARK    1  A    between atoms: C_1  and  C_2
REMARK    2  A    between atoms: C_2  and  C_3
REMARK    3  A    between atoms: C_3  and  C_4
REMARK    4  A    between atoms: C_4  and  C_5
REMARK    5  A    between atoms: C_5  and  C_6
REMARK    6  A    between atoms: C_6  and  C_7
REMARK    7  A    between atoms: C_7  and  C_8
REMARK    8  A    between atoms: C_8  and  C_9
REMARK    9  A    between atoms: C_11  and  N_12
REMARK   10  A    between atoms: C_13  and  C_14
REMARK   11  A    between atoms: C_14  and  O_16
REMARK   12  A    between atoms: O_16  and  C_17
REMARK   13  A    between atoms: C_18  and  C_19
REMARK                            x       y       z     vdW  Elec       q    Type
REMARK                         _______ _______ _______ _____ _____    ______ ____
ROOT
ATOM      1  C   UNL     1       3.619   5.951  19.248  0.00  0.00    +0.000 A 
ATOM      2  S   UNL     1       4.664   4.693  19.730  0.00  0.00    +0.000 S 
ATOM      3  C   UNL     1       5.753   4.994  18.452  0.00  0.00    +0.000 A 
ATOM      4  C   UNL     1       5.326   6.029  17.629  0.00  0.00    +0.000 A 
ATOM      5  C   UNL     1       4.060   6.583  18.093  0.00  0.00    +0.000 A 
ATOM      6  C   UNL     1       3.276   7.692  17.454  0.00  0.00    +0.000 C 
ENDROOT
BRANCH   3   7
ATOM      7  N   UNL     1       6.891   4.274  18.362  0.00  0.00    +0.000 N 
ATOM      8  H   UNL     1       7.615   4.520  17.696  0.00  0.00    +0.000 HD
ATOM      9  H   UNL     1       7.177   3.648  19.114  0.00  0.00    +0.000 HD
ENDBRANCH   3   7
BRANCH   4  10
ATOM     10  C   UNL     1       6.127   6.460  16.475  0.00  0.00    +0.000 C 
ATOM     11  O   UNL     1       7.230   6.990  16.561  0.00  0.00    +0.000 OA
BRANCH  10  12
ATOM     12  O   UNL     1       5.478   6.250  15.292  0.00  0.00    +0.000 OA
ATOM     13  C   UNL     1       5.589   4.925  14.772  0.00  0.00    +0.000 C 
ENDBRANCH  10  12
ENDBRANCH   4  10
BRANCH   1  14
ATOM     14  C   UNL     1       2.391   6.258  20.063  0.00  0.00    +0.000 C 
BRANCH  14  15
ATOM     15  C   UNL     1       2.018   5.084  20.969  0.00  0.00    +0.000 C 
BRANCH  15  16
ATOM     16  C   UNL     1       0.830   4.293  20.420  0.00  0.00    +0.000 C 
BRANCH  16  17
ATOM     17  C   UNL     1       1.194   2.817  20.253  0.00  0.00    +0.000 C 
BRANCH  17  18
ATOM     18  C   UNL     1       0.971   2.338  18.819  0.00  0.00    +0.000 C 
BRANCH  18  19
ATOM     19  C   UNL     1       1.352   3.427  17.817  0.00  0.00    +0.000 C 
BRANCH  19  21
ATOM     20  C   UNL     1       3.349   1.899  17.764  0.00  0.00    +0.000 C 
ATOM     21  C   UNL     1       2.704   3.138  17.165  0.00  0.00    +0.000 C 
ENDBRANCH  19  21
ENDBRANCH  18  19
ENDBRANCH  17  18
ENDBRANCH  16  17
ENDBRANCH  15  16
ENDBRANCH  14  15
ENDBRANCH   1  14
TORSDOF 10
ENDMDL
MODEL 3
REMARK VINA RESULT:      -5.9      0.871      1.729
REMARK  Name = 
REMARK  13 active torsions:
REMARK  status: ('A' for Active; 'I' for Inactive)
REMARK    1  A    between atoms: C_1  and  C_2
REMARK    2  A    between atoms: C_2  and  C_3
REMARK    3  A    between atoms: C_3  and  C_4
REMARK    4  A    between atoms: C_4  and  C_5
REMARK    5  A    between atoms: C_5  and  C_6
REMARK    6  A    between atoms: C_6  and  C_7
REMARK    7  A    between atoms: C_7  and  C_8
REMARK    8  A    between atoms: C_8  and  C_9
REMARK    9  A    between atoms: C_11  and  N_12
REMARK   10  A    between atoms: C_13  and  C_14
REMARK   11  A    between atoms: C_14  and  O_16
REMARK   12  A    between atoms: O_16  and  C_17
REMARK   13  A    between atoms: C_18  and  C_19
REMARK                            x       y       z     vdW  Elec       q    Type
REMARK                         _______ _______ _______ _____ _____    ______ ____
ROOT
ATOM      1  C   UNL     1       4.717   4.245  16.971  0.00  0.00    +0.000 A 
ATOM      2  S   UNL     1       5.457   4.209  15.436  0.00  0.00    +0.000 S 
ATOM      3  C   UNL     1       6.673   5.309  15.903  0.00  0.00    +0.000 A 
ATOM      4  C   UNL     1       6.519   5.739  17.216  0.00  0.00    +0.000 A 
ATOM      5  C   UNL     1       5.356   5.120  17.839  0.00  0.00    +0.000 A 
ATOM      6  C   UNL     1       4.854   5.353  19.234  0.00  0.00    +0.000 C 
ENDROOT
BRANCH   3   7
ATOM      7  N   UNL     1       7.652   5.633  15.031  0.00  0.00    +0.000 N 
ATOM      8  H   UNL     1       7.555   5.445  14.040  0.00  0.00    +0.000 HD
ATOM      9  H   UNL     1       8.379   6.300  15.284  0.00  0.00    +0.000 HD
ENDBRANCH   3   7
BRANCH   4  10
ATOM     10  C   UNL     1       7.470   6.680  17.822  0.00  0.00    +0.000 C 
ATOM     11  O   UNL     1       8.094   6.459  18.856  0.00  0.00    +0.000 OA
BRANCH  10  12
ATOM     12  O   UNL     1       7.543   7.855  17.131  0.00  0.00    +0.000 OA
ATOM     13  C   UNL     1       8.119   8.943  17.854  0.00  0.00    +0.000 C 
ENDBRANCH  10  12
ENDBRANCH   4  10
BRANCH   1  14
ATOM     14  C   UNL     1       3.516   3.377  17.244  0.00  0.00    +0.000 C 
BRANCH  14  15
ATOM     15  C   UNL     1       3.925   1.921  17.467  0.00  0.00    +0.000 C 
BRANCH  15  16
ATOM     16  C   UNL     1       3.293   1.336  18.731  0.00  0.00    +0.000 C 
BRANCH  16  17
ATOM     17  C   UNL     1       2.392   2.367  19.411  0.00  0.00    +0.000 C 
BRANCH  17  18
ATOM     18  C   UNL     1       2.898   2.726  20.808  0.00  0.00    +0.000 C 
BRANCH  18  19
ATOM     19  C   UNL     1       1.872   3.580  21.553  0.00  0.00    +0.000 C 
BRANCH  19  21
ATOM     20  C   UNL     1       1.742   5.906  20.603  0.00  0.00    +0.000 C 
ATOM     21  C   UNL     1       1.127   4.515  20.602  0.00  0.00    +0.000 C 
ENDBRANCH  19  21
ENDBRANCH  18  19
ENDBRANCH  17  18
ENDBRANCH  16  17
ENDBRANCH  15  16
ENDBRANCH  14  15
ENDBRANCH   1  14
TORSDOF 10
ENDMDL
MODEL 4
REMARK VINA RESULT:      -5.8      1.855      2.806
REMARK  Name = 
REMARK  13 active torsions:
REMARK  status: ('A' for Active; 'I' for Inactive)
REMARK    1  A    between atoms: C_1  and  C_2
REMARK    2  A    between atoms: C_2  and  C_3
REMARK    3  A    between atoms: C_3  and  C_4
REMARK    4  A    between atoms: C_4  and  C_5
REMARK    5  A    between atoms: C_5  and  C_6
REMARK    6  A    between atoms: C_6  and  C_7
REMARK    7  A    between atoms: C_7  and  C_8
REMARK    8  A    between atoms: C_8  and  C_9
REMARK    9  A    between atoms: C_11  and  N_12
REMARK   10  A    between atoms: C_13  and  C_14
REMARK   11  A    between atoms: C_14  and  O_16
REMARK   12  A    between atoms: O_16  and  C_17
REMARK   13  A    between atoms: C_18  and  C_19
REMARK                            x       y       z     vdW  Elec       q    Type
REMARK                         _______ _______ _______ _____ _____    ______ ____
ROOT
ATOM      1  C   UNL     1       4.322   3.478  17.659  0.00  0.00    +0.000 A 
ATOM      2  S   UNL     1       4.970   3.604  19.231  0.00  0.00    +0.000 S 
ATOM      3  C   UNL     1       6.071   4.821  18.771  0.00  0.00    +0.000 A 
ATOM      4  C   UNL     1       5.983   5.128  17.418  0.00  0.00    +0.000 A 
ATOM      5  C   UNL     1       4.960   4.324  16.762  0.00  0.00    +0.000 A 
ATOM      6  C   UNL     1       4.590   4.352  15.308  0.00  0.00    +0.000 C 
ENDROOT
BRANCH   3   7
ATOM      7  N   UNL     1       6.870   5.385  19.702  0.00  0.00    +0.000 N 
ATOM      8  H   UNL     1       7.860   5.172  19.741  0.00  0.00    +0.000 HD
ATOM      9  H   UNL     1       6.578   6.222  20.205  0.00  0.00    +0.000 HD
ENDBRANCH   3   7
BRANCH   4  10
ATOM     10  C   UNL     1       6.835   6.163  16.818  0.00  0.00    +0.000 C 
ATOM     11  O   UNL     1       7.656   5.951  15.931  0.00  0.00    +0.000 OA
BRANCH  10  12
ATOM     12  O   UNL     1       6.648   7.384  17.400  0.00  0.00    +0.000 OA
ATOM     13  C   UNL     1       7.842   8.137  17.616  0.00  0.00    +0.000 C 
ENDBRANCH  10  12
ENDBRANCH   4  10
BRANCH   1  14
ATOM     14  C   UNL     1       3.183   2.529  17.392  0.00  0.00    +0.000 C 
BRANCH  14  15
ATOM     15  C   UNL     1       2.569   2.019  18.696  0.00  0.00    +0.000 C 
BRANCH  15  16
ATOM     16  C   UNL     1       1.270   2.749  19.041  0.00  0.00    +0.000 C 
BRANCH  16  17
ATOM     17  C   UNL     1       1.290   3.229  20.493  0.00  0.00    +0.000 C 
BRANCH  17  18
ATOM     18  C   UNL     1       1.294   4.754  20.584  0.00  0.00    +0.000 C 
BRANCH  18  19
ATOM     19  C   UNL     1       1.686   5.378  19.245  0.00  0.00    +0.000 C 
BRANCH  19  21
ATOM     20  C   UNL     1       2.964   7.227  18.115  0.00  0.00    +0.000 C 
ATOM     21  C   UNL     1       2.681   6.523  19.432  0.00  0.00    +0.000 C 
ENDBRANCH  19  21
ENDBRANCH  18  19
ENDBRANCH  17  18
ENDBRANCH  16  17
ENDBRANCH  15  16
ENDBRANCH  14  15
ENDBRANCH   1  14
TORSDOF 10
ENDMDL
MODEL 5
REMARK VINA RESULT:      -5.8      0.779      1.116
REMARK  Name = 
REMARK  13 active torsions:
REMARK  status: ('A' for Active; 'I' for Inactive)
REMARK    1  A    between atoms: C_1  and  C_2
REMARK    2  A    between atoms: C_2  and  C_3
REMARK    3  A    between atoms: C_3  and  C_4
REMARK    4  A    between atoms: C_4  and  C_5
REMARK    5  A    between atoms: C_5  and  C_6
REMARK    6  A    between atoms: C_6  and  C_7
REMARK    7  A    between atoms: C_7  and  C_8
REMARK    8  A    between atoms: C_8  and  C_9
REMARK    9  A    between atoms: C_11  and  N_12
REMARK   10  A    between atoms: C_13  and  C_14
REMARK   11  A    between atoms: C_14  and  O_16
REMARK   12  A    between atoms: O_16  and  C_17
REMARK   13  A    between atoms: C_18  and  C_19
REMARK                            x       y       z     vdW  Elec       q    Type
REMARK                         _______ _______ _______ _____ _____    ______ ____
ROOT
ATOM      1  C   UNL     1       4.759   4.247  17.149  0.00  0.00    +0.000 A 
ATOM      2  S   UNL     1       5.466   4.171  15.600  0.00  0.00    +0.000 S 
ATOM      3  C   UNL     1       6.683   5.293  16.008  0.00  0.00    +0.000 A 
ATOM      4  C   UNL     1       6.554   5.761  17.311  0.00  0.00    +0.000 A 
ATOM      5  C   UNL     1       5.409   5.153  17.977  0.00  0.00    +0.000 A 
ATOM      6  C   UNL     1       4.934   5.423  19.375  0.00  0.00    +0.000 C 
ENDROOT
BRANCH   3   7
ATOM      7  N   UNL     1       7.641   5.598  15.107  0.00  0.00    +0.000 N 
ATOM      8  H   UNL     1       7.543   5.342  14.131  0.00  0.00    +0.000 HD
ATOM      9  H   UNL     1       8.343   6.308  15.309  0.00  0.00    +0.000 HD
ENDBRANCH   3   7
BRANCH   4  10
ATOM     10  C   UNL     1       7.510   6.726  17.869  0.00  0.00    +0.000 C 
ATOM     11  O   UNL     1       8.146   6.548  18.903  0.00  0.00    +0.000 OA
BRANCH  10  12
ATOM     12  O   UNL     1       7.572   7.873  17.131  0.00  0.00    +0.000 OA
ATOM     13  C   UNL     1       8.130   8.998  17.812  0.00  0.00    +0.000 C 
ENDBRANCH  10  12
ENDBRANCH   4  10
BRANCH   1  14
ATOM     14  C   UNL     1       3.571   3.379  17.474  0.00  0.00    +0.000 C 
BRANCH  14  15
ATOM     15  C   UNL     1       2.259   4.085  17.134  0.00  0.00    +0.000 C 
BRANCH  15  16
ATOM     16  C   UNL     1       1.117   3.645  18.052  0.00  0.00    +0.000 C 
BRANCH  16  17
ATOM     17  C   UNL     1       1.428   3.997  19.507  0.00  0.00    +0.000 C 
BRANCH  17  18
ATOM     18  C   UNL     1       0.769   3.019  20.478  0.00  0.00    +0.000 C 
BRANCH  18  19
ATOM     19  C   UNL     1       1.758   2.575  21.557  0.00  0.00    +0.000 C 
BRANCH  19  21
ATOM     20  C   UNL     1       4.043   1.978  20.692  0.00  0.00    +0.000 C 
ATOM     21  C   UNL     1       3.169   3.082  21.263  0.00  0.00    +0.000 C 
ENDBRANCH  19  21
ENDBRANCH  18  19
ENDBRANCH  17  18
ENDBRANCH  16  17
ENDBRANCH  15  16
ENDBRANCH  14  15
ENDBRANCH   1  14
TORSDOF 10
ENDMDL
MODEL 6
REMARK VINA RESULT:      -5.7      1.917      3.349
REMARK  Name = 
REMARK  13 active torsions:
REMARK  status: ('A' for Active; 'I' for Inactive)
REMARK    1  A    between atoms: C_1  and  C_2
REMARK    2  A    between atoms: C_2  and  C_3
REMARK    3  A    between atoms: C_3  and  C_4
REMARK    4  A    between atoms: C_4  and  C_5
REMARK    5  A    between atoms: C_5  and  C_6
REMARK    6  A    between atoms: C_6  and  C_7
REMARK    7  A    between atoms: C_7  and  C_8
REMARK    8  A    between atoms: C_8  and  C_9
REMARK    9  A    between atoms: C_11  and  N_12
REMARK   10  A    between atoms: C_13  and  C_14
REMARK   11  A    between atoms: C_14  and  O_16
REMARK   12  A    between atoms: O_16  and  C_17
REMARK   13  A    between atoms: C_18  and  C_19
REMARK                            x       y       z     vdW  Elec       q    Type
REMARK                         _______ _______ _______ _____ _____    ______ ____
ROOT
ATOM      1  C   UNL     1       3.787   5.635  19.345  0.00  0.00    +0.000 A 
ATOM      2  S   UNL     1       4.961   4.450  19.697  0.00  0.00    +0.000 S 
ATOM      3  C   UNL     1       5.976   4.957  18.425  0.00  0.00    +0.000 A 
ATOM      4  C   UNL     1       5.429   6.010  17.701  0.00  0.00    +0.000 A 
ATOM      5  C   UNL     1       4.131   6.398  18.237  0.00  0.00    +0.000 A 
ATOM      6  C   UNL     1       3.226   7.474  17.712  0.00  0.00    +0.000 C 
ENDROOT
BRANCH   3   7
ATOM      7  N   UNL     1       7.175   4.362  18.249  0.00  0.00    +0.000 N 
ATOM      8  H   UNL     1       7.289   3.363  18.377  0.00  0.00    +0.000 HD
ATOM      9  H   UNL     1       7.921   4.828  17.734  0.00  0.00    +0.000 HD
ENDBRANCH   3   7
BRANCH   4  10
ATOM     10  C   UNL     1       6.150   6.609  16.570  0.00  0.00    +0.000 C 
ATOM     11  O   UNL     1       5.666   6.775  15.455  0.00  0.00    +0.000 OA
BRANCH  10  12
ATOM     12  O   UNL     1       7.443   6.911  16.886  0.00  0.00    +0.000 OA
ATOM     13  C   UNL     1       7.624   8.167  17.541  0.00  0.00    +0.000 C 
ENDBRANCH  10  12
ENDBRANCH   4  10
BRANCH   1  14
ATOM     14  C   UNL     1       2.560   5.754  20.211  0.00  0.00    +0.000 C 
BRANCH  14  15
ATOM     15  C   UNL     1       2.277   4.447  20.953  0.00  0.00    +0.000 C 
BRANCH  15  16
ATOM     16  C   UNL     1       0.898   3.881  20.609  0.00  0.00    +0.000 C 
BRANCH  16  17
ATOM     17  C   UNL     1       0.940   3.126  19.280  0.00  0.00    +0.000 C 
BRANCH  17  18
ATOM     18  C   UNL     1       1.934   1.966  19.320  0.00  0.00    +0.000 C 
BRANCH  18  19
ATOM     19  C   UNL     1       2.739   1.896  18.023  0.00  0.00    +0.000 C 
BRANCH  19  21
ATOM     20  C   UNL     1       3.720   3.416  16.275  0.00  0.00    +0.000 C 
ATOM     21  C   UNL     1       2.515   3.136  17.159  0.00  0.00    +0.000 C 
ENDBRANCH  19  21
ENDBRANCH  18  19
ENDBRANCH  17  18
ENDBRANCH  16  17
ENDBRANCH  15  16
ENDBRANCH  14  15
ENDBRANCH   1  14
TORSDOF 10
ENDMDL
MODEL 7
REMARK VINA RESULT:      -5.7      1.089      1.781
REMARK  Name = 
REMARK  13 active torsions:
REMARK  status: ('A' for Active; 'I' for Inactive)
REMARK    1  A    between atoms: C_1  and  C_2
REMARK    2  A    between atoms: C_2  and  C_3
REMARK    3  A    between atoms: C_3  and  C_4
REMARK    4  A    between atoms: C_4  and  C_5
REMARK    5  A    between atoms: C_5  and  C_6
REMARK    6  A    between atoms: C_6  and  C_7
REMARK    7  A    between atoms: C_7  and  C_8
REMARK    8  A    between atoms: C_8  and  C_9
REMARK    9  A    between atoms: C_11  and  N_12
REMARK   10  A    between atoms: C_13  and  C_14
REMARK   11  A    between atoms: C_14  and  O_16
REMARK   12  A    between atoms: O_16  and  C_17
REMARK   13  A    between atoms: C_18  and  C_19
REMARK                            x       y       z     vdW  Elec       q    Type
REMARK                         _______ _______ _______ _____ _____    ______ ____
ROOT
ATOM      1  C   UNL     1       4.490   4.398  16.733  0.00  0.00    +0.000 A 
ATOM      2  S   UNL     1       5.393   4.113  15.315  0.00  0.00    +0.000 S 
ATOM      3  C   UNL     1       6.593   5.242  15.751  0.00  0.00    +0.000 A 
ATOM      4  C   UNL     1       6.314   5.869  16.960  0.00  0.00    +0.000 A 
ATOM      5  C   UNL     1       5.065   5.379  17.530  0.00  0.00    +0.000 A 
ATOM      6  C   UNL     1       4.422   5.832  18.808  0.00  0.00    +0.000 C 
ENDROOT
BRANCH   3   7
ATOM      7  N   UNL     1       7.675   5.406  14.960  0.00  0.00    +0.000 N 
ATOM      8  H   UNL     1       7.705   6.137  14.259  0.00  0.00    +0.000 HD
ATOM      9  H   UNL     1       8.574   4.997  15.210  0.00  0.00    +0.000 HD
ENDBRANCH   3   7
BRANCH   4  10
ATOM     10  C   UNL     1       7.230   6.867  17.526  0.00  0.00    +0.000 C 
ATOM     11  O   UNL     1       7.683   7.821  16.900  0.00  0.00    +0.000 OA
BRANCH  10  12
ATOM     12  O   UNL     1       7.564   6.584  18.819  0.00  0.00    +0.000 OA
ATOM     13  C   UNL     1       8.175   5.309  19.017  0.00  0.00    +0.000 C 
ENDBRANCH  10  12
ENDBRANCH   4  10
BRANCH   1  14
ATOM     14  C   UNL     1       3.232   3.610  16.991  0.00  0.00    +0.000 C 
BRANCH  14  15
ATOM     15  C   UNL     1       3.553   2.216  17.532  0.00  0.00    +0.000 C 
BRANCH  15  16
ATOM     16  C   UNL     1       2.700   1.866  18.752  0.00  0.00    +0.000 C 
BRANCH  16  17
ATOM     17  C   UNL     1       1.256   2.323  18.551  0.00  0.00    +0.000 C 
BRANCH  17  18
ATOM     18  C   UNL     1       0.685   2.967  19.814  0.00  0.00    +0.000 C 
BRANCH  18  19
ATOM     19  C   UNL     1       1.294   4.352  20.040  0.00  0.00    +0.000 C 
BRANCH  19  21
ATOM     20  C   UNL     1       2.104   3.057  22.038  0.00  0.00    +0.000 C 
ATOM     21  C   UNL     1       2.164   4.382  21.296  0.00  0.00    +0.000 C 
ENDBRANCH  19  21
ENDBRANCH  18  19
ENDBRANCH  17  18
ENDBRANCH  16  17
ENDBRANCH  15  16
ENDBRANCH  14  15
ENDBRANCH   1  14
TORSDOF 10
ENDMDL
MODEL 8
REMARK VINA RESULT:      -5.7      3.870      6.633
REMARK  Name = 
REMARK  13 active torsions:
REMARK  status: ('A' for Active; 'I' for Inactive)
REMARK    1  A    between atoms: C_1  and  C_2
REMARK    2  A    between atoms: C_2  and  C_3
REMARK    3  A    between atoms: C_3  and  C_4
REMARK    4  A    between atoms: C_4  and  C_5
REMARK    5  A    between atoms: C_5  and  C_6
REMARK    6  A    between atoms: C_6  and  C_7
REMARK    7  A    between atoms: C_7  and  C_8
REMARK    8  A    between atoms: C_8  and  C_9
REMARK    9  A    between atoms: C_11  and  N_12
REMARK   10  A    between atoms: C_13  and  C_14
REMARK   11  A    between atoms: C_14  and  O_16
REMARK   12  A    between atoms: O_16  and  C_17
REMARK   13  A    between atoms: C_18  and  C_19
REMARK                            x       y       z     vdW  Elec       q    Type
REMARK                         _______ _______ _______ _____ _____    ______ ____
ROOT
ATOM      1  C   UNL     1       4.310   5.324  18.179  0.00  0.00    +0.000 A 
ATOM      2  S   UNL     1       5.511   4.352  18.900  0.00  0.00    +0.000 S 
ATOM      3  C   UNL     1       4.399   3.118  19.286  0.00  0.00    +0.000 A 
ATOM      4  C   UNL     1       3.103   3.437  18.900  0.00  0.00    +0.000 A 
ATOM      5  C   UNL     1       3.051   4.745  18.260  0.00  0.00    +0.000 A 
ATOM      6  C   UNL     1       1.829   5.440  17.733  0.00  0.00    +0.000 C 
ENDROOT
BRANCH   3   7
ATOM      7  N   UNL     1       4.838   1.981  19.867  0.00  0.00    +0.000 N 
ATOM      8  H   UNL     1       5.798   1.889  20.180  0.00  0.00    +0.000 HD
ATOM      9  H   UNL     1       4.182   1.301  20.249  0.00  0.00    +0.000 HD
ENDBRANCH   3   7
BRANCH   4  10
ATOM     10  C   UNL     1       1.992   2.502  19.127  0.00  0.00    +0.000 C 
ATOM     11  O   UNL     1       1.241   2.097  18.245  0.00  0.00    +0.000 OA
BRANCH  10  12
ATOM     12  O   UNL     1       1.857   2.174  20.445  0.00  0.00    +0.000 OA
ATOM     13  C   UNL     1       1.410   3.238  21.287  0.00  0.00    +0.000 C 
ENDBRANCH  10  12
ENDBRANCH   4  10
BRANCH   1  14
ATOM     14  C   UNL     1       4.689   6.639  17.549  0.00  0.00    +0.000 C 
BRANCH  14  15
ATOM     15  C   UNL     1       5.244   6.437  16.138  0.00  0.00    +0.000 C 
BRANCH  15  16
ATOM     16  C   UNL     1       6.581   5.695  16.149  0.00  0.00    +0.000 C 
BRANCH  16  17
ATOM     17  C   UNL     1       6.905   5.145  14.760  0.00  0.00    +0.000 C 
BRANCH  17  18
ATOM     18  C   UNL     1       6.229   3.797  14.514  0.00  0.00    +0.000 C 
BRANCH  18  19
ATOM     19  C   UNL     1       5.135   3.925  13.454  0.00  0.00    +0.000 C 
BRANCH  19  21
ATOM     20  C   UNL     1       4.330   3.068  11.231  0.00  0.00    +0.000 C 
ATOM     21  C   UNL     1       5.523   3.210  12.161  0.00  0.00    +0.000 C 
ENDBRANCH  19  21
ENDBRANCH  18  19
ENDBRANCH  17  18
ENDBRANCH  16  17
ENDBRANCH  15  16
ENDBRANCH  14  15
ENDBRANCH   1  14
TORSDOF 10
ENDMDL
MODEL 9
REMARK VINA RESULT:      -5.7      3.752      6.744
REMARK  Name = 
REMARK  13 active torsions:
REMARK  status: ('A' for Active; 'I' for Inactive)
REMARK    1  A    between atoms: C_1  and  C_2
REMARK    2  A    between atoms: C_2  and  C_3
REMARK    3  A    between atoms: C_3  and  C_4
REMARK    4  A    between atoms: C_4  and  C_5
REMARK    5  A    between atoms: C_5  and  C_6
REMARK    6  A    between atoms: C_6  and  C_7
REMARK    7  A    between atoms: C_7  and  C_8
REMARK    8  A    between atoms: C_8  and  C_9
REMARK    9  A    between atoms: C_11  and  N_12
REMARK   10  A    between atoms: C_13  and  C_14
REMARK   11  A    between atoms: C_14  and  O_16
REMARK   12  A    between atoms: O_16  and  C_17
REMARK   13  A    between atoms: C_18  and  C_19
REMARK                            x       y       z     vdW  Elec       q    Type
REMARK                         _______ _______ _______ _____ _____    ______ ____
ROOT
ATOM      1  C   UNL     1       4.332   5.457  18.297  0.00  0.00    +0.000 A 
ATOM      2  S   UNL     1       5.558   4.493  18.986  0.00  0.00    +0.000 S 
ATOM      3  C   UNL     1       4.480   3.218  19.329  0.00  0.00    +0.000 A 
ATOM      4  C   UNL     1       3.175   3.515  18.952  0.00  0.00    +0.000 A 
ATOM      5  C   UNL     1       3.089   4.842  18.357  0.00  0.00    +0.000 A 
ATOM      6  C   UNL     1       1.849   5.523  17.852  0.00  0.00    +0.000 C 
ENDROOT
BRANCH   3   7
ATOM      7  N   UNL     1       4.948   2.074  19.872  0.00  0.00    +0.000 N 
ATOM      8  H   UNL     1       5.673   2.089  20.581  0.00  0.00    +0.000 HD
ATOM      9  H   UNL     1       4.423   1.204  19.795  0.00  0.00    +0.000 HD
ENDBRANCH   3   7
BRANCH   4  10
ATOM     10  C   UNL     1       2.090   2.544  19.146  0.00  0.00    +0.000 C 
ATOM     11  O   UNL     1       1.316   2.190  18.262  0.00  0.00    +0.000 OA
BRANCH  10  12
ATOM     12  O   UNL     1       2.007   2.118  20.440  0.00  0.00    +0.000 OA
ATOM     13  C   UNL     1       1.282   2.984  21.313  0.00  0.00    +0.000 C 
ENDBRANCH  10  12
ENDBRANCH   4  10
BRANCH   1  14
ATOM     14  C   UNL     1       4.677   6.802  17.712  0.00  0.00    +0.000 C 
BRANCH  14  15
ATOM     15  C   UNL     1       4.806   6.728  16.190  0.00  0.00    +0.000 C 
BRANCH  15  16
ATOM     16  C   UNL     1       5.892   5.742  15.756  0.00  0.00    +0.000 C 
BRANCH  16  17
ATOM     17  C   UNL     1       5.291   4.607  14.927  0.00  0.00    +0.000 C 
BRANCH  17  18
ATOM     18  C   UNL     1       6.372   3.772  14.243  0.00  0.00    +0.000 C 
BRANCH  18  19
ATOM     19  C   UNL     1       6.041   3.559  12.765  0.00  0.00    +0.000 C 
BRANCH  19  21
ATOM     20  C   UNL     1       7.912   5.234  12.611  0.00  0.00    +0.000 C 
ATOM     21  C   UNL     1       7.095   4.195  11.860  0.00  0.00    +0.000 C 
ENDBRANCH  19  21
ENDBRANCH  18  19
ENDBRANCH  17  18
ENDBRANCH  16  17
ENDBRANCH  15  16
ENDBRANCH  14  15
ENDBRANCH   1  14
TORSDOF 10
ENDMDL
