MODEL 1
REMARK VINA RESULT:      -7.9      0.000      0.000
REMARK  Name = 
REMARK  10 active torsions:
REMARK  status: ('A' for Active; 'I' for Inactive)
REMARK    1  A    between atoms: C_1  and  C_2
REMARK    2  A    between atoms: C_2  and  O_3
REMARK    3  A    between atoms: C_2  and  C_4
REMARK    4  A    between atoms: C_4  and  C_5
REMARK    5  A    between atoms: C_4  and  O_6
REMARK    6  A    between atoms: O_6  and  C_7
REMARK    7  A    between atoms: N_10  and  C_11
REMARK    8  A    between atoms: C_14  and  S_15
REMARK    9  A    between atoms: S_15  and  C_18
REMARK   10  A    between atoms: C_25  and  C_26
REMARK                            x       y       z     vdW  Elec       q    Type
REMARK                         _______ _______ _______ _____ _____    ______ ____
ROOT
ATOM      1  C   UNL     1       4.164   4.760  18.028  0.00  0.00    +0.000 A 
ATOM      2  N   UNL     1       3.906   6.057  17.718  0.00  0.00    +0.000 NA
ATOM      3  C   UNL     1       2.724   6.553  18.135  0.00  0.00    +0.000 A 
ATOM      4  N   UNL     1       2.446   7.923  17.979  0.00  0.00    +0.000 N 
ATOM      5  N   UNL     1       1.797   5.808  18.756  0.00  0.00    +0.000 NA
ATOM      6  C   UNL     1       2.112   4.547  19.071  0.00  0.00    +0.000 A 
ATOM      7  C   UNL     1       3.314   3.968  18.762  0.00  0.00    +0.000 A 
ATOM      8  H   UNL     1       3.295   8.385  17.674  0.00  0.00    +0.000 HD
ENDROOT
BRANCH   4   9
ATOM      9  C   UNL     1       1.694   8.695  18.903  0.00  0.00    +0.000 A 
ATOM     10  C   UNL     1       1.663   8.388  20.273  0.00  0.00    +0.000 A 
ATOM     11  C   UNL     1       0.966   9.183  21.191  0.00  0.00    +0.000 A 
ATOM     12  C   UNL     1       0.294  10.323  20.751  0.00  0.00    +0.000 A 
ATOM     13  C   UNL     1       0.319  10.656  19.390  0.00  0.00    +0.000 A 
ATOM     14  C   UNL     1       1.024   9.850  18.477  0.00  0.00    +0.000 A 
BRANCH  12  15
ATOM     15  S   UNL     1      -0.358  11.477  21.951  0.00  0.00    +0.000 S 
ATOM     16  N   UNL     1      -0.526  10.674  23.255  0.00  0.00    +0.000 NA
ATOM     17  O   UNL     1       0.448  12.681  21.860  0.00  0.00    +0.000 OA
ATOM     18  H   UNL     1       0.382  10.363  23.601  0.00  0.00    +0.000 HD
BRANCH  15  19
ATOM     19  C   UNL     1      -2.047  11.983  21.542  0.00  0.00    +0.000 C 
ATOM     20  C   UNL     1      -2.403  13.389  21.943  0.00  0.00    +0.000 C 
ATOM     21  C   UNL     1      -2.259  13.026  20.488  0.00  0.00    +0.000 C 
ENDBRANCH  15  19
ENDBRANCH  12  15
ENDBRANCH   4   9
BRANCH   7  22
ATOM     22  C   UNL     1       3.596   2.603  19.266  0.00  0.00    +0.000 C 
ATOM     23  F   UNL     1       3.851   1.657  18.325  0.00  0.00    +0.000 F 
ATOM     24  F   UNL     1       4.680   2.596  20.096  0.00  0.00    +0.000 F 
ATOM     25  F   UNL     1       2.569   2.113  20.017  0.00  0.00    +0.000 F 
ENDBRANCH   7  22
BRANCH   1  26
ATOM     26  O   UNL     1       5.354   4.178  17.629  0.00  0.00    +0.000 OA
BRANCH  26  27
ATOM     27  C   UNL     1       6.131   4.841  16.615  0.00  0.00    +0.000 C 
ATOM     28  C   UNL     1       6.336   3.928  15.400  0.00  0.00    +0.000 C 
BRANCH  27  30
ATOM     29  C   UNL     1       7.484   6.126  18.406  0.00  0.00    +0.000 C 
ATOM     30  C   UNL     1       7.527   5.174  17.218  0.00  0.00    +0.000 C 
BRANCH  30  31
ATOM     31  O   UNL     1       8.195   3.980  17.645  0.00  0.00    +0.000 OA
ATOM     32  H   UNL     1       7.506   3.305  17.791  0.00  0.00    +0.000 HD
ENDBRANCH  30  31
ENDBRANCH  27  30
ENDBRANCH  26  27
ENDBRANCH   1  26
TORSDOF 8
ENDMDL
MODEL 2
REMARK VINA RESULT:      -7.7      2.711      4.106
REMARK  Name = 
REMARK  10 active torsions:
REMARK  status: ('A' for Active; 'I' for Inactive)
REMARK    1  A    between atoms: C_1  and  C_2
REMARK    2  A    between atoms: C_2  and  O_3
REMARK    3  A    between atoms: C_2  and  C_4
REMARK    4  A    between atoms: C_4  and  C_5
REMARK    5  A    between atoms: C_4  and  O_6
REMARK    6  A    between atoms: O_6  and  C_7
REMARK    7  A    between atoms: N_10  and  C_11
REMARK    8  A    between atoms: C_14  and  S_15
REMARK    9  A    between atoms: S_15  and  C_18
REMARK   10  A    between atoms: C_25  and  C_26
REMARK                            x       y       z     vdW  Elec       q    Type
REMARK                         _______ _______ _______ _____ _____    ______ ____
ROOT
ATOM      1  C   UNL     1       3.345   4.781  19.060  0.00  0.00    +0.000 A 
ATOM      2  N   UNL     1       2.677   5.513  19.989  0.00  0.00    +0.000 NA
ATOM      3  C   UNL     1       2.609   6.843  19.774  0.00  0.00    +0.000 A 
ATOM      4  N   UNL     1       1.815   7.646  20.611  0.00  0.00    +0.000 N 
ATOM      5  N   UNL     1       3.225   7.449  18.748  0.00  0.00    +0.000 NA
ATOM      6  C   UNL     1       3.839   6.682  17.841  0.00  0.00    +0.000 A 
ATOM      7  C   UNL     1       3.902   5.316  17.923  0.00  0.00    +0.000 A 
ATOM      8  H   UNL     1       1.272   7.038  21.212  0.00  0.00    +0.000 HD
ENDROOT
BRANCH   4   9
ATOM      9  C   UNL     1       1.091   8.785  20.172  0.00  0.00    +0.000 A 
ATOM     10  C   UNL     1       1.271   9.328  18.889  0.00  0.00    +0.000 A 
ATOM     11  C   UNL     1       0.515  10.417  18.436  0.00  0.00    +0.000 A 
ATOM     12  C   UNL     1      -0.458  10.976  19.263  0.00  0.00    +0.000 A 
ATOM     13  C   UNL     1      -0.663  10.445  20.544  0.00  0.00    +0.000 A 
ATOM     14  C   UNL     1       0.101   9.350  20.987  0.00  0.00    +0.000 A 
BRANCH  12  15
ATOM     15  S   UNL     1      -1.600  12.177  18.590  0.00  0.00    +0.000 S 
ATOM     16  N   UNL     1      -2.314  12.801  19.805  0.00  0.00    +0.000 NA
ATOM     17  O   UNL     1      -0.862  12.960  17.615  0.00  0.00    +0.000 OA
ATOM     18  H   UNL     1      -1.647  13.313  20.384  0.00  0.00    +0.000 HD
BRANCH  15  19
ATOM     19  C   UNL     1      -2.940  11.382  17.671  0.00  0.00    +0.000 C 
ATOM     20  C   UNL     1      -2.545  10.814  16.335  0.00  0.00    +0.000 C 
ATOM     21  C   UNL     1      -2.906   9.897  17.473  0.00  0.00    +0.000 C 
ENDBRANCH  15  19
ENDBRANCH  12  15
ENDBRANCH   4   9
BRANCH   7  22
ATOM     22  C   UNL     1       4.506   4.564  16.799  0.00  0.00    +0.000 C 
ATOM     23  F   UNL     1       3.725   3.612  16.225  0.00  0.00    +0.000 F 
ATOM     24  F   UNL     1       4.871   5.400  15.782  0.00  0.00    +0.000 F 
ATOM     25  F   UNL     1       5.655   3.929  17.166  0.00  0.00    +0.000 F 
ENDBRANCH   7  22
BRANCH   1  26
ATOM     26  O   UNL     1       3.463   3.412  19.214  0.00  0.00    +0.000 OA
BRANCH  26  27
ATOM     27  C   UNL     1       2.283   2.603  19.052  0.00  0.00    +0.000 C 
ATOM     28  C   UNL     1       1.246   3.319  18.178  0.00  0.00    +0.000 C 
BRANCH  27  30
ATOM     29  C   UNL     1       2.657   2.463  21.608  0.00  0.00    +0.000 C 
ATOM     30  C   UNL     1       1.659   2.373  20.461  0.00  0.00    +0.000 C 
BRANCH  30  31
ATOM     31  O   UNL     1       0.618   3.324  20.717  0.00  0.00    +0.000 OA
ATOM     32  H   UNL     1      -0.219   2.825  20.760  0.00  0.00    +0.000 HD
ENDBRANCH  30  31
ENDBRANCH  27  30
ENDBRANCH  26  27
ENDBRANCH   1  26
TORSDOF 8
ENDMDL
MODEL 3
REMARK VINA RESULT:      -7.7      1.159      1.264
REMARK  Name = 
REMARK  10 active torsions:
REMARK  status: ('A' for Active; 'I' for Inactive)
REMARK    1  A    between atoms: C_1  and  C_2
REMARK    2  A    between atoms: C_2  and  O_3
REMARK    3  A    between atoms: C_2  and  C_4
REMARK    4  A    between atoms: C_4  and  C_5
REMARK    5  A    between atoms: C_4  and  O_6
REMARK    6  A    between atoms: O_6  and  C_7
REMARK    7  A    between atoms: N_10  and  C_11
REMARK    8  A    between atoms: C_14  and  S_15
REMARK    9  A    between atoms: S_15  and  C_18
REMARK   10  A    between atoms: C_25  and  C_26
REMARK                            x       y       z     vdW  Elec       q    Type
REMARK                         _______ _______ _______ _____ _____    ______ ____
ROOT
ATOM      1  C   UNL     1       4.118   4.765  18.033  0.00  0.00    +0.000 A 
ATOM      2  N   UNL     1       3.899   6.069  17.723  0.00  0.00    +0.000 NA
ATOM      3  C   UNL     1       2.699   6.577  18.068  0.00  0.00    +0.000 A 
ATOM      4  N   UNL     1       2.451   7.953  17.911  0.00  0.00    +0.000 N 
ATOM      5  N   UNL     1       1.723   5.839  18.619  0.00  0.00    +0.000 NA
ATOM      6  C   UNL     1       2.000   4.569  18.938  0.00  0.00    +0.000 A 
ATOM      7  C   UNL     1       3.211   3.977  18.701  0.00  0.00    +0.000 A 
ATOM      8  H   UNL     1       3.324   8.406  17.668  0.00  0.00    +0.000 HD
ENDROOT
BRANCH   4   9
ATOM      9  C   UNL     1       1.651   8.725  18.793  0.00  0.00    +0.000 A 
ATOM     10  C   UNL     1       1.764   8.611  20.189  0.00  0.00    +0.000 A 
ATOM     11  C   UNL     1       1.014   9.414  21.057  0.00  0.00    +0.000 A 
ATOM     12  C   UNL     1       0.140  10.368  20.538  0.00  0.00    +0.000 A 
ATOM     13  C   UNL     1       0.018  10.508  19.149  0.00  0.00    +0.000 A 
ATOM     14  C   UNL     1       0.777   9.697  18.286  0.00  0.00    +0.000 A 
BRANCH  12  15
ATOM     15  S   UNL     1      -0.604  11.568  21.635  0.00  0.00    +0.000 S 
ATOM     16  N   UNL     1      -1.986  11.886  21.031  0.00  0.00    +0.000 NA
ATOM     17  O   UNL     1      -0.426  11.070  22.988  0.00  0.00    +0.000 OA
ATOM     18  H   UNL     1      -2.580  11.056  21.046  0.00  0.00    +0.000 HD
BRANCH  15  19
ATOM     19  C   UNL     1       0.261  13.155  21.576  0.00  0.00    +0.000 C 
ATOM     20  C   UNL     1       1.533  13.155  20.771  0.00  0.00    +0.000 C 
ATOM     21  C   UNL     1       0.322  13.903  20.280  0.00  0.00    +0.000 C 
ENDBRANCH  15  19
ENDBRANCH  12  15
ENDBRANCH   4   9
BRANCH   7  22
ATOM     22  C   UNL     1       3.440   2.603  19.205  0.00  0.00    +0.000 C 
ATOM     23  F   UNL     1       3.777   1.670  18.276  0.00  0.00    +0.000 F 
ATOM     24  F   UNL     1       4.444   2.576  20.130  0.00  0.00    +0.000 F 
ATOM     25  F   UNL     1       2.348   2.106  19.851  0.00  0.00    +0.000 F 
ENDBRANCH   7  22
BRANCH   1  26
ATOM     26  O   UNL     1       5.323   4.170  17.706  0.00  0.00    +0.000 OA
BRANCH  26  27
ATOM     27  C   UNL     1       6.229   4.891  16.851  0.00  0.00    +0.000 C 
ATOM     28  C   UNL     1       6.578   4.068  15.606  0.00  0.00    +0.000 C 
BRANCH  27  30
ATOM     29  C   UNL     1       7.320   5.630  19.078  0.00  0.00    +0.000 C 
ATOM     30  C   UNL     1       7.542   5.150  17.649  0.00  0.00    +0.000 C 
BRANCH  30  31
ATOM     31  O   UNL     1       8.342   3.963  17.710  0.00  0.00    +0.000 OA
ATOM     32  H   UNL     1       7.910   3.360  18.344  0.00  0.00    +0.000 HD
ENDBRANCH  30  31
ENDBRANCH  27  30
ENDBRANCH  26  27
ENDBRANCH   1  26
TORSDOF 8
ENDMDL
MODEL 4
REMARK VINA RESULT:      -7.7      2.579      3.887
REMARK  Name = 
REMARK  10 active torsions:
REMARK  status: ('A' for Active; 'I' for Inactive)
REMARK    1  A    between atoms: C_1  and  C_2
REMARK    2  A    between atoms: C_2  and  O_3
REMARK    3  A    between atoms: C_2  and  C_4
REMARK    4  A    between atoms: C_4  and  C_5
REMARK    5  A    between atoms: C_4  and  O_6
REMARK    6  A    between atoms: O_6  and  C_7
REMARK    7  A    between atoms: N_10  and  C_11
REMARK    8  A    between atoms: C_14  and  S_15
REMARK    9  A    between atoms: S_15  and  C_18
REMARK   10  A    between atoms: C_25  and  C_26
REMARK                            x       y       z     vdW  Elec       q    Type
REMARK                         _______ _______ _______ _____ _____    ______ ____
ROOT
ATOM      1  C   UNL     1       3.923   4.937  18.560  0.00  0.00    +0.000 A 
ATOM      2  N   UNL     1       3.215   5.576  19.529  0.00  0.00    +0.000 NA
ATOM      3  C   UNL     1       2.968   6.886  19.330  0.00  0.00    +0.000 A 
ATOM      4  N   UNL     1       2.122   7.579  20.215  0.00  0.00    +0.000 N 
ATOM      5  N   UNL     1       3.449   7.570  18.280  0.00  0.00    +0.000 NA
ATOM      6  C   UNL     1       4.108   6.890  17.336  0.00  0.00    +0.000 A 
ATOM      7  C   UNL     1       4.348   5.543  17.402  0.00  0.00    +0.000 A 
ATOM      8  H   UNL     1       1.692   6.904  20.835  0.00  0.00    +0.000 HD
ENDROOT
BRANCH   4   9
ATOM      9  C   UNL     1       1.237   8.617  19.823  0.00  0.00    +0.000 A 
ATOM     10  C   UNL     1       0.465   9.326  20.758  0.00  0.00    +0.000 A 
ATOM     11  C   UNL     1      -0.365  10.388  20.376  0.00  0.00    +0.000 A 
ATOM     12  C   UNL     1      -0.424  10.774  19.038  0.00  0.00    +0.000 A 
ATOM     13  C   UNL     1       0.345  10.089  18.087  0.00  0.00    +0.000 A 
ATOM     14  C   UNL     1       1.177   9.025  18.483  0.00  0.00    +0.000 A 
BRANCH  12  15
ATOM     15  S   UNL     1      -1.264  12.290  18.597  0.00  0.00    +0.000 S 
ATOM     16  N   UNL     1      -1.692  12.118  17.126  0.00  0.00    +0.000 NA
ATOM     17  O   UNL     1      -2.202  12.579  19.666  0.00  0.00    +0.000 OA
ATOM     18  H   UNL     1      -2.372  11.361  17.040  0.00  0.00    +0.000 HD
BRANCH  15  19
ATOM     19  C   UNL     1      -0.125  13.695  18.547  0.00  0.00    +0.000 C 
ATOM     20  C   UNL     1       0.371  14.157  19.890  0.00  0.00    +0.000 C 
ATOM     21  C   UNL     1       1.309  13.483  18.925  0.00  0.00    +0.000 C 
ENDBRANCH  15  19
ENDBRANCH  12  15
ENDBRANCH   4   9
BRANCH   7  22
ATOM     22  C   UNL     1       4.985   4.877  16.242  0.00  0.00    +0.000 C 
ATOM     23  F   UNL     1       6.203   4.318  16.464  0.00  0.00    +0.000 F 
ATOM     24  F   UNL     1       4.201   3.869  15.758  0.00  0.00    +0.000 F 
ATOM     25  F   UNL     1       5.154   5.730  15.191  0.00  0.00    +0.000 F 
ENDBRANCH   7  22
BRANCH   1  26
ATOM     26  O   UNL     1       4.222   3.594  18.695  0.00  0.00    +0.000 OA
BRANCH  26  27
ATOM     27  C   UNL     1       3.558   2.849  19.732  0.00  0.00    +0.000 C 
ATOM     28  C   UNL     1       4.538   1.904  20.438  0.00  0.00    +0.000 C 
BRANCH  27  30
ATOM     29  C   UNL     1       1.056   2.620  19.115  0.00  0.00    +0.000 C 
ATOM     30  C   UNL     1       2.441   1.989  19.069  0.00  0.00    +0.000 C 
BRANCH  30  31
ATOM     31  O   UNL     1       2.752   1.724  17.695  0.00  0.00    +0.000 OA
ATOM     32  H   UNL     1       3.716   1.588  17.641  0.00  0.00    +0.000 HD
ENDBRANCH  30  31
ENDBRANCH  27  30
ENDBRANCH  26  27
ENDBRANCH   1  26
TORSDOF 8
ENDMDL
MODEL 5
REMARK VINA RESULT:      -7.6      7.040      9.770
REMARK  Name = 
REMARK  10 active torsions:
REMARK  status: ('A' for Active; 'I' for Inactive)
REMARK    1  A    between atoms: C_1  and  C_2
REMARK    2  A    between atoms: C_2  and  O_3
REMARK    3  A    between atoms: C_2  and  C_4
REMARK    4  A    between atoms: C_4  and  C_5
REMARK    5  A    between atoms: C_4  and  O_6
REMARK    6  A    between atoms: O_6  and  C_7
REMARK    7  A    between atoms: N_10  and  C_11
REMARK    8  A    between atoms: C_14  and  S_15
REMARK    9  A    between atoms: S_15  and  C_18
REMARK   10  A    between atoms: C_25  and  C_26
REMARK                            x       y       z     vdW  Elec       q    Type
REMARK                         _______ _______ _______ _____ _____    ______ ____
ROOT
ATOM      1  C   UNL     1       9.239  12.159  18.699  0.00  0.00    +0.000 A 
ATOM      2  N   UNL     1       8.952  11.220  17.761  0.00  0.00    +0.000 NA
ATOM      3  C   UNL     1       8.800   9.954  18.201  0.00  0.00    +0.000 A 
ATOM      4  N   UNL     1       8.362   8.954  17.314  0.00  0.00    +0.000 N 
ATOM      5  N   UNL     1       8.995   9.597  19.479  0.00  0.00    +0.000 NA
ATOM      6  C   UNL     1       9.240  10.563  20.371  0.00  0.00    +0.000 A 
ATOM      7  C   UNL     1       9.339  11.888  20.043  0.00  0.00    +0.000 A 
ATOM      8  H   UNL     1       8.080   9.400  16.449  0.00  0.00    +0.000 HD
ENDROOT
BRANCH   4   9
ATOM      9  C   UNL     1       7.519   7.874  17.684  0.00  0.00    +0.000 A 
ATOM     10  C   UNL     1       6.195   7.775  17.224  0.00  0.00    +0.000 A 
ATOM     11  C   UNL     1       5.383   6.680  17.545  0.00  0.00    +0.000 A 
ATOM     12  C   UNL     1       5.893   5.645  18.327  0.00  0.00    +0.000 A 
ATOM     13  C   UNL     1       7.213   5.716  18.789  0.00  0.00    +0.000 A 
ATOM     14  C   UNL     1       8.021   6.820  18.459  0.00  0.00    +0.000 A 
BRANCH  12  15
ATOM     15  S   UNL     1       4.954   4.133  18.504  0.00  0.00    +0.000 S 
ATOM     16  N   UNL     1       4.921   3.494  17.103  0.00  0.00    +0.000 NA
ATOM     17  O   UNL     1       5.473   3.450  19.675  0.00  0.00    +0.000 OA
ATOM     18  H   UNL     1       5.863   3.230  16.810  0.00  0.00    +0.000 HD
BRANCH  15  19
ATOM     19  C   UNL     1       3.212   4.467  18.860  0.00  0.00    +0.000 C 
ATOM     20  C   UNL     1       2.257   4.099  17.757  0.00  0.00    +0.000 C 
ATOM     21  C   UNL     1       2.272   3.314  19.042  0.00  0.00    +0.000 C 
ENDBRANCH  15  19
ENDBRANCH  12  15
ENDBRANCH   4   9
BRANCH   7  22
ATOM     22  C   UNL     1       9.495  12.880  21.133  0.00  0.00    +0.000 C 
ATOM     23  F   UNL     1      10.594  13.677  21.066  0.00  0.00    +0.000 F 
ATOM     24  F   UNL     1       8.428  13.731  21.185  0.00  0.00    +0.000 F 
ATOM     25  F   UNL     1       9.539  12.289  22.361  0.00  0.00    +0.000 F 
ENDBRANCH   7  22
BRANCH   1  26
ATOM     26  O   UNL     1       9.416  13.478  18.325  0.00  0.00    +0.000 OA
BRANCH  26  27
ATOM     27  C   UNL     1      10.462  13.787  17.386  0.00  0.00    +0.000 C 
ATOM     28  C   UNL     1      11.797  13.183  17.839  0.00  0.00    +0.000 C 
BRANCH  27  30
ATOM     29  C   UNL     1      11.579  15.904  18.367  0.00  0.00    +0.000 C 
ATOM     30  C   UNL     1      10.619  15.335  17.330  0.00  0.00    +0.000 C 
BRANCH  30  31
ATOM     31  O   UNL     1      11.079  15.754  16.039  0.00  0.00    +0.000 OA
ATOM     32  H   UNL     1      10.997  16.725  16.008  0.00  0.00    +0.000 HD
ENDBRANCH  30  31
ENDBRANCH  27  30
ENDBRANCH  26  27
ENDBRANCH   1  26
TORSDOF 8
ENDMDL
MODEL 6
REMARK VINA RESULT:      -7.6      0.419      1.159
REMARK  Name = 
REMARK  10 active torsions:
REMARK  status: ('A' for Active; 'I' for Inactive)
REMARK    1  A    between atoms: C_1  and  C_2
REMARK    2  A    between atoms: C_2  and  O_3
REMARK    3  A    between atoms: C_2  and  C_4
REMARK    4  A    between atoms: C_4  and  C_5
REMARK    5  A    between atoms: C_4  and  O_6
REMARK    6  A    between atoms: O_6  and  C_7
REMARK    7  A    between atoms: N_10  and  C_11
REMARK    8  A    between atoms: C_14  and  S_15
REMARK    9  A    between atoms: S_15  and  C_18
REMARK   10  A    between atoms: C_25  and  C_26
REMARK                            x       y       z     vdW  Elec       q    Type
REMARK                         _______ _______ _______ _____ _____    ______ ____
ROOT
ATOM      1  C   UNL     1       3.985   4.625  17.914  0.00  0.00    +0.000 A 
ATOM      2  N   UNL     1       3.674   5.885  17.513  0.00  0.00    +0.000 NA
ATOM      3  C   UNL     1       2.629   6.474  18.130  0.00  0.00    +0.000 A 
ATOM      4  N   UNL     1       2.337   7.825  17.872  0.00  0.00    +0.000 N 
ATOM      5  N   UNL     1       1.869   5.845  19.039  0.00  0.00    +0.000 NA
ATOM      6  C   UNL     1       2.238   4.619  19.427  0.00  0.00    +0.000 A 
ATOM      7  C   UNL     1       3.326   3.960  18.920  0.00  0.00    +0.000 A 
ATOM      8  H   UNL     1       3.093   8.213  17.322  0.00  0.00    +0.000 HD
ENDROOT
BRANCH   4   9
ATOM      9  C   UNL     1       1.833   8.731  18.842  0.00  0.00    +0.000 A 
ATOM     10  C   UNL     1       1.461  10.043  18.508  0.00  0.00    +0.000 A 
ATOM     11  C   UNL     1       0.911  10.918  19.455  0.00  0.00    +0.000 A 
ATOM     12  C   UNL     1       0.706  10.482  20.763  0.00  0.00    +0.000 A 
ATOM     13  C   UNL     1       1.059   9.173  21.118  0.00  0.00    +0.000 A 
ATOM     14  C   UNL     1       1.609   8.303  20.158  0.00  0.00    +0.000 A 
BRANCH  12  15
ATOM     15  S   UNL     1      -0.240  11.499  21.890  0.00  0.00    +0.000 S 
ATOM     16  N   UNL     1      -0.444  10.642  23.155  0.00  0.00    +0.000 NA
ATOM     17  O   UNL     1       0.393  12.805  21.911  0.00  0.00    +0.000 OA
ATOM     18  H   UNL     1       0.453  10.451  23.603  0.00  0.00    +0.000 HD
BRANCH  15  19
ATOM     19  C   UNL     1      -1.923  11.776  21.287  0.00  0.00    +0.000 C 
ATOM     20  C   UNL     1      -2.497  13.130  21.607  0.00  0.00    +0.000 C 
ATOM     21  C   UNL     1      -2.148  12.768  20.188  0.00  0.00    +0.000 C 
ENDBRANCH  15  19
ENDBRANCH  12  15
ENDBRANCH   4   9
BRANCH   7  22
ATOM     22  C   UNL     1       3.705   2.656  19.511  0.00  0.00    +0.000 C 
ATOM     23  F   UNL     1       4.954   2.576  20.039  0.00  0.00    +0.000 F 
ATOM     24  F   UNL     1       2.857   2.305  20.522  0.00  0.00    +0.000 F 
ATOM     25  F   UNL     1       3.618   1.640  18.606  0.00  0.00    +0.000 F 
ENDBRANCH   7  22
BRANCH   1  26
ATOM     26  O   UNL     1       5.040   3.953  17.324  0.00  0.00    +0.000 OA
BRANCH  26  27
ATOM     27  C   UNL     1       5.853   4.663  16.372  0.00  0.00    +0.000 C 
ATOM     28  C   UNL     1       6.143   3.792  15.144  0.00  0.00    +0.000 C 
BRANCH  27  30
ATOM     29  C   UNL     1       7.320   6.451  17.531  0.00  0.00    +0.000 C 
ATOM     30  C   UNL     1       7.209   5.008  17.057  0.00  0.00    +0.000 C 
BRANCH  30  31
ATOM     31  O   UNL     1       7.435   4.161  18.192  0.00  0.00    +0.000 OA
ATOM     32  H   UNL     1       7.282   4.704  18.987  0.00  0.00    +0.000 HD
ENDBRANCH  30  31
ENDBRANCH  27  30
ENDBRANCH  26  27
ENDBRANCH   1  26
TORSDOF 8
ENDMDL
MODEL 7
REMARK VINA RESULT:      -7.5      0.834      1.249
REMARK  Name = 
REMARK  10 active torsions:
REMARK  status: ('A' for Active; 'I' for Inactive)
REMARK    1  A    between atoms: C_1  and  C_2
REMARK    2  A    between atoms: C_2  and  O_3
REMARK    3  A    between atoms: C_2  and  C_4
REMARK    4  A    between atoms: C_4  and  C_5
REMARK    5  A    between atoms: C_4  and  O_6
REMARK    6  A    between atoms: O_6  and  C_7
REMARK    7  A    between atoms: N_10  and  C_11
REMARK    8  A    between atoms: C_14  and  S_15
REMARK    9  A    between atoms: S_15  and  C_18
REMARK   10  A    between atoms: C_25  and  C_26
REMARK                            x       y       z     vdW  Elec       q    Type
REMARK                         _______ _______ _______ _____ _____    ______ ____
ROOT
ATOM      1  C   UNL     1       4.262   4.808  17.843  0.00  0.00    +0.000 A 
ATOM      2  N   UNL     1       4.003   6.113  17.564  0.00  0.00    +0.000 NA
ATOM      3  C   UNL     1       2.816   6.595  17.985  0.00  0.00    +0.000 A 
ATOM      4  N   UNL     1       2.537   7.968  17.862  0.00  0.00    +0.000 N 
ATOM      5  N   UNL     1       1.886   5.831  18.578  0.00  0.00    +0.000 NA
ATOM      6  C   UNL     1       2.202   4.563  18.863  0.00  0.00    +0.000 A 
ATOM      7  C   UNL     1       3.408   3.995  18.549  0.00  0.00    +0.000 A 
ATOM      8  H   UNL     1       3.387   8.439  17.576  0.00  0.00    +0.000 HD
ENDROOT
BRANCH   4   9
ATOM      9  C   UNL     1       1.775   8.713  18.799  0.00  0.00    +0.000 A 
ATOM     10  C   UNL     1       1.726   8.365  20.159  0.00  0.00    +0.000 A 
ATOM     11  C   UNL     1       1.019   9.134  21.092  0.00  0.00    +0.000 A 
ATOM     12  C   UNL     1       0.357  10.289  20.678  0.00  0.00    +0.000 A 
ATOM     13  C   UNL     1       0.400  10.663  19.329  0.00  0.00    +0.000 A 
ATOM     14  C   UNL     1       1.114   9.883  18.400  0.00  0.00    +0.000 A 
BRANCH  12  15
ATOM     15  S   UNL     1      -0.308  11.408  21.904  0.00  0.00    +0.000 S 
ATOM     16  N   UNL     1      -0.445  10.579  23.196  0.00  0.00    +0.000 NA
ATOM     17  O   UNL     1       0.471  12.631  21.826  0.00  0.00    +0.000 OA
ATOM     18  H   UNL     1       0.474  10.282  23.527  0.00  0.00    +0.000 HD
BRANCH  15  19
ATOM     19  C   UNL     1      -2.011  11.884  21.522  0.00  0.00    +0.000 C 
ATOM     20  C   UNL     1      -2.490  13.135  22.206  0.00  0.00    +0.000 C 
ATOM     21  C   UNL     1      -2.257  13.124  20.718  0.00  0.00    +0.000 C 
ENDBRANCH  15  19
ENDBRANCH  12  15
ENDBRANCH   4   9
BRANCH   7  22
ATOM     22  C   UNL     1       3.688   2.618  19.019  0.00  0.00    +0.000 C 
ATOM     23  F   UNL     1       2.725   2.035  19.779  0.00  0.00    +0.000 F 
ATOM     24  F   UNL     1       3.891   1.768  17.969  0.00  0.00    +0.000 F 
ATOM     25  F   UNL     1       4.834   2.553  19.755  0.00  0.00    +0.000 F 
ENDBRANCH   7  22
BRANCH   1  26
ATOM     26  O   UNL     1       5.456   4.239  17.439  0.00  0.00    +0.000 OA
BRANCH  26  27
ATOM     27  C   UNL     1       6.683   4.894  17.810  0.00  0.00    +0.000 C 
ATOM     28  C   UNL     1       6.620   5.392  19.259  0.00  0.00    +0.000 C 
BRANCH  27  30
ATOM     29  C   UNL     1       7.586   7.302  17.533  0.00  0.00    +0.000 C 
ATOM     30  C   UNL     1       6.873   6.127  16.877  0.00  0.00    +0.000 C 
BRANCH  30  31
ATOM     31  O   UNL     1       7.616   5.768  15.705  0.00  0.00    +0.000 OA
ATOM     32  H   UNL     1       7.742   4.801  15.732  0.00  0.00    +0.000 HD
ENDBRANCH  30  31
ENDBRANCH  27  30
ENDBRANCH  26  27
ENDBRANCH   1  26
TORSDOF 8
ENDMDL
MODEL 8
REMARK VINA RESULT:      -7.5      2.544      3.824
REMARK  Name = 
REMARK  10 active torsions:
REMARK  status: ('A' for Active; 'I' for Inactive)
REMARK    1  A    between atoms: C_1  and  C_2
REMARK    2  A    between atoms: C_2  and  O_3
REMARK    3  A    between atoms: C_2  and  C_4
REMARK    4  A    between atoms: C_4  and  C_5
REMARK    5  A    between atoms: C_4  and  O_6
REMARK    6  A    between atoms: O_6  and  C_7
REMARK    7  A    between atoms: N_10  and  C_11
REMARK    8  A    between atoms: C_14  and  S_15
REMARK    9  A    between atoms: S_15  and  C_18
REMARK   10  A    between atoms: C_25  and  C_26
REMARK                            x       y       z     vdW  Elec       q    Type
REMARK                         _______ _______ _______ _____ _____    ______ ____
ROOT
ATOM      1  C   UNL     1       4.038   4.860  18.649  0.00  0.00    +0.000 A 
ATOM      2  N   UNL     1       3.362   5.499  19.639  0.00  0.00    +0.000 NA
ATOM      3  C   UNL     1       3.045   6.791  19.417  0.00  0.00    +0.000 A 
ATOM      4  N   UNL     1       2.223   7.476  20.330  0.00  0.00    +0.000 N 
ATOM      5  N   UNL     1       3.433   7.460  18.320  0.00  0.00    +0.000 NA
ATOM      6  C   UNL     1       4.065   6.778  17.359  0.00  0.00    +0.000 A 
ATOM      7  C   UNL     1       4.367   5.446  17.450  0.00  0.00    +0.000 A 
ATOM      8  H   UNL     1       1.861   6.804  20.995  0.00  0.00    +0.000 HD
ENDROOT
BRANCH   4   9
ATOM      9  C   UNL     1       1.272   8.463  19.961  0.00  0.00    +0.000 A 
ATOM     10  C   UNL     1       0.349   8.984  20.883  0.00  0.00    +0.000 A 
ATOM     11  C   UNL     1      -0.551   9.998  20.532  0.00  0.00    +0.000 A 
ATOM     12  C   UNL     1      -0.532  10.526  19.241  0.00  0.00    +0.000 A 
ATOM     13  C   UNL     1       0.387  10.029  18.307  0.00  0.00    +0.000 A 
ATOM     14  C   UNL     1       1.288   9.012  18.671  0.00  0.00    +0.000 A 
BRANCH  12  15
ATOM     15  S   UNL     1      -1.485  11.994  18.878  0.00  0.00    +0.000 S 
ATOM     16  N   UNL     1      -2.054  12.468  20.230  0.00  0.00    +0.000 NA
ATOM     17  O   UNL     1      -0.660  12.833  18.028  0.00  0.00    +0.000 OA
ATOM     18  H   UNL     1      -1.299  12.747  20.856  0.00  0.00    +0.000 HD
BRANCH  15  19
ATOM     19  C   UNL     1      -2.962  11.609  17.906  0.00  0.00    +0.000 C 
ATOM     20  C   UNL     1      -2.691  11.027  16.545  0.00  0.00    +0.000 C 
ATOM     21  C   UNL     1      -3.296  10.175  17.629  0.00  0.00    +0.000 C 
ENDBRANCH  15  19
ENDBRANCH  12  15
ENDBRANCH   4   9
BRANCH   7  22
ATOM     22  C   UNL     1       4.963   4.770  16.274  0.00  0.00    +0.000 C 
ATOM     23  F   UNL     1       4.263   3.723  15.764  0.00  0.00    +0.000 F 
ATOM     24  F   UNL     1       5.129   5.640  15.234  0.00  0.00    +0.000 F 
ATOM     25  F   UNL     1       6.212   4.290  16.537  0.00  0.00    +0.000 F 
ENDBRANCH   7  22
BRANCH   1  26
ATOM     26  O   UNL     1       4.403   3.536  18.806  0.00  0.00    +0.000 OA
BRANCH  26  27
ATOM     27  C   UNL     1       3.729   2.757  19.811  0.00  0.00    +0.000 C 
ATOM     28  C   UNL     1       4.706   1.808  20.515  0.00  0.00    +0.000 C 
BRANCH  27  30
ATOM     29  C   UNL     1       1.254   2.532  19.091  0.00  0.00    +0.000 C 
ATOM     30  C   UNL     1       2.639   1.898  19.103  0.00  0.00    +0.000 C 
BRANCH  30  31
ATOM     31  O   UNL     1       3.004   1.631  17.743  0.00  0.00    +0.000 OA
ATOM     32  H   UNL     1       3.768   1.024  17.767  0.00  0.00    +0.000 HD
ENDBRANCH  30  31
ENDBRANCH  27  30
ENDBRANCH  26  27
ENDBRANCH   1  26
TORSDOF 8
ENDMDL
MODEL 9
REMARK VINA RESULT:      -7.5      2.623      4.011
REMARK  Name = 
REMARK  10 active torsions:
REMARK  status: ('A' for Active; 'I' for Inactive)
REMARK    1  A    between atoms: C_1  and  C_2
REMARK    2  A    between atoms: C_2  and  O_3
REMARK    3  A    between atoms: C_2  and  C_4
REMARK    4  A    between atoms: C_4  and  C_5
REMARK    5  A    between atoms: C_4  and  O_6
REMARK    6  A    between atoms: O_6  and  C_7
REMARK    7  A    between atoms: N_10  and  C_11
REMARK    8  A    between atoms: C_14  and  S_15
REMARK    9  A    between atoms: S_15  and  C_18
REMARK   10  A    between atoms: C_25  and  C_26
REMARK                            x       y       z     vdW  Elec       q    Type
REMARK                         _______ _______ _______ _____ _____    ______ ____
ROOT
ATOM      1  C   UNL     1       3.712   4.864  18.578  0.00  0.00    +0.000 A 
ATOM      2  N   UNL     1       3.016   5.527  19.537  0.00  0.00    +0.000 NA
ATOM      3  C   UNL     1       2.913   6.864  19.392  0.00  0.00    +0.000 A 
ATOM      4  N   UNL     1       2.089   7.599  20.263  0.00  0.00    +0.000 N 
ATOM      5  N   UNL     1       3.521   7.541  18.407  0.00  0.00    +0.000 NA
ATOM      6  C   UNL     1       4.165   6.840  17.467  0.00  0.00    +0.000 A 
ATOM      7  C   UNL     1       4.265   5.475  17.477  0.00  0.00    +0.000 A 
ATOM      8  H   UNL     1       1.558   6.945  20.824  0.00  0.00    +0.000 HD
ENDROOT
BRANCH   4   9
ATOM      9  C   UNL     1       1.337   8.739  19.877  0.00  0.00    +0.000 A 
ATOM     10  C   UNL     1       1.407   9.268  18.578  0.00  0.00    +0.000 A 
ATOM     11  C   UNL     1       0.622  10.359  18.182  0.00  0.00    +0.000 A 
ATOM     12  C   UNL     1      -0.269  10.935  19.086  0.00  0.00    +0.000 A 
ATOM     13  C   UNL     1      -0.364  10.418  20.385  0.00  0.00    +0.000 A 
ATOM     14  C   UNL     1       0.428   9.321  20.771  0.00  0.00    +0.000 A 
BRANCH  12  15
ATOM     15  S   UNL     1      -1.457  12.138  18.503  0.00  0.00    +0.000 S 
ATOM     16  N   UNL     1      -2.413  12.388  19.685  0.00  0.00    +0.000 NA
ATOM     17  O   UNL     1      -0.702  13.197  17.857  0.00  0.00    +0.000 OA
ATOM     18  H   UNL     1      -1.911  12.814  20.465  0.00  0.00    +0.000 HD
BRANCH  15  19
ATOM     19  C   UNL     1      -2.533  11.449  17.223  0.00  0.00    +0.000 C 
ATOM     20  C   UNL     1      -2.845   9.985  17.376  0.00  0.00    +0.000 C 
ATOM     21  C   UNL     1      -3.919  11.017  17.593  0.00  0.00    +0.000 C 
ENDBRANCH  15  19
ENDBRANCH  12  15
ENDBRANCH   4   9
BRANCH   7  22
ATOM     22  C   UNL     1       4.900   4.800  16.321  0.00  0.00    +0.000 C 
ATOM     23  F   UNL     1       4.159   3.846  15.701  0.00  0.00    +0.000 F 
ATOM     24  F   UNL     1       5.232   5.697  15.346  0.00  0.00    +0.000 F 
ATOM     25  F   UNL     1       6.074   4.196  16.662  0.00  0.00    +0.000 F 
ENDBRANCH   7  22
BRANCH   1  26
ATOM     26  O   UNL     1       3.867   3.492  18.660  0.00  0.00    +0.000 OA
BRANCH  26  27
ATOM     27  C   UNL     1       3.556   2.845  19.907  0.00  0.00    +0.000 C 
ATOM     28  C   UNL     1       4.653   1.844  20.292  0.00  0.00    +0.000 C 
BRANCH  27  30
ATOM     29  C   UNL     1       0.984   2.821  20.184  0.00  0.00    +0.000 C 
ATOM     30  C   UNL     1       2.222   2.062  19.725  0.00  0.00    +0.000 C 
BRANCH  30  31
ATOM     31  O   UNL     1       2.026   1.704  18.351  0.00  0.00    +0.000 OA
ATOM     32  H   UNL     1       1.459   2.392  17.956  0.00  0.00    +0.000 HD
ENDBRANCH  30  31
ENDBRANCH  27  30
ENDBRANCH  26  27
ENDBRANCH   1  26
TORSDOF 8
ENDMDL
