MODEL 1
REMARK VINA RESULT:      -6.7      0.000      0.000
REMARK  Name = 
REMARK  5 active torsions:
REMARK  status: ('A' for Active; 'I' for Inactive)
REMARK    1  A    between atoms: C_1  and  O_2
REMARK    2  A    between atoms: O_2  and  C_3
REMARK    3  A    between atoms: C_3  and  C_5
REMARK    4  A    between atoms: C_13  and  C_14
REMARK    5  A    between atoms: N_17  and  C_18
REMARK                            x       y       z     vdW  Elec       q    Type
REMARK                         _______ _______ _______ _____ _____    ______ ____
ROOT
ATOM      1  C   UNL     1       5.609   4.619  16.659  0.00  0.00    +0.000 A 
ATOM      2  C   UNL     1       5.062   3.820  17.663  0.00  0.00    +0.000 A 
ATOM      3  C   UNL     1       4.077   4.573  18.291  0.00  0.00    +0.000 A 
ATOM      4  C   UNL     1       4.006   5.822  17.709  0.00  0.00    +0.000 A 
ATOM      5  C   UNL     1       3.095   6.859  18.082  0.00  0.00    +0.000 A 
ATOM      6  C   UNL     1       2.237   6.566  19.091  0.00  0.00    +0.000 A 
ATOM      7  N   UNL     1       2.253   5.314  19.733  0.00  0.00    +0.000 N 
ATOM      8  C   UNL     1       1.487   4.813  20.757  0.00  0.00    +0.000 A 
ATOM      9  C   UNL     1       1.952   3.526  20.975  0.00  0.00    +0.000 A 
ATOM     10  C   UNL     1       1.500   2.521  21.960  0.00  0.00    +0.000 C 
ATOM     11  N   UNL     1       2.979   3.220  20.111  0.00  0.00    +0.000 NA
ATOM     12  C   UNL     1       3.132   4.301  19.389  0.00  0.00    +0.000 A 
ATOM     13  N   UNL     1       4.954   5.857  16.713  0.00  0.00    +0.000 N 
ATOM     14  C   UNL     1       5.244   6.962  15.822  0.00  0.00    +0.000 C 
ENDROOT
BRANCH   1  15
ATOM     15  C   UNL     1       6.646   4.254  15.715  0.00  0.00    +0.000 C 
ATOM     16  O   UNL     1       7.819   4.598  15.766  0.00  0.00    +0.000 OA
BRANCH  15  18
ATOM     17  C   UNL     1       6.306   3.958  13.405  0.00  0.00    +0.000 C 
ATOM     18  O   UNL     1       6.110   3.474  14.733  0.00  0.00    +0.000 OA
ENDBRANCH  15  18
ENDBRANCH   1  15
TORSDOF 2
ENDMDL
MODEL 2
REMARK VINA RESULT:      -6.6      3.035      4.383
REMARK  Name = 
REMARK  5 active torsions:
REMARK  status: ('A' for Active; 'I' for Inactive)
REMARK    1  A    between atoms: C_1  and  O_2
REMARK    2  A    between atoms: O_2  and  C_3
REMARK    3  A    between atoms: C_3  and  C_5
REMARK    4  A    between atoms: C_13  and  C_14
REMARK    5  A    between atoms: N_17  and  C_18
REMARK                            x       y       z     vdW  Elec       q    Type
REMARK                         _______ _______ _______ _____ _____    ______ ____
ROOT
ATOM      1  C   UNL     1       3.488   4.793  19.361  0.00  0.00    +0.000 A 
ATOM      2  C   UNL     1       2.732   5.457  20.328  0.00  0.00    +0.000 A 
ATOM      3  C   UNL     1       2.396   6.698  19.800  0.00  0.00    +0.000 A 
ATOM      4  C   UNL     1       2.932   6.825  18.535  0.00  0.00    +0.000 A 
ATOM      5  C   UNL     1       2.778   7.960  17.680  0.00  0.00    +0.000 A 
ATOM      6  C   UNL     1       2.035   8.983  18.173  0.00  0.00    +0.000 A 
ATOM      7  N   UNL     1       1.459   8.925  19.456  0.00  0.00    +0.000 N 
ATOM      8  C   UNL     1       0.683   9.828  20.140  0.00  0.00    +0.000 A 
ATOM      9  C   UNL     1       0.408   9.233  21.360  0.00  0.00    +0.000 A 
ATOM     10  C   UNL     1      -0.382   9.750  22.498  0.00  0.00    +0.000 C 
ATOM     11  N   UNL     1       0.988   7.988  21.444  0.00  0.00    +0.000 NA
ATOM     12  C   UNL     1       1.604   7.836  20.299  0.00  0.00    +0.000 A 
ATOM     13  N   UNL     1       3.614   5.660  18.268  0.00  0.00    +0.000 N 
ATOM     14  C   UNL     1       4.334   5.329  17.055  0.00  0.00    +0.000 C 
ENDROOT
BRANCH   1  15
ATOM     15  C   UNL     1       4.035   3.453  19.443  0.00  0.00    +0.000 C 
ATOM     16  O   UNL     1       5.217   3.166  19.568  0.00  0.00    +0.000 OA
BRANCH  15  18
ATOM     17  C   UNL     1       2.741   2.109  18.009  0.00  0.00    +0.000 C 
ATOM     18  O   UNL     1       3.023   2.544  19.338  0.00  0.00    +0.000 OA
ENDBRANCH  15  18
ENDBRANCH   1  15
TORSDOF 2
ENDMDL
MODEL 3
REMARK VINA RESULT:      -6.3      1.824      2.360
REMARK  Name = 
REMARK  5 active torsions:
REMARK  status: ('A' for Active; 'I' for Inactive)
REMARK    1  A    between atoms: C_1  and  O_2
REMARK    2  A    between atoms: O_2  and  C_3
REMARK    3  A    between atoms: C_3  and  C_5
REMARK    4  A    between atoms: C_13  and  C_14
REMARK    5  A    between atoms: N_17  and  C_18
REMARK                            x       y       z     vdW  Elec       q    Type
REMARK                         _______ _______ _______ _____ _____    ______ ____
ROOT
ATOM      1  C   UNL     1       6.008   4.717  18.041  0.00  0.00    +0.000 A 
ATOM      2  C   UNL     1       5.408   4.241  19.207  0.00  0.00    +0.000 A 
ATOM      3  C   UNL     1       4.052   4.098  18.937  0.00  0.00    +0.000 A 
ATOM      4  C   UNL     1       3.795   4.482  17.637  0.00  0.00    +0.000 A 
ATOM      5  C   UNL     1       2.513   4.452  17.003  0.00  0.00    +0.000 A 
ATOM      6  C   UNL     1       1.482   4.001  17.761  0.00  0.00    +0.000 A 
ATOM      7  N   UNL     1       1.670   3.594  19.095  0.00  0.00    +0.000 N 
ATOM      8  C   UNL     1       0.783   3.111  20.025  0.00  0.00    +0.000 A 
ATOM      9  C   UNL     1       1.532   2.880  21.168  0.00  0.00    +0.000 A 
ATOM     10  C   UNL     1       1.098   2.364  22.484  0.00  0.00    +0.000 C 
ATOM     11  N   UNL     1       2.854   3.202  20.965  0.00  0.00    +0.000 NA
ATOM     12  C   UNL     1       2.902   3.623  19.726  0.00  0.00    +0.000 A 
ATOM     13  N   UNL     1       4.993   4.874  17.088  0.00  0.00    +0.000 N 
ATOM     14  C   UNL     1       5.221   5.350  15.739  0.00  0.00    +0.000 C 
ENDROOT
BRANCH   1  15
ATOM     15  C   UNL     1       7.416   4.987  17.827  0.00  0.00    +0.000 C 
ATOM     16  O   UNL     1       8.195   4.288  17.193  0.00  0.00    +0.000 OA
BRANCH  15  18
ATOM     17  C   UNL     1       7.607   7.328  17.684  0.00  0.00    +0.000 C 
ATOM     18  O   UNL     1       7.757   6.144  18.465  0.00  0.00    +0.000 OA
ENDBRANCH  15  18
ENDBRANCH   1  15
TORSDOF 2
ENDMDL
MODEL 4
REMARK VINA RESULT:      -6.3      0.542      1.254
REMARK  Name = 
REMARK  5 active torsions:
REMARK  status: ('A' for Active; 'I' for Inactive)
REMARK    1  A    between atoms: C_1  and  O_2
REMARK    2  A    between atoms: O_2  and  C_3
REMARK    3  A    between atoms: C_3  and  C_5
REMARK    4  A    between atoms: C_13  and  C_14
REMARK    5  A    between atoms: N_17  and  C_18
REMARK                            x       y       z     vdW  Elec       q    Type
REMARK                         _______ _______ _______ _____ _____    ______ ____
ROOT
ATOM      1  C   UNL     1       5.322   4.610  16.407  0.00  0.00    +0.000 A 
ATOM      2  C   UNL     1       4.764   3.806  17.401  0.00  0.00    +0.000 A 
ATOM      3  C   UNL     1       3.878   4.600  18.117  0.00  0.00    +0.000 A 
ATOM      4  C   UNL     1       3.879   5.880  17.599  0.00  0.00    +0.000 A 
ATOM      5  C   UNL     1       3.076   6.965  18.071  0.00  0.00    +0.000 A 
ATOM      6  C   UNL     1       2.250   6.689  19.111  0.00  0.00    +0.000 A 
ATOM      7  N   UNL     1       2.197   5.408  19.692  0.00  0.00    +0.000 N 
ATOM      8  C   UNL     1       1.446   4.918  20.731  0.00  0.00    +0.000 A 
ATOM      9  C   UNL     1       1.815   3.589  20.863  0.00  0.00    +0.000 A 
ATOM     10  C   UNL     1       1.334   2.573  21.823  0.00  0.00    +0.000 C 
ATOM     11  N   UNL     1       2.768   3.247  19.930  0.00  0.00    +0.000 NA
ATOM     12  C   UNL     1       2.972   4.348  19.252  0.00  0.00    +0.000 A 
ATOM     13  N   UNL     1       4.775   5.890  16.556  0.00  0.00    +0.000 N 
ATOM     14  C   UNL     1       5.107   7.014  15.703  0.00  0.00    +0.000 C 
ENDROOT
BRANCH   1  15
ATOM     15  C   UNL     1       6.276   4.212  15.390  0.00  0.00    +0.000 C 
ATOM     16  O   UNL     1       6.013   3.634  14.345  0.00  0.00    +0.000 OA
BRANCH  15  18
ATOM     17  C   UNL     1       7.752   4.526  17.196  0.00  0.00    +0.000 C 
ATOM     18  O   UNL     1       7.533   4.563  15.787  0.00  0.00    +0.000 OA
ENDBRANCH  15  18
ENDBRANCH   1  15
TORSDOF 2
ENDMDL
MODEL 5
REMARK VINA RESULT:      -6.3      2.869      5.639
REMARK  Name = 
REMARK  5 active torsions:
REMARK  status: ('A' for Active; 'I' for Inactive)
REMARK    1  A    between atoms: C_1  and  O_2
REMARK    2  A    between atoms: O_2  and  C_3
REMARK    3  A    between atoms: C_3  and  C_5
REMARK    4  A    between atoms: C_13  and  C_14
REMARK    5  A    between atoms: N_17  and  C_18
REMARK                            x       y       z     vdW  Elec       q    Type
REMARK                         _______ _______ _______ _____ _____    ______ ____
ROOT
ATOM      1  C   UNL     1       2.771   3.748  19.904  0.00  0.00    +0.000 A 
ATOM      2  C   UNL     1       3.555   3.358  18.818  0.00  0.00    +0.000 A 
ATOM      3  C   UNL     1       3.841   4.506  18.089  0.00  0.00    +0.000 A 
ATOM      4  C   UNL     1       3.245   5.597  18.690  0.00  0.00    +0.000 A 
ATOM      5  C   UNL     1       3.337   6.948  18.230  0.00  0.00    +0.000 A 
ATOM      6  C   UNL     1       4.079   7.150  17.113  0.00  0.00    +0.000 A 
ATOM      7  N   UNL     1       4.714   6.085  16.446  0.00  0.00    +0.000 N 
ATOM      8  C   UNL     1       5.501   6.064  15.321  0.00  0.00    +0.000 A 
ATOM      9  C   UNL     1       5.843   4.736  15.131  0.00  0.00    +0.000 A 
ATOM     10  C   UNL     1       6.672   4.124  14.071  0.00  0.00    +0.000 C 
ATOM     11  N   UNL     1       5.294   3.939  16.110  0.00  0.00    +0.000 NA
ATOM     12  C   UNL     1       4.630   4.771  16.874  0.00  0.00    +0.000 A 
ATOM     13  N   UNL     1       2.577   5.131  19.798  0.00  0.00    +0.000 N 
ATOM     14  C   UNL     1       1.810   5.913  20.747  0.00  0.00    +0.000 C 
ENDROOT
BRANCH   1  15
ATOM     15  C   UNL     1       2.256   2.902  20.963  0.00  0.00    +0.000 C 
ATOM     16  O   UNL     1       2.895   2.471  21.913  0.00  0.00    +0.000 OA
BRANCH  15  18
ATOM     17  C   UNL     1       0.619   2.331  19.372  0.00  0.00    +0.000 C 
ATOM     18  O   UNL     1       0.940   2.633  20.729  0.00  0.00    +0.000 OA
ENDBRANCH  15  18
ENDBRANCH   1  15
TORSDOF 2
ENDMDL
MODEL 6
REMARK VINA RESULT:      -6.2      1.694      1.941
REMARK  Name = 
REMARK  5 active torsions:
REMARK  status: ('A' for Active; 'I' for Inactive)
REMARK    1  A    between atoms: C_1  and  O_2
REMARK    2  A    between atoms: O_2  and  C_3
REMARK    3  A    between atoms: C_3  and  C_5
REMARK    4  A    between atoms: C_13  and  C_14
REMARK    5  A    between atoms: N_17  and  C_18
REMARK                            x       y       z     vdW  Elec       q    Type
REMARK                         _______ _______ _______ _____ _____    ______ ____
ROOT
ATOM      1  C   UNL     1       6.081   4.750  15.561  0.00  0.00    +0.000 A 
ATOM      2  C   UNL     1       4.950   3.969  15.801  0.00  0.00    +0.000 A 
ATOM      3  C   UNL     1       4.498   4.288  17.076  0.00  0.00    +0.000 A 
ATOM      4  C   UNL     1       5.325   5.241  17.636  0.00  0.00    +0.000 A 
ATOM      5  C   UNL     1       5.158   5.823  18.932  0.00  0.00    +0.000 A 
ATOM      6  C   UNL     1       4.090   5.392  19.648  0.00  0.00    +0.000 A 
ATOM      7  N   UNL     1       3.206   4.421  19.142  0.00  0.00    +0.000 N 
ATOM      8  C   UNL     1       2.081   3.852  19.686  0.00  0.00    +0.000 A 
ATOM      9  C   UNL     1       1.619   2.957  18.735  0.00  0.00    +0.000 A 
ATOM     10  C   UNL     1       0.442   2.063  18.782  0.00  0.00    +0.000 C 
ATOM     11  N   UNL     1       2.424   2.964  17.619  0.00  0.00    +0.000 NA
ATOM     12  C   UNL     1       3.356   3.843  17.893  0.00  0.00    +0.000 A 
ATOM     13  N   UNL     1       6.305   5.518  16.712  0.00  0.00    +0.000 N 
ATOM     14  C   UNL     1       7.394   6.463  16.851  0.00  0.00    +0.000 C 
ENDROOT
BRANCH   1  15
ATOM     15  C   UNL     1       6.878   4.791  14.351  0.00  0.00    +0.000 C 
ATOM     16  O   UNL     1       7.830   5.529  14.142  0.00  0.00    +0.000 OA
BRANCH  15  18
ATOM     17  C   UNL     1       6.973   3.946  12.157  0.00  0.00    +0.000 C 
ATOM     18  O   UNL     1       6.389   3.884  13.457  0.00  0.00    +0.000 OA
ENDBRANCH  15  18
ENDBRANCH   1  15
TORSDOF 2
ENDMDL
MODEL 7
REMARK VINA RESULT:      -6.2      2.740      5.949
REMARK  Name = 
REMARK  5 active torsions:
REMARK  status: ('A' for Active; 'I' for Inactive)
REMARK    1  A    between atoms: C_1  and  O_2
REMARK    2  A    between atoms: O_2  and  C_3
REMARK    3  A    between atoms: C_3  and  C_5
REMARK    4  A    between atoms: C_13  and  C_14
REMARK    5  A    between atoms: N_17  and  C_18
REMARK                            x       y       z     vdW  Elec       q    Type
REMARK                         _______ _______ _______ _____ _____    ______ ____
ROOT
ATOM      1  C   UNL     1       2.335   3.555  18.558  0.00  0.00    +0.000 A 
ATOM      2  C   UNL     1       3.019   3.171  17.404  0.00  0.00    +0.000 A 
ATOM      3  C   UNL     1       3.830   4.238  17.038  0.00  0.00    +0.000 A 
ATOM      4  C   UNL     1       3.659   5.278  17.929  0.00  0.00    +0.000 A 
ATOM      5  C   UNL     1       4.343   6.533  17.879  0.00  0.00    +0.000 A 
ATOM      6  C   UNL     1       5.232   6.688  16.866  0.00  0.00    +0.000 A 
ATOM      7  N   UNL     1       5.457   5.672  15.919  0.00  0.00    +0.000 N 
ATOM      8  C   UNL     1       6.297   5.617  14.834  0.00  0.00    +0.000 A 
ATOM      9  C   UNL     1       6.093   4.370  14.267  0.00  0.00    +0.000 A 
ATOM     10  C   UNL     1       6.725   3.767  13.074  0.00  0.00    +0.000 C 
ATOM     11  N   UNL     1       5.155   3.653  14.976  0.00  0.00    +0.000 NA
ATOM     12  C   UNL     1       4.798   4.455  15.949  0.00  0.00    +0.000 A 
ATOM     13  N   UNL     1       2.732   4.865  18.857  0.00  0.00    +0.000 N 
ATOM     14  C   UNL     1       2.239   5.617  19.993  0.00  0.00    +0.000 C 
ENDROOT
BRANCH   1  15
ATOM     15  C   UNL     1       1.399   2.759  19.328  0.00  0.00    +0.000 C 
ATOM     16  O   UNL     1       0.216   2.591  19.070  0.00  0.00    +0.000 OA
BRANCH  15  18
ATOM     17  C   UNL     1       1.446   2.556  21.672  0.00  0.00    +0.000 C 
ATOM     18  O   UNL     1       2.037   2.236  20.414  0.00  0.00    +0.000 OA
ENDBRANCH  15  18
ENDBRANCH   1  15
TORSDOF 2
ENDMDL
MODEL 8
REMARK VINA RESULT:      -6.2      3.779      6.150
REMARK  Name = 
REMARK  5 active torsions:
REMARK  status: ('A' for Active; 'I' for Inactive)
REMARK    1  A    between atoms: C_1  and  O_2
REMARK    2  A    between atoms: O_2  and  C_3
REMARK    3  A    between atoms: C_3  and  C_5
REMARK    4  A    between atoms: C_13  and  C_14
REMARK    5  A    between atoms: N_17  and  C_18
REMARK                            x       y       z     vdW  Elec       q    Type
REMARK                         _______ _______ _______ _____ _____    ______ ____
ROOT
ATOM      1  C   UNL     1       1.807   8.835  18.697  0.00  0.00    +0.000 A 
ATOM      2  C   UNL     1       2.624   8.201  17.761  0.00  0.00    +0.000 A 
ATOM      3  C   UNL     1       2.985   6.973  18.302  0.00  0.00    +0.000 A 
ATOM      4  C   UNL     1       2.420   6.833  19.553  0.00  0.00    +0.000 A 
ATOM      5  C   UNL     1       2.557   5.690  20.401  0.00  0.00    +0.000 A 
ATOM      6  C   UNL     1       3.305   4.669  19.912  0.00  0.00    +0.000 A 
ATOM      7  N   UNL     1       3.914   4.742  18.645  0.00  0.00    +0.000 N 
ATOM      8  C   UNL     1       4.696   3.842  17.965  0.00  0.00    +0.000 A 
ATOM      9  C   UNL     1       5.012   4.455  16.763  0.00  0.00    +0.000 A 
ATOM     10  C   UNL     1       5.833   3.952  15.641  0.00  0.00    +0.000 C 
ATOM     11  N   UNL     1       4.440   5.704  16.682  0.00  0.00    +0.000 NA
ATOM     12  C   UNL     1       3.796   5.844  17.814  0.00  0.00    +0.000 A 
ATOM     13  N   UNL     1       1.706   7.982  19.803  0.00  0.00    +0.000 N 
ATOM     14  C   UNL     1       0.934   8.289  20.990  0.00  0.00    +0.000 C 
ENDROOT
BRANCH   1  15
ATOM     15  C   UNL     1       1.160  10.126  18.564  0.00  0.00    +0.000 C 
ATOM     16  O   UNL     1       1.638  11.206  18.881  0.00  0.00    +0.000 OA
BRANCH  15  18
ATOM     17  C   UNL     1      -1.134  10.614  18.758  0.00  0.00    +0.000 C 
ATOM     18  O   UNL     1      -0.090   9.954  18.045  0.00  0.00    +0.000 OA
ENDBRANCH  15  18
ENDBRANCH   1  15
TORSDOF 2
ENDMDL
MODEL 9
REMARK VINA RESULT:      -6.2      2.737      6.120
REMARK  Name = 
REMARK  5 active torsions:
REMARK  status: ('A' for Active; 'I' for Inactive)
REMARK    1  A    between atoms: C_1  and  O_2
REMARK    2  A    between atoms: O_2  and  C_3
REMARK    3  A    between atoms: C_3  and  C_5
REMARK    4  A    between atoms: C_13  and  C_14
REMARK    5  A    between atoms: N_17  and  C_18
REMARK                            x       y       z     vdW  Elec       q    Type
REMARK                         _______ _______ _______ _____ _____    ______ ____
ROOT
ATOM      1  C   UNL     1       2.989   3.720  17.994  0.00  0.00    +0.000 A 
ATOM      2  C   UNL     1       3.444   3.393  16.717  0.00  0.00    +0.000 A 
ATOM      3  C   UNL     1       4.555   4.189  16.464  0.00  0.00    +0.000 A 
ATOM      4  C   UNL     1       4.794   5.009  17.549  0.00  0.00    +0.000 A 
ATOM      5  C   UNL     1       5.866   5.949  17.655  0.00  0.00    +0.000 A 
ATOM      6  C   UNL     1       6.706   6.021  16.593  0.00  0.00    +0.000 A 
ATOM      7  N   UNL     1       6.523   5.218  15.452  0.00  0.00    +0.000 N 
ATOM      8  C   UNL     1       7.241   5.127  14.285  0.00  0.00    +0.000 A 
ATOM      9  C   UNL     1       6.593   4.169  13.522  0.00  0.00    +0.000 A 
ATOM     10  C   UNL     1       6.923   3.667  12.171  0.00  0.00    +0.000 C 
ATOM     11  N   UNL     1       5.501   3.664  14.189  0.00  0.00    +0.000 NA
ATOM     12  C   UNL     1       5.487   4.307  15.330  0.00  0.00    +0.000 A 
ATOM     13  N   UNL     1       3.826   4.730  18.485  0.00  0.00    +0.000 N 
ATOM     14  C   UNL     1       3.675   5.338  19.792  0.00  0.00    +0.000 C 
ENDROOT
BRANCH   1  15
ATOM     15  C   UNL     1       1.873   3.128  18.706  0.00  0.00    +0.000 C 
ATOM     16  O   UNL     1       0.691   3.240  18.411  0.00  0.00    +0.000 OA
BRANCH  15  18
ATOM     17  C   UNL     1       1.588   2.604  20.982  0.00  0.00    +0.000 C 
ATOM     18  O   UNL     1       2.341   2.434  19.783  0.00  0.00    +0.000 OA
ENDBRANCH  15  18
ENDBRANCH   1  15
TORSDOF 2
ENDMDL
