MODEL 1
REMARK VINA RESULT:      -7.5      0.000      0.000
REMARK  Name = 
REMARK  4 active torsions:
REMARK  status: ('A' for Active; 'I' for Inactive)
REMARK    1  A    between atoms: C_1  and  O_2
REMARK    2  A    between atoms: O_2  and  C_3
REMARK    3  A    between atoms: C_12  and  O_13
REMARK    4  A    between atoms: O_13  and  C_14
REMARK                            x       y       z     vdW  Elec       q    Type
REMARK                         _______ _______ _______ _____ _____    ______ ____
ROOT
ATOM      1  C   UNL     1       3.189   3.048  18.121  0.00  0.00    +0.000 A 
ATOM      2  C   UNL     1       3.459   3.973  17.098  0.00  0.00    +0.000 A 
ATOM      3  C   UNL     1       4.564   4.838  17.176  0.00  0.00    +0.000 A 
ATOM      4  C   UNL     1       4.849   5.817  16.196  0.00  0.00    +0.000 A 
ATOM      5  N   UNL     1       5.875   6.704  16.253  0.00  0.00    +0.000 NA
ATOM      6  C   UNL     1       6.643   6.578  17.349  0.00  0.00    +0.000 A 
ATOM      7  C   UNL     1       6.478   5.653  18.354  0.00  0.00    +0.000 A 
ATOM      8  C   UNL     1       5.425   4.745  18.293  0.00  0.00    +0.000 A 
ATOM      9  C   UNL     1       5.186   3.771  19.278  0.00  0.00    +0.000 A 
ATOM     10  C   UNL     1       4.069   2.930  19.206  0.00  0.00    +0.000 A 
ATOM     11  C   UNL     1       7.509   5.911  19.355  0.00  0.00    +0.000 C 
ATOM     12  O   UNL     1       7.659   5.310  20.402  0.00  0.00    +0.000 OA
ATOM     13  N   UNL     1       8.242   6.961  18.906  0.00  0.00    +0.000 N 
ATOM     14  C   UNL     1       7.779   7.440  17.715  0.00  0.00    +0.000 C 
ATOM     15  O   UNL     1       8.212   8.395  17.104  0.00  0.00    +0.000 OA
ATOM     16  H   UNL     1       9.003   7.379  19.417  0.00  0.00    +0.000 HD
ENDROOT
BRANCH   1  18
ATOM     17  C   UNL     1       0.892   2.783  18.615  0.00  0.00    +0.000 C 
ATOM     18  O   UNL     1       2.047   2.311  17.925  0.00  0.00    +0.000 OA
ENDBRANCH   1  18
BRANCH  10  19
ATOM     19  O   UNL     1       3.856   1.942  20.128  0.00  0.00    +0.000 OA
ATOM     20  C   UNL     1       3.174   2.341  21.315  0.00  0.00    +0.000 C 
ENDBRANCH  10  19
TORSDOF 2
ENDMDL
MODEL 2
REMARK VINA RESULT:      -7.4      3.026      5.734
REMARK  Name = 
REMARK  4 active torsions:
REMARK  status: ('A' for Active; 'I' for Inactive)
REMARK    1  A    between atoms: C_1  and  O_2
REMARK    2  A    between atoms: O_2  and  C_3
REMARK    3  A    between atoms: C_12  and  O_13
REMARK    4  A    between atoms: O_13  and  C_14
REMARK                            x       y       z     vdW  Elec       q    Type
REMARK                         _______ _______ _______ _____ _____    ______ ____
ROOT
ATOM      1  C   UNL     1       6.279   5.000  16.356  0.00  0.00    +0.000 A 
ATOM      2  C   UNL     1       5.566   3.808  16.569  0.00  0.00    +0.000 A 
ATOM      3  C   UNL     1       4.459   3.770  17.435  0.00  0.00    +0.000 A 
ATOM      4  C   UNL     1       3.740   2.586  17.719  0.00  0.00    +0.000 A 
ATOM      5  N   UNL     1       2.697   2.494  18.582  0.00  0.00    +0.000 NA
ATOM      6  C   UNL     1       2.373   3.657  19.171  0.00  0.00    +0.000 A 
ATOM      7  C   UNL     1       2.982   4.873  18.958  0.00  0.00    +0.000 A 
ATOM      8  C   UNL     1       4.051   4.965  18.071  0.00  0.00    +0.000 A 
ATOM      9  C   UNL     1       4.728   6.166  17.799  0.00  0.00    +0.000 A 
ATOM     10  C   UNL     1       5.844   6.190  16.956  0.00  0.00    +0.000 A 
ATOM     11  C   UNL     1       2.333   5.843  19.835  0.00  0.00    +0.000 C 
ATOM     12  O   UNL     1       2.624   7.019  19.943  0.00  0.00    +0.000 OA
ATOM     13  N   UNL     1       1.370   5.175  20.520  0.00  0.00    +0.000 N 
ATOM     14  C   UNL     1       1.336   3.850  20.198  0.00  0.00    +0.000 C 
ATOM     15  O   UNL     1       0.609   3.009  20.685  0.00  0.00    +0.000 OA
ATOM     16  H   UNL     1       0.786   5.594  21.226  0.00  0.00    +0.000 HD
ENDROOT
BRANCH   1  18
ATOM     17  C   UNL     1       7.062   4.786  14.135  0.00  0.00    +0.000 C 
ATOM     18  O   UNL     1       7.364   4.864  15.526  0.00  0.00    +0.000 OA
ENDBRANCH   1  18
BRANCH  10  19
ATOM     19  O   UNL     1       6.477   7.362  16.640  0.00  0.00    +0.000 OA
ATOM     20  C   UNL     1       7.559   7.730  17.493  0.00  0.00    +0.000 C 
ENDBRANCH  10  19
TORSDOF 2
ENDMDL
MODEL 3
REMARK VINA RESULT:      -7.2      2.714      5.964
REMARK  Name = 
REMARK  4 active torsions:
REMARK  status: ('A' for Active; 'I' for Inactive)
REMARK    1  A    between atoms: C_1  and  O_2
REMARK    2  A    between atoms: O_2  and  C_3
REMARK    3  A    between atoms: C_12  and  O_13
REMARK    4  A    between atoms: O_13  and  C_14
REMARK                            x       y       z     vdW  Elec       q    Type
REMARK                         _______ _______ _______ _____ _____    ______ ____
ROOT
ATOM      1  C   UNL     1       6.079   6.390  17.052  0.00  0.00    +0.000 A 
ATOM      2  C   UNL     1       5.039   6.770  17.917  0.00  0.00    +0.000 A 
ATOM      3  C   UNL     1       4.114   5.828  18.398  0.00  0.00    +0.000 A 
ATOM      4  C   UNL     1       3.024   6.170  19.230  0.00  0.00    +0.000 A 
ATOM      5  N   UNL     1       2.081   5.302  19.679  0.00  0.00    +0.000 NA
ATOM      6  C   UNL     1       2.265   4.037  19.266  0.00  0.00    +0.000 A 
ATOM      7  C   UNL     1       3.296   3.582  18.476  0.00  0.00    +0.000 A 
ATOM      8  C   UNL     1       4.262   4.474  18.018  0.00  0.00    +0.000 A 
ATOM      9  C   UNL     1       5.345   4.091  17.207  0.00  0.00    +0.000 A 
ATOM     10  C   UNL     1       6.246   5.040  16.713  0.00  0.00    +0.000 A 
ATOM     11  C   UNL     1       3.072   2.158  18.247  0.00  0.00    +0.000 C 
ATOM     12  O   UNL     1       3.764   1.422  17.569  0.00  0.00    +0.000 OA
ATOM     13  N   UNL     1       1.935   1.825  18.909  0.00  0.00    +0.000 N 
ATOM     14  C   UNL     1       1.370   2.899  19.534  0.00  0.00    +0.000 C 
ATOM     15  O   UNL     1       0.331   2.904  20.161  0.00  0.00    +0.000 OA
ATOM     16  H   UNL     1       1.521   0.907  18.895  0.00  0.00    +0.000 HD
ENDROOT
BRANCH   1  18
ATOM     17  C   UNL     1       7.741   7.974  17.616  0.00  0.00    +0.000 C 
ATOM     18  O   UNL     1       6.867   7.431  16.629  0.00  0.00    +0.000 OA
ENDBRANCH   1  18
BRANCH  10  19
ATOM     19  O   UNL     1       7.335   4.673  15.969  0.00  0.00    +0.000 OA
ATOM     20  C   UNL     1       7.137   4.641  14.558  0.00  0.00    +0.000 C 
ENDBRANCH  10  19
TORSDOF 2
ENDMDL
MODEL 4
REMARK VINA RESULT:      -6.6      2.645      5.833
REMARK  Name = 
REMARK  4 active torsions:
REMARK  status: ('A' for Active; 'I' for Inactive)
REMARK    1  A    between atoms: C_1  and  O_2
REMARK    2  A    between atoms: O_2  and  C_3
REMARK    3  A    between atoms: C_12  and  O_13
REMARK    4  A    between atoms: O_13  and  C_14
REMARK                            x       y       z     vdW  Elec       q    Type
REMARK                         _______ _______ _______ _____ _____    ______ ____
ROOT
ATOM      1  C   UNL     1       5.915   6.258  16.989  0.00  0.00    +0.000 A 
ATOM      2  C   UNL     1       4.590   6.595  17.312  0.00  0.00    +0.000 A 
ATOM      3  C   UNL     1       3.670   5.613  17.718  0.00  0.00    +0.000 A 
ATOM      4  C   UNL     1       2.315   5.895  18.007  0.00  0.00    +0.000 A 
ATOM      5  N   UNL     1       1.382   4.973  18.355  0.00  0.00    +0.000 NA
ATOM      6  C   UNL     1       1.854   3.716  18.417  0.00  0.00    +0.000 A 
ATOM      7  C   UNL     1       3.152   3.325  18.180  0.00  0.00    +0.000 A 
ATOM      8  C   UNL     1       4.107   4.272  17.824  0.00  0.00    +0.000 A 
ATOM      9  C   UNL     1       5.452   3.955  17.564  0.00  0.00    +0.000 A 
ATOM     10  C   UNL     1       6.355   4.935  17.136  0.00  0.00    +0.000 A 
ATOM     11  C   UNL     1       3.200   1.872  18.320  0.00  0.00    +0.000 C 
ATOM     12  O   UNL     1       4.177   1.166  18.155  0.00  0.00    +0.000 OA
ATOM     13  N   UNL     1       1.945   1.465  18.639  0.00  0.00    +0.000 N 
ATOM     14  C   UNL     1       1.065   2.506  18.699  0.00  0.00    +0.000 C 
ATOM     15  O   UNL     1      -0.126   2.432  18.919  0.00  0.00    +0.000 OA
ATOM     16  H   UNL     1       1.678   0.501  18.761  0.00  0.00    +0.000 HD
ENDROOT
BRANCH   1  18
ATOM     17  C   UNL     1       7.465   7.947  17.568  0.00  0.00    +0.000 C 
ATOM     18  O   UNL     1       6.676   7.318  16.561  0.00  0.00    +0.000 OA
ENDBRANCH   1  18
BRANCH  10  19
ATOM     19  O   UNL     1       7.678   4.650  16.934  0.00  0.00    +0.000 OA
ATOM     20  C   UNL     1       8.446   4.411  18.111  0.00  0.00    +0.000 C 
ENDBRANCH  10  19
TORSDOF 2
ENDMDL
MODEL 5
REMARK VINA RESULT:      -6.5      3.136      3.822
REMARK  Name = 
REMARK  4 active torsions:
REMARK  status: ('A' for Active; 'I' for Inactive)
REMARK    1  A    between atoms: C_1  and  O_2
REMARK    2  A    between atoms: O_2  and  C_3
REMARK    3  A    between atoms: C_12  and  O_13
REMARK    4  A    between atoms: O_13  and  C_14
REMARK                            x       y       z     vdW  Elec       q    Type
REMARK                         _______ _______ _______ _____ _____    ______ ____
ROOT
ATOM      1  C   UNL     1       1.833   6.471  20.186  0.00  0.00    +0.000 A 
ATOM      2  C   UNL     1       2.504   7.277  19.251  0.00  0.00    +0.000 A 
ATOM      3  C   UNL     1       3.325   6.709  18.261  0.00  0.00    +0.000 A 
ATOM      4  C   UNL     1       4.059   7.479  17.329  0.00  0.00    +0.000 A 
ATOM      5  N   UNL     1       4.899   6.976  16.389  0.00  0.00    +0.000 NA
ATOM      6  C   UNL     1       4.985   5.635  16.398  0.00  0.00    +0.000 A 
ATOM      7  C   UNL     1       4.306   4.783  17.238  0.00  0.00    +0.000 A 
ATOM      8  C   UNL     1       3.445   5.301  18.201  0.00  0.00    +0.000 A 
ATOM      9  C   UNL     1       2.716   4.501  19.097  0.00  0.00    +0.000 A 
ATOM     10  C   UNL     1       1.921   5.075  20.095  0.00  0.00    +0.000 A 
ATOM     11  C   UNL     1       4.736   3.424  16.919  0.00  0.00    +0.000 C 
ATOM     12  O   UNL     1       4.371   2.407  17.476  0.00  0.00    +0.000 OA
ATOM     13  N   UNL     1       5.638   3.522  15.909  0.00  0.00    +0.000 N 
ATOM     14  C   UNL     1       5.864   4.818  15.545  0.00  0.00    +0.000 C 
ATOM     15  O   UNL     1       6.649   5.203  14.703  0.00  0.00    +0.000 OA
ATOM     16  H   UNL     1       6.128   2.737  15.512  0.00  0.00    +0.000 HD
ENDROOT
BRANCH   1  18
ATOM     17  C   UNL     1       1.114   8.591  20.948  0.00  0.00    +0.000 C 
ATOM     18  O   UNL     1       1.114   7.175  21.119  0.00  0.00    +0.000 OA
ENDBRANCH   1  18
BRANCH  10  19
ATOM     19  O   UNL     1       1.164   4.307  20.937  0.00  0.00    +0.000 OA
ATOM     20  C   UNL     1       1.606   2.963  21.114  0.00  0.00    +0.000 C 
ENDBRANCH  10  19
TORSDOF 2
ENDMDL
MODEL 6
REMARK VINA RESULT:      -6.5      3.805      4.344
REMARK  Name = 
REMARK  4 active torsions:
REMARK  status: ('A' for Active; 'I' for Inactive)
REMARK    1  A    between atoms: C_1  and  O_2
REMARK    2  A    between atoms: O_2  and  C_3
REMARK    3  A    between atoms: C_12  and  O_13
REMARK    4  A    between atoms: O_13  and  C_14
REMARK                            x       y       z     vdW  Elec       q    Type
REMARK                         _______ _______ _______ _____ _____    ______ ____
ROOT
ATOM      1  C   UNL     1       3.488   3.468  19.802  0.00  0.00    +0.000 A 
ATOM      2  C   UNL     1       3.898   4.261  18.717  0.00  0.00    +0.000 A 
ATOM      3  C   UNL     1       3.475   5.596  18.594  0.00  0.00    +0.000 A 
ATOM      4  C   UNL     1       3.822   6.419  17.498  0.00  0.00    +0.000 A 
ATOM      5  N   UNL     1       3.398   7.695  17.314  0.00  0.00    +0.000 NA
ATOM      6  C   UNL     1       2.597   8.149  18.293  0.00  0.00    +0.000 A 
ATOM      7  C   UNL     1       2.211   7.452  19.415  0.00  0.00    +0.000 A 
ATOM      8  C   UNL     1       2.647   6.144  19.601  0.00  0.00    +0.000 A 
ATOM      9  C   UNL     1       2.297   5.363  20.716  0.00  0.00    +0.000 A 
ATOM     10  C   UNL     1       2.702   4.028  20.818  0.00  0.00    +0.000 A 
ATOM     11  C   UNL     1       1.314   8.317  20.176  0.00  0.00    +0.000 C 
ATOM     12  O   UNL     1       0.750   8.030  21.214  0.00  0.00    +0.000 OA
ATOM     13  N   UNL     1       1.211   9.482  19.488  0.00  0.00    +0.000 N 
ATOM     14  C   UNL     1       1.934   9.463  18.331  0.00  0.00    +0.000 C 
ATOM     15  O   UNL     1       1.992  10.347  17.502  0.00  0.00    +0.000 OA
ATOM     16  H   UNL     1       0.623  10.252  19.766  0.00  0.00    +0.000 HD
ENDROOT
BRANCH   1  18
ATOM     17  C   UNL     1       3.601   1.452  18.570  0.00  0.00    +0.000 C 
ATOM     18  O   UNL     1       3.941   2.173  19.753  0.00  0.00    +0.000 OA
ENDBRANCH   1  18
BRANCH  10  19
ATOM     19  O   UNL     1       2.415   3.275  21.925  0.00  0.00    +0.000 OA
ATOM     20  C   UNL     1       1.261   2.443  21.824  0.00  0.00    +0.000 C 
ENDBRANCH  10  19
TORSDOF 2
ENDMDL
MODEL 7
REMARK VINA RESULT:      -6.4      2.299      5.589
REMARK  Name = 
REMARK  4 active torsions:
REMARK  status: ('A' for Active; 'I' for Inactive)
REMARK    1  A    between atoms: C_1  and  O_2
REMARK    2  A    between atoms: O_2  and  C_3
REMARK    3  A    between atoms: C_12  and  O_13
REMARK    4  A    between atoms: O_13  and  C_14
REMARK                            x       y       z     vdW  Elec       q    Type
REMARK                         _______ _______ _______ _____ _____    ______ ____
ROOT
ATOM      1  C   UNL     1       6.392   6.400  17.556  0.00  0.00    +0.000 A 
ATOM      2  C   UNL     1       5.022   6.575  17.301  0.00  0.00    +0.000 A 
ATOM      3  C   UNL     1       4.065   5.702  17.846  0.00  0.00    +0.000 A 
ATOM      4  C   UNL     1       2.680   5.808  17.579  0.00  0.00    +0.000 A 
ATOM      5  N   UNL     1       1.728   4.960  18.044  0.00  0.00    +0.000 NA
ATOM      6  C   UNL     1       2.209   3.971  18.817  0.00  0.00    +0.000 A 
ATOM      7  C   UNL     1       3.527   3.780  19.163  0.00  0.00    +0.000 A 
ATOM      8  C   UNL     1       4.502   4.651  18.685  0.00  0.00    +0.000 A 
ATOM      9  C   UNL     1       5.868   4.525  18.990  0.00  0.00    +0.000 A 
ATOM     10  C   UNL     1       6.816   5.384  18.423  0.00  0.00    +0.000 A 
ATOM     11  C   UNL     1       3.591   2.569  19.976  0.00  0.00    +0.000 C 
ATOM     12  O   UNL     1       4.598   2.068  20.440  0.00  0.00    +0.000 OA
ATOM     13  N   UNL     1       2.322   2.099  20.085  0.00  0.00    +0.000 N 
ATOM     14  C   UNL     1       1.427   2.870  19.402  0.00  0.00    +0.000 C 
ATOM     15  O   UNL     1       0.236   2.664  19.290  0.00  0.00    +0.000 OA
ATOM     16  H   UNL     1       2.074   1.248  20.565  0.00  0.00    +0.000 HD
ENDROOT
BRANCH   1  18
ATOM     17  C   UNL     1       7.692   8.369  17.721  0.00  0.00    +0.000 C 
ATOM     18  O   UNL     1       7.203   7.302  16.912  0.00  0.00    +0.000 OA
ENDBRANCH   1  18
BRANCH  10  19
ATOM     19  O   UNL     1       8.141   5.306  18.755  0.00  0.00    +0.000 OA
ATOM     20  C   UNL     1       8.438   5.423  20.145  0.00  0.00    +0.000 C 
ENDBRANCH  10  19
TORSDOF 2
ENDMDL
MODEL 8
REMARK VINA RESULT:      -6.4      4.867      5.242
REMARK  Name = 
REMARK  4 active torsions:
REMARK  status: ('A' for Active; 'I' for Inactive)
REMARK    1  A    between atoms: C_1  and  O_2
REMARK    2  A    between atoms: O_2  and  C_3
REMARK    3  A    between atoms: C_12  and  O_13
REMARK    4  A    between atoms: O_13  and  C_14
REMARK                            x       y       z     vdW  Elec       q    Type
REMARK                         _______ _______ _______ _____ _____    ______ ____
ROOT
ATOM      1  C   UNL     1       3.079   4.636  19.171  0.00  0.00    +0.000 A 
ATOM      2  C   UNL     1       3.229   5.667  18.228  0.00  0.00    +0.000 A 
ATOM      3  C   UNL     1       2.682   6.942  18.454  0.00  0.00    +0.000 A 
ATOM      4  C   UNL     1       2.765   7.996  17.516  0.00  0.00    +0.000 A 
ATOM      5  N   UNL     1       2.212   9.226  17.671  0.00  0.00    +0.000 NA
ATOM      6  C   UNL     1       1.557   9.385  18.834  0.00  0.00    +0.000 A 
ATOM      7  C   UNL     1       1.430   8.444  19.830  0.00  0.00    +0.000 A 
ATOM      8  C   UNL     1       1.998   7.183  19.667  0.00  0.00    +0.000 A 
ATOM      9  C   UNL     1       1.912   6.166  20.634  0.00  0.00    +0.000 A 
ATOM     10  C   UNL     1       2.437   4.893  20.390  0.00  0.00    +0.000 A 
ATOM     11  C   UNL     1       0.608   9.034  20.883  0.00  0.00    +0.000 C 
ATOM     12  O   UNL     1       0.258   8.487  21.911  0.00  0.00    +0.000 OA
ATOM     13  N   UNL     1       0.292  10.291  20.479  0.00  0.00    +0.000 N 
ATOM     14  C   UNL     1       0.804  10.580  19.248  0.00  0.00    +0.000 C 
ATOM     15  O   UNL     1       0.645  11.609  18.625  0.00  0.00    +0.000 OA
ATOM     16  H   UNL     1      -0.301  10.918  20.999  0.00  0.00    +0.000 HD
ENDROOT
BRANCH   1  18
ATOM     17  C   UNL     1       2.876   2.717  17.804  0.00  0.00    +0.000 C 
ATOM     18  O   UNL     1       3.623   3.436  18.782  0.00  0.00    +0.000 OA
ENDBRANCH   1  18
BRANCH  10  19
ATOM     19  O   UNL     1       2.408   3.912  21.344  0.00  0.00    +0.000 OA
ATOM     20  C   UNL     1       1.317   2.998  21.258  0.00  0.00    +0.000 C 
ENDBRANCH  10  19
TORSDOF 2
ENDMDL
MODEL 9
REMARK VINA RESULT:      -6.4      2.628      5.549
REMARK  Name = 
REMARK  4 active torsions:
REMARK  status: ('A' for Active; 'I' for Inactive)
REMARK    1  A    between atoms: C_1  and  O_2
REMARK    2  A    between atoms: O_2  and  C_3
REMARK    3  A    between atoms: C_12  and  O_13
REMARK    4  A    between atoms: O_13  and  C_14
REMARK                            x       y       z     vdW  Elec       q    Type
REMARK                         _______ _______ _______ _____ _____    ______ ____
ROOT
ATOM      1  C   UNL     1       6.554   4.625  16.665  0.00  0.00    +0.000 A 
ATOM      2  C   UNL     1       5.278   4.458  16.100  0.00  0.00    +0.000 A 
ATOM      3  C   UNL     1       4.195   4.008  16.875  0.00  0.00    +0.000 A 
ATOM      4  C   UNL     1       2.906   3.780  16.342  0.00  0.00    +0.000 A 
ATOM      5  N   UNL     1       1.845   3.301  17.041  0.00  0.00    +0.000 NA
ATOM      6  C   UNL     1       2.112   3.055  18.335  0.00  0.00    +0.000 A 
ATOM      7  C   UNL     1       3.317   3.259  18.969  0.00  0.00    +0.000 A 
ATOM      8  C   UNL     1       4.402   3.750  18.249  0.00  0.00    +0.000 A 
ATOM      9  C   UNL     1       5.665   3.985  18.820  0.00  0.00    +0.000 A 
ATOM     10  C   UNL     1       6.744   4.409  18.036  0.00  0.00    +0.000 A 
ATOM     11  C   UNL     1       3.159   2.819  20.352  0.00  0.00    +0.000 C 
ATOM     12  O   UNL     1       4.023   2.821  21.208  0.00  0.00    +0.000 OA
ATOM     13  N   UNL     1       1.881   2.384  20.485  0.00  0.00    +0.000 N 
ATOM     14  C   UNL     1       1.183   2.470  19.316  0.00  0.00    +0.000 C 
ATOM     15  O   UNL     1       0.037   2.114  19.132  0.00  0.00    +0.000 OA
ATOM     16  H   UNL     1       1.504   1.987  21.332  0.00  0.00    +0.000 HD
ENDROOT
BRANCH   1  18
ATOM     17  C   UNL     1       7.126   4.984  14.398  0.00  0.00    +0.000 C 
ATOM     18  O   UNL     1       7.517   5.020  15.769  0.00  0.00    +0.000 OA
ENDBRANCH   1  18
BRANCH  10  19
ATOM     19  O   UNL     1       7.963   4.693  18.590  0.00  0.00    +0.000 OA
ATOM     20  C   UNL     1       8.007   5.846  19.428  0.00  0.00    +0.000 C 
ENDBRANCH  10  19
TORSDOF 2
ENDMDL
