MODEL 1
REMARK VINA RESULT:      -7.4      0.000      0.000
REMARK  Name = 
REMARK  3 active torsions:
REMARK  status: ('A' for Active; 'I' for Inactive)
REMARK    1  A    between atoms: C_1  and  C_2
REMARK    2  A    between atoms: C_6  and  N_7
REMARK    3  A    between atoms: C_9  and  C_10
REMARK                            x       y       z     vdW  Elec       q    Type
REMARK                         _______ _______ _______ _____ _____    ______ ____
ROOT
ATOM      1  N   UNL     1      -0.805  10.857  19.906  0.00  0.00    +0.000 N 
ATOM      2  C   UNL     1      -0.854  11.379  21.190  0.00  0.00    +0.000 A 
ATOM      3  C   UNL     1      -1.963  12.180  21.351  0.00  0.00    +0.000 A 
ATOM      4  C   UNL     1      -2.656  12.134  20.109  0.00  0.00    +0.000 A 
ATOM      5  C   UNL     1      -3.871  12.830  19.698  0.00  0.00    +0.000 A 
ATOM      6  O   UNL     1      -4.450  13.673  20.378  0.00  0.00    +0.000 OA
ATOM      7  O   UNL     1      -4.372  12.498  18.432  0.00  0.00    +0.000 OA
ATOM      8  C   UNL     1      -3.758  11.539  17.591  0.00  0.00    +0.000 A 
ATOM      9  C   UNL     1      -4.431  11.299  16.389  0.00  0.00    +0.000 A 
ATOM     10  C   UNL     1      -3.913  10.371  15.498  0.00  0.00    +0.000 A 
ATOM     11  C   UNL     1      -2.773   9.656  15.848  0.00  0.00    +0.000 A 
ATOM     12  C   UNL     1      -2.145   9.868  17.088  0.00  0.00    +0.000 A 
ATOM     13  C   UNL     1      -2.578  10.868  17.960  0.00  0.00    +0.000 A 
ATOM     14  C   UNL     1      -1.978  11.255  19.252  0.00  0.00    +0.000 A 
ENDROOT
BRANCH   1  20
ATOM     15  C   UNL     1       2.052   6.828  20.431  0.00  0.00    +0.000 C 
ATOM     16  C   UNL     1       1.701   8.080  19.683  0.00  0.00    +0.000 A 
ATOM     17  C   UNL     1       2.416   8.464  18.546  0.00  0.00    +0.000 A 
ATOM     18  C   UNL     1       2.127   9.670  17.909  0.00  0.00    +0.000 A 
ATOM     19  C   UNL     1       1.104  10.496  18.385  0.00  0.00    +0.000 A 
ATOM     20  C   UNL     1       0.309  10.081  19.455  0.00  0.00    +0.000 A 
ATOM     21  C   UNL     1       0.644   8.892  20.126  0.00  0.00    +0.000 A 
ENDBRANCH   1  20
BRANCH   3  22
ATOM     22  C   UNL     1      -2.264  12.832  22.621  0.00  0.00    +0.000 A 
ATOM     23  C   UNL     1      -3.398  12.460  23.376  0.00  0.00    +0.000 A 
ATOM     24  C   UNL     1      -3.722  13.136  24.558  0.00  0.00    +0.000 A 
ATOM     25  C   UNL     1      -2.919  14.176  25.014  0.00  0.00    +0.000 A 
ATOM     26  C   UNL     1      -1.790  14.546  24.289  0.00  0.00    +0.000 A 
ATOM     27  C   UNL     1      -1.476  13.885  23.097  0.00  0.00    +0.000 A 
ENDBRANCH   3  22
TORSDOF 2
ENDMDL
MODEL 2
REMARK VINA RESULT:      -7.2      1.051      1.406
REMARK  Name = 
REMARK  3 active torsions:
REMARK  status: ('A' for Active; 'I' for Inactive)
REMARK    1  A    between atoms: C_1  and  C_2
REMARK    2  A    between atoms: C_6  and  N_7
REMARK    3  A    between atoms: C_9  and  C_10
REMARK                            x       y       z     vdW  Elec       q    Type
REMARK                         _______ _______ _______ _____ _____    ______ ____
ROOT
ATOM      1  N   UNL     1      -0.924  11.985  19.685  0.00  0.00    +0.000 N 
ATOM      2  C   UNL     1      -1.023  12.393  21.006  0.00  0.00    +0.000 A 
ATOM      3  C   UNL     1      -2.322  12.721  21.322  0.00  0.00    +0.000 A 
ATOM      4  C   UNL     1      -3.079  12.480  20.142  0.00  0.00    +0.000 A 
ATOM      5  C   UNL     1      -4.500  12.697  19.890  0.00  0.00    +0.000 A 
ATOM      6  O   UNL     1      -5.269  13.237  20.681  0.00  0.00    +0.000 OA
ATOM      7  O   UNL     1      -4.978  12.262  18.646  0.00  0.00    +0.000 OA
ATOM      8  C   UNL     1      -4.152  11.636  17.682  0.00  0.00    +0.000 A 
ATOM      9  C   UNL     1      -4.815  11.220  16.525  0.00  0.00    +0.000 A 
ATOM     10  C   UNL     1      -4.094  10.590  15.521  0.00  0.00    +0.000 A 
ATOM     11  C   UNL     1      -2.743  10.330  15.718  0.00  0.00    +0.000 A 
ATOM     12  C   UNL     1      -2.106  10.701  16.915  0.00  0.00    +0.000 A 
ATOM     13  C   UNL     1      -2.777  11.431  17.898  0.00  0.00    +0.000 A 
ATOM     14  C   UNL     1      -2.224  11.952  19.164  0.00  0.00    +0.000 A 
ENDROOT
BRANCH   1  20
ATOM     15  C   UNL     1       2.238   8.614  17.869  0.00  0.00    +0.000 C 
ATOM     16  C   UNL     1       1.891  10.045  18.151  0.00  0.00    +0.000 A 
ATOM     17  C   UNL     1       2.761  11.080  17.801  0.00  0.00    +0.000 A 
ATOM     18  C   UNL     1       2.458  12.398  18.142  0.00  0.00    +0.000 A 
ATOM     19  C   UNL     1       1.271  12.701  18.816  0.00  0.00    +0.000 A 
ATOM     20  C   UNL     1       0.340  11.695  19.082  0.00  0.00    +0.000 A 
ATOM     21  C   UNL     1       0.679  10.363  18.786  0.00  0.00    +0.000 A 
ENDBRANCH   1  20
BRANCH   3  22
ATOM     22  C   UNL     1      -2.702  13.158  22.662  0.00  0.00    +0.000 A 
ATOM     23  C   UNL     1      -3.536  12.359  23.475  0.00  0.00    +0.000 A 
ATOM     24  C   UNL     1      -3.955  12.814  24.731  0.00  0.00    +0.000 A 
ATOM     25  C   UNL     1      -3.542  14.056  25.202  0.00  0.00    +0.000 A 
ATOM     26  C   UNL     1      -2.710  14.850  24.418  0.00  0.00    +0.000 A 
ATOM     27  C   UNL     1      -2.306  14.406  23.155  0.00  0.00    +0.000 A 
ENDBRANCH   3  22
TORSDOF 2
ENDMDL
MODEL 3
REMARK VINA RESULT:      -7.1      2.990      7.011
REMARK  Name = 
REMARK  3 active torsions:
REMARK  status: ('A' for Active; 'I' for Inactive)
REMARK    1  A    between atoms: C_1  and  C_2
REMARK    2  A    between atoms: C_6  and  N_7
REMARK    3  A    between atoms: C_9  and  C_10
REMARK                            x       y       z     vdW  Elec       q    Type
REMARK                         _______ _______ _______ _____ _____    ______ ____
ROOT
ATOM      1  N   UNL     1      -1.202  12.121  20.311  0.00  0.00    +0.000 N 
ATOM      2  C   UNL     1      -0.732  10.823  20.189  0.00  0.00    +0.000 A 
ATOM      3  C   UNL     1       0.467  10.797  19.512  0.00  0.00    +0.000 A 
ATOM      4  C   UNL     1       0.774  12.155  19.220  0.00  0.00    +0.000 A 
ATOM      5  C   UNL     1       1.902  12.713  18.481  0.00  0.00    +0.000 A 
ATOM      6  O   UNL     1       2.746  12.041  17.894  0.00  0.00    +0.000 OA
ATOM      7  O   UNL     1       1.985  14.112  18.448  0.00  0.00    +0.000 OA
ATOM      8  C   UNL     1       1.048  14.952  19.096  0.00  0.00    +0.000 A 
ATOM      9  C   UNL     1       1.323  16.318  19.000  0.00  0.00    +0.000 A 
ATOM     10  C   UNL     1       0.467  17.225  19.608  0.00  0.00    +0.000 A 
ATOM     11  C   UNL     1      -0.608  16.751  20.351  0.00  0.00    +0.000 A 
ATOM     12  C   UNL     1      -0.833  15.369  20.486  0.00  0.00    +0.000 A 
ATOM     13  C   UNL     1      -0.055  14.436  19.800  0.00  0.00    +0.000 A 
ATOM     14  C   UNL     1      -0.218  12.969  19.785  0.00  0.00    +0.000 A 
ENDROOT
BRANCH   1  20
ATOM     15  C   UNL     1      -4.029  12.631  24.363  0.00  0.00    +0.000 C 
ATOM     16  C   UNL     1      -3.877  12.694  22.872  0.00  0.00    +0.000 A 
ATOM     17  C   UNL     1      -4.949  13.058  22.053  0.00  0.00    +0.000 A 
ATOM     18  C   UNL     1      -4.811  13.035  20.666  0.00  0.00    +0.000 A 
ATOM     19  C   UNL     1      -3.596  12.670  20.079  0.00  0.00    +0.000 A 
ATOM     20  C   UNL     1      -2.484  12.405  20.880  0.00  0.00    +0.000 A 
ATOM     21  C   UNL     1      -2.646  12.375  22.276  0.00  0.00    +0.000 A 
ENDBRANCH   1  20
BRANCH   3  22
ATOM     22  C   UNL     1       1.188   9.552  19.270  0.00  0.00    +0.000 A 
ATOM     23  C   UNL     1       1.609   9.199  17.969  0.00  0.00    +0.000 A 
ATOM     24  C   UNL     1       2.238   7.971  17.732  0.00  0.00    +0.000 A 
ATOM     25  C   UNL     1       2.470   7.086  18.780  0.00  0.00    +0.000 A 
ATOM     26  C   UNL     1       2.073   7.425  20.070  0.00  0.00    +0.000 A 
ATOM     27  C   UNL     1       1.427   8.642  20.307  0.00  0.00    +0.000 A 
ENDBRANCH   3  22
TORSDOF 2
ENDMDL
MODEL 4
REMARK VINA RESULT:      -7.1      4.552      8.239
REMARK  Name = 
REMARK  3 active torsions:
REMARK  status: ('A' for Active; 'I' for Inactive)
REMARK    1  A    between atoms: C_1  and  C_2
REMARK    2  A    between atoms: C_6  and  N_7
REMARK    3  A    between atoms: C_9  and  C_10
REMARK                            x       y       z     vdW  Elec       q    Type
REMARK                         _______ _______ _______ _____ _____    ______ ____
ROOT
ATOM      1  N   UNL     1       3.943   6.344  18.099  0.00  0.00    +0.000 N 
ATOM      2  C   UNL     1       3.378   7.610  18.059  0.00  0.00    +0.000 A 
ATOM      3  C   UNL     1       2.304   7.694  18.918  0.00  0.00    +0.000 A 
ATOM      4  C   UNL     1       2.212   6.421  19.546  0.00  0.00    +0.000 A 
ATOM      5  C   UNL     1       1.233   5.932  20.512  0.00  0.00    +0.000 A 
ATOM      6  O   UNL     1       0.240   6.559  20.870  0.00  0.00    +0.000 OA
ATOM      7  O   UNL     1       1.468   4.651  21.031  0.00  0.00    +0.000 OA
ATOM      8  C   UNL     1       2.588   3.867  20.663  0.00  0.00    +0.000 A 
ATOM      9  C   UNL     1       2.686   2.641  21.326  0.00  0.00    +0.000 A 
ATOM     10  C   UNL     1       3.752   1.801  21.040  0.00  0.00    +0.000 A 
ATOM     11  C   UNL     1       4.732   2.226  20.150  0.00  0.00    +0.000 A 
ATOM     12  C   UNL     1       4.647   3.490  19.540  0.00  0.00    +0.000 A 
ATOM     13  C   UNL     1       3.535   4.312  19.723  0.00  0.00    +0.000 A 
ATOM     14  C   UNL     1       3.273   5.623  19.095  0.00  0.00    +0.000 A 
ENDROOT
BRANCH   1  20
ATOM     15  C   UNL     1       5.407   3.993  13.976  0.00  0.00    +0.000 C 
ATOM     16  C   UNL     1       5.731   4.845  15.168  0.00  0.00    +0.000 A 
ATOM     17  C   UNL     1       7.033   5.299  15.395  0.00  0.00    +0.000 A 
ATOM     18  C   UNL     1       7.332   6.023  16.549  0.00  0.00    +0.000 A 
ATOM     19  C   UNL     1       6.330   6.323  17.477  0.00  0.00    +0.000 A 
ATOM     20  C   UNL     1       5.005   5.970  17.217  0.00  0.00    +0.000 A 
ATOM     21  C   UNL     1       4.722   5.191  16.081  0.00  0.00    +0.000 A 
ENDBRANCH   1  20
BRANCH   3  22
ATOM     22  C   UNL     1       1.547   8.930  19.084  0.00  0.00    +0.000 A 
ATOM     23  C   UNL     1       1.437   9.548  20.350  0.00  0.00    +0.000 A 
ATOM     24  C   UNL     1       0.651  10.694  20.518  0.00  0.00    +0.000 A 
ATOM     25  C   UNL     1      -0.021  11.250  19.435  0.00  0.00    +0.000 A 
ATOM     26  C   UNL     1       0.088  10.661  18.178  0.00  0.00    +0.000 A 
ATOM     27  C   UNL     1       0.856   9.505  18.012  0.00  0.00    +0.000 A 
ENDBRANCH   3  22
TORSDOF 2
ENDMDL
MODEL 5
REMARK VINA RESULT:      -7.0      3.090      6.997
REMARK  Name = 
REMARK  3 active torsions:
REMARK  status: ('A' for Active; 'I' for Inactive)
REMARK    1  A    between atoms: C_1  and  C_2
REMARK    2  A    between atoms: C_6  and  N_7
REMARK    3  A    between atoms: C_9  and  C_10
REMARK                            x       y       z     vdW  Elec       q    Type
REMARK                         _______ _______ _______ _____ _____    ______ ____
ROOT
ATOM      1  N   UNL     1      -1.565  12.053  19.553  0.00  0.00    +0.000 N 
ATOM      2  C   UNL     1      -1.034  10.773  19.529  0.00  0.00    +0.000 A 
ATOM      3  C   UNL     1       0.284  10.797  19.132  0.00  0.00    +0.000 A 
ATOM      4  C   UNL     1       0.600  12.167  18.922  0.00  0.00    +0.000 A 
ATOM      5  C   UNL     1       1.841  12.773  18.451  0.00  0.00    +0.000 A 
ATOM      6  O   UNL     1       2.817  12.137  18.061  0.00  0.00    +0.000 OA
ATOM      7  O   UNL     1       1.879  14.174  18.445  0.00  0.00    +0.000 OA
ATOM      8  C   UNL     1       0.793  14.974  18.876  0.00  0.00    +0.000 A 
ATOM      9  C   UNL     1       1.035  16.350  18.850  0.00  0.00    +0.000 A 
ATOM     10  C   UNL     1       0.034  17.219  19.260  0.00  0.00    +0.000 A 
ATOM     11  C   UNL     1      -1.160  16.699  19.746  0.00  0.00    +0.000 A 
ATOM     12  C   UNL     1      -1.360  15.309  19.821  0.00  0.00    +0.000 A 
ATOM     13  C   UNL     1      -0.418  14.412  19.318  0.00  0.00    +0.000 A 
ATOM     14  C   UNL     1      -0.521  12.940  19.260  0.00  0.00    +0.000 A 
ENDROOT
BRANCH   1  20
ATOM     15  C   UNL     1      -6.281  11.917  18.000  0.00  0.00    +0.000 C 
ATOM     16  C   UNL     1      -5.280  12.188  19.084  0.00  0.00    +0.000 A 
ATOM     17  C   UNL     1      -5.688  12.620  20.349  0.00  0.00    +0.000 A 
ATOM     18  C   UNL     1      -4.740  12.942  21.319  0.00  0.00    +0.000 A 
ATOM     19  C   UNL     1      -3.374  12.815  21.047  0.00  0.00    +0.000 A 
ATOM     20  C   UNL     1      -2.950  12.286  19.827  0.00  0.00    +0.000 A 
ATOM     21  C   UNL     1      -3.909  12.017  18.835  0.00  0.00    +0.000 A 
ENDBRANCH   1  20
BRANCH   3  22
ATOM     22  C   UNL     1       1.085   9.579  19.048  0.00  0.00    +0.000 A 
ATOM     23  C   UNL     1       1.614   9.144  17.814  0.00  0.00    +0.000 A 
ATOM     24  C   UNL     1       2.321   7.939  17.726  0.00  0.00    +0.000 A 
ATOM     25  C   UNL     1       2.526   7.160  18.861  0.00  0.00    +0.000 A 
ATOM     26  C   UNL     1       2.022   7.582  20.088  0.00  0.00    +0.000 A 
ATOM     27  C   UNL     1       1.298   8.776  20.174  0.00  0.00    +0.000 A 
ENDBRANCH   3  22
TORSDOF 2
ENDMDL
MODEL 6
REMARK VINA RESULT:      -7.0      2.248      3.183
REMARK  Name = 
REMARK  3 active torsions:
REMARK  status: ('A' for Active; 'I' for Inactive)
REMARK    1  A    between atoms: C_1  and  C_2
REMARK    2  A    between atoms: C_6  and  N_7
REMARK    3  A    between atoms: C_9  and  C_10
REMARK                            x       y       z     vdW  Elec       q    Type
REMARK                         _______ _______ _______ _____ _____    ______ ____
ROOT
ATOM      1  N   UNL     1      -2.774  12.283  20.537  0.00  0.00    +0.000 N 
ATOM      2  C   UNL     1      -3.550  12.710  21.605  0.00  0.00    +0.000 A 
ATOM      3  C   UNL     1      -4.854  12.912  21.212  0.00  0.00    +0.000 A 
ATOM      4  C   UNL     1      -4.901  12.567  19.833  0.00  0.00    +0.000 A 
ATOM      5  C   UNL     1      -6.018  12.632  18.896  0.00  0.00    +0.000 A 
ATOM      6  O   UNL     1      -7.118  13.109  19.163  0.00  0.00    +0.000 OA
ATOM      7  O   UNL     1      -5.777  12.121  17.614  0.00  0.00    +0.000 OA
ATOM      8  C   UNL     1      -4.535  11.559  17.232  0.00  0.00    +0.000 A 
ATOM      9  C   UNL     1      -4.499  11.051  15.931  0.00  0.00    +0.000 A 
ATOM     10  C   UNL     1      -3.328  10.473  15.463  0.00  0.00    +0.000 A 
ATOM     11  C   UNL     1      -2.239  10.356  16.320  0.00  0.00    +0.000 A 
ATOM     12  C   UNL     1      -2.316  10.819  17.645  0.00  0.00    +0.000 A 
ATOM     13  C   UNL     1      -3.440  11.500  18.113  0.00  0.00    +0.000 A 
ATOM     14  C   UNL     1      -3.635  12.105  19.446  0.00  0.00    +0.000 A 
ENDROOT
BRANCH   1  20
ATOM     15  C   UNL     1       1.052   9.354  21.741  0.00  0.00    +0.000 C 
ATOM     16  C   UNL     1       0.534  10.661  21.217  0.00  0.00    +0.000 A 
ATOM     17  C   UNL     1       1.409  11.675  20.820  0.00  0.00    +0.000 A 
ATOM     18  C   UNL     1       0.911  12.911  20.410  0.00  0.00    +0.000 A 
ATOM     19  C   UNL     1      -0.468  13.142  20.369  0.00  0.00    +0.000 A 
ATOM     20  C   UNL     1      -1.360  12.109  20.661  0.00  0.00    +0.000 A 
ATOM     21  C   UNL     1      -0.850  10.885  21.128  0.00  0.00    +0.000 A 
ENDBRANCH   1  20
BRANCH   3  22
ATOM     22  C   UNL     1      -5.884  13.339  22.154  0.00  0.00    +0.000 A 
ATOM     23  C   UNL     1      -5.794  14.587  22.809  0.00  0.00    +0.000 A 
ATOM     24  C   UNL     1      -6.746  14.962  23.764  0.00  0.00    +0.000 A 
ATOM     25  C   UNL     1      -7.806  14.114  24.069  0.00  0.00    +0.000 A 
ATOM     26  C   UNL     1      -7.916  12.887  23.423  0.00  0.00    +0.000 A 
ATOM     27  C   UNL     1      -6.955  12.501  22.484  0.00  0.00    +0.000 A 
ENDBRANCH   3  22
TORSDOF 2
ENDMDL
MODEL 7
REMARK VINA RESULT:      -6.9      3.017      6.956
REMARK  Name = 
REMARK  3 active torsions:
REMARK  status: ('A' for Active; 'I' for Inactive)
REMARK    1  A    between atoms: C_1  and  C_2
REMARK    2  A    between atoms: C_6  and  N_7
REMARK    3  A    between atoms: C_9  and  C_10
REMARK                            x       y       z     vdW  Elec       q    Type
REMARK                         _______ _______ _______ _____ _____    ______ ____
ROOT
ATOM      1  N   UNL     1      -1.498  12.209  20.088  0.00  0.00    +0.000 N 
ATOM      2  C   UNL     1      -1.023  10.909  20.016  0.00  0.00    +0.000 A 
ATOM      3  C   UNL     1       0.214  10.872  19.412  0.00  0.00    +0.000 A 
ATOM      4  C   UNL     1       0.539  12.224  19.115  0.00  0.00    +0.000 A 
ATOM      5  C   UNL     1       1.709  12.770  18.434  0.00  0.00    +0.000 A 
ATOM      6  O   UNL     1       2.586  12.087  17.910  0.00  0.00    +0.000 OA
ATOM      7  O   UNL     1       1.795  14.168  18.381  0.00  0.00    +0.000 OA
ATOM      8  C   UNL     1       0.821  15.019  18.958  0.00  0.00    +0.000 A 
ATOM      9  C   UNL     1       1.103  16.383  18.855  0.00  0.00    +0.000 A 
ATOM     10  C   UNL     1       0.213  17.300  19.394  0.00  0.00    +0.000 A 
ATOM     11  C   UNL     1      -0.904  16.839  20.080  0.00  0.00    +0.000 A 
ATOM     12  C   UNL     1      -1.138  15.460  20.226  0.00  0.00    +0.000 A 
ATOM     13  C   UNL     1      -0.321  14.515  19.605  0.00  0.00    +0.000 A 
ATOM     14  C   UNL     1      -0.484  13.048  19.606  0.00  0.00    +0.000 A 
ENDROOT
BRANCH   1  20
ATOM     15  C   UNL     1      -4.500  13.065  23.951  0.00  0.00    +0.000 C 
ATOM     16  C   UNL     1      -4.292  12.961  22.469  0.00  0.00    +0.000 A 
ATOM     17  C   UNL     1      -5.344  13.183  21.576  0.00  0.00    +0.000 A 
ATOM     18  C   UNL     1      -5.151  13.005  20.207  0.00  0.00    +0.000 A 
ATOM     19  C   UNL     1      -3.900  12.626  19.710  0.00  0.00    +0.000 A 
ATOM     20  C   UNL     1      -2.811  12.502  20.574  0.00  0.00    +0.000 A 
ATOM     21  C   UNL     1      -3.027  12.627  21.958  0.00  0.00    +0.000 A 
ENDBRANCH   1  20
BRANCH   3  22
ATOM     22  C   UNL     1       0.947   9.622  19.235  0.00  0.00    +0.000 A 
ATOM     23  C   UNL     1       1.215   8.778  20.335  0.00  0.00    +0.000 A 
ATOM     24  C   UNL     1       1.980   7.616  20.173  0.00  0.00    +0.000 A 
ATOM     25  C   UNL     1       2.474   7.270  18.920  0.00  0.00    +0.000 A 
ATOM     26  C   UNL     1       2.208   8.085  17.823  0.00  0.00    +0.000 A 
ATOM     27  C   UNL     1       1.461   9.256  17.987  0.00  0.00    +0.000 A 
ENDBRANCH   3  22
TORSDOF 2
ENDMDL
MODEL 8
REMARK VINA RESULT:      -6.8      2.452      3.654
REMARK  Name = 
REMARK  3 active torsions:
REMARK  status: ('A' for Active; 'I' for Inactive)
REMARK    1  A    between atoms: C_1  and  C_2
REMARK    2  A    between atoms: C_6  and  N_7
REMARK    3  A    between atoms: C_9  and  C_10
REMARK                            x       y       z     vdW  Elec       q    Type
REMARK                         _______ _______ _______ _____ _____    ______ ____
ROOT
ATOM      1  N   UNL     1      -2.768  12.446  20.469  0.00  0.00    +0.000 N 
ATOM      2  C   UNL     1      -3.531  12.857  21.551  0.00  0.00    +0.000 A 
ATOM      3  C   UNL     1      -4.860  12.958  21.204  0.00  0.00    +0.000 A 
ATOM      4  C   UNL     1      -4.933  12.563  19.839  0.00  0.00    +0.000 A 
ATOM      5  C   UNL     1      -6.086  12.521  18.945  0.00  0.00    +0.000 A 
ATOM      6  O   UNL     1      -7.205  12.933  19.239  0.00  0.00    +0.000 OA
ATOM      7  O   UNL     1      -5.858  11.983  17.671  0.00  0.00    +0.000 OA
ATOM      8  C   UNL     1      -4.596  11.492  17.260  0.00  0.00    +0.000 A 
ATOM      9  C   UNL     1      -4.573  10.941  15.976  0.00  0.00    +0.000 A 
ATOM     10  C   UNL     1      -3.383  10.427  15.481  0.00  0.00    +0.000 A 
ATOM     11  C   UNL     1      -2.259  10.413  16.299  0.00  0.00    +0.000 A 
ATOM     12  C   UNL     1      -2.318  10.916  17.610  0.00  0.00    +0.000 A 
ATOM     13  C   UNL     1      -3.468  11.536  18.099  0.00  0.00    +0.000 A 
ATOM     14  C   UNL     1      -3.654  12.173  19.418  0.00  0.00    +0.000 A 
ENDROOT
BRANCH   1  20
ATOM     15  C   UNL     1       1.636  14.657  19.852  0.00  0.00    +0.000 C 
ATOM     16  C   UNL     1       0.833  13.464  20.277  0.00  0.00    +0.000 A 
ATOM     17  C   UNL     1       1.456  12.315  20.773  0.00  0.00    +0.000 A 
ATOM     18  C   UNL     1       0.699  11.188  21.089  0.00  0.00    +0.000 A 
ATOM     19  C   UNL     1      -0.691  11.200  20.936  0.00  0.00    +0.000 A 
ATOM     20  C   UNL     1      -1.342  12.371  20.543  0.00  0.00    +0.000 A 
ATOM     21  C   UNL     1      -0.568  13.484  20.172  0.00  0.00    +0.000 A 
ENDBRANCH   1  20
BRANCH   3  22
ATOM     22  C   UNL     1      -5.881  13.349  22.170  0.00  0.00    +0.000 A 
ATOM     23  C   UNL     1      -5.875  14.637  22.750  0.00  0.00    +0.000 A 
ATOM     24  C   UNL     1      -6.814  14.983  23.729  0.00  0.00    +0.000 A 
ATOM     25  C   UNL     1      -7.777  14.065  24.133  0.00  0.00    +0.000 A 
ATOM     26  C   UNL     1      -7.805  12.796  23.562  0.00  0.00    +0.000 A 
ATOM     27  C   UNL     1      -6.856  12.441  22.599  0.00  0.00    +0.000 A 
ENDBRANCH   3  22
TORSDOF 2
ENDMDL
MODEL 9
REMARK VINA RESULT:      -6.7      2.972      7.152
REMARK  Name = 
REMARK  3 active torsions:
REMARK  status: ('A' for Active; 'I' for Inactive)
REMARK    1  A    between atoms: C_1  and  C_2
REMARK    2  A    between atoms: C_6  and  N_7
REMARK    3  A    between atoms: C_9  and  C_10
REMARK                            x       y       z     vdW  Elec       q    Type
REMARK                         _______ _______ _______ _____ _____    ______ ____
ROOT
ATOM      1  N   UNL     1      -1.000  12.045  20.730  0.00  0.00    +0.000 N 
ATOM      2  C   UNL     1      -0.596  10.736  20.516  0.00  0.00    +0.000 A 
ATOM      3  C   UNL     1       0.525  10.693  19.718  0.00  0.00    +0.000 A 
ATOM      4  C   UNL     1       0.855  12.048  19.441  0.00  0.00    +0.000 A 
ATOM      5  C   UNL     1       1.922  12.594  18.609  0.00  0.00    +0.000 A 
ATOM      6  O   UNL     1       2.675  11.914  17.916  0.00  0.00    +0.000 OA
ATOM      7  O   UNL     1       2.056  13.989  18.614  0.00  0.00    +0.000 OA
ATOM      8  C   UNL     1       1.223  14.837  19.383  0.00  0.00    +0.000 A 
ATOM      9  C   UNL     1       1.541  16.195  19.305  0.00  0.00    +0.000 A 
ATOM     10  C   UNL     1       0.788  17.109  20.027  0.00  0.00    +0.000 A 
ATOM     11  C   UNL     1      -0.224  16.646  20.861  0.00  0.00    +0.000 A 
ATOM     12  C   UNL     1      -0.488  15.269  20.973  0.00  0.00    +0.000 A 
ATOM     13  C   UNL     1       0.179  14.335  20.180  0.00  0.00    +0.000 A 
ATOM     14  C   UNL     1      -0.042  12.876  20.133  0.00  0.00    +0.000 A 
ENDROOT
BRANCH   1  20
ATOM     15  C   UNL     1      -5.757  13.466  20.591  0.00  0.00    +0.000 C 
ATOM     16  C   UNL     1      -4.560  13.017  21.376  0.00  0.00    +0.000 A 
ATOM     17  C   UNL     1      -4.626  12.861  22.763  0.00  0.00    +0.000 A 
ATOM     18  C   UNL     1      -3.484  12.519  23.486  0.00  0.00    +0.000 A 
ATOM     19  C   UNL     1      -2.267  12.305  22.830  0.00  0.00    +0.000 A 
ATOM     20  C   UNL     1      -2.205  12.352  21.437  0.00  0.00    +0.000 A 
ATOM     21  C   UNL     1      -3.346  12.753  20.721  0.00  0.00    +0.000 A 
ENDBRANCH   1  20
BRANCH   3  22
ATOM     22  C   UNL     1       1.169   9.432  19.363  0.00  0.00    +0.000 A 
ATOM     23  C   UNL     1       1.452   8.460  20.347  0.00  0.00    +0.000 A 
ATOM     24  C   UNL     1       2.133   7.283  20.012  0.00  0.00    +0.000 A 
ATOM     25  C   UNL     1       2.527   7.049  18.699  0.00  0.00    +0.000 A 
ATOM     26  C   UNL     1       2.244   7.992  17.715  0.00  0.00    +0.000 A 
ATOM     27  C   UNL     1       1.582   9.177  18.050  0.00  0.00    +0.000 A 
ENDBRANCH   3  22
TORSDOF 2
ENDMDL
