MODEL 1
REMARK VINA RESULT:      -8.6      0.000      0.000
REMARK  Name = 
REMARK  6 active torsions:
REMARK  status: ('A' for Active; 'I' for Inactive)
REMARK    1  A    between atoms: S_2  and  N_4
REMARK    2  A    between atoms: S_2  and  C_14
REMARK    3  A    between atoms: C_17  and  N_18
REMARK    4  A    between atoms: N_18  and  C_19
REMARK    5  A    between atoms: C_19  and  C_20
REMARK    6  A    between atoms: C_26  and  O_27
REMARK                            x       y       z     vdW  Elec       q    Type
REMARK                         _______ _______ _______ _____ _____    ______ ____
ROOT
ATOM      1  C   UNL     1       1.575   7.569  20.388  0.00  0.00    +0.000 A 
ATOM      2  C   UNL     1       2.242   7.774  19.182  0.00  0.00    +0.000 A 
ATOM      3  C   UNL     1       2.814   6.687  18.520  0.00  0.00    +0.000 A 
ATOM      4  C   UNL     1       2.770   5.393  19.064  0.00  0.00    +0.000 A 
ATOM      5  C   UNL     1       2.058   5.208  20.258  0.00  0.00    +0.000 A 
ATOM      6  C   UNL     1       1.475   6.290  20.933  0.00  0.00    +0.000 A 
ENDROOT
BRANCH   1   8
ATOM      7  O   UNL     1       1.706   9.211  22.388  0.00  0.00    +0.000 OA
ATOM      8  S   UNL     1       0.883   8.979  21.220  0.00  0.00    +0.000 S 
ATOM      9  O   UNL     1      -0.545   8.771  21.316  0.00  0.00    +0.000 OA
BRANCH   8  10
ATOM     10  N   UNL     1       1.103  10.200  20.055  0.00  0.00    +0.000 N 
ATOM     11  C   UNL     1      -0.128  10.489  19.412  0.00  0.00    +0.000 A 
ATOM     12  N   UNL     1      -0.414   9.871  18.299  0.00  0.00    +0.000 NA
ATOM     13  C   UNL     1      -1.652  10.301  17.849  0.00  0.00    +0.000 A 
ATOM     14  C   UNL     1      -2.353   9.787  16.739  0.00  0.00    +0.000 A 
ATOM     15  C   UNL     1      -3.594  10.327  16.387  0.00  0.00    +0.000 A 
ATOM     16  C   UNL     1      -4.135  11.383  17.114  0.00  0.00    +0.000 A 
ATOM     17  C   UNL     1      -3.461  11.912  18.220  0.00  0.00    +0.000 A 
ATOM     18  C   UNL     1      -2.228  11.344  18.582  0.00  0.00    +0.000 A 
ATOM     19  S   UNL     1      -1.189  11.728  19.906  0.00  0.00    +0.000 S 
ATOM     20  H   UNL     1       1.682   9.750  19.343  0.00  0.00    +0.000 HD
ENDBRANCH   8  10
ENDBRANCH   1   8
BRANCH   4  21
ATOM     21  N   UNL     1       3.300   4.275  18.393  0.00  0.00    +0.000 N 
ATOM     22  H   UNL     1       2.810   3.425  18.658  0.00  0.00    +0.000 HD
BRANCH  21  23
ATOM     23  C   UNL     1       4.755   4.085  18.492  0.00  0.00    +0.000 C 
BRANCH  23  24
ATOM     24  C   UNL     1       5.451   4.315  17.167  0.00  0.00    +0.000 A 
ATOM     25  C   UNL     1       4.729   4.492  15.976  0.00  0.00    +0.000 A 
ATOM     26  C   UNL     1       5.391   4.724  14.767  0.00  0.00    +0.000 A 
ATOM     27  C   UNL     1       6.780   4.803  14.745  0.00  0.00    +0.000 A 
ATOM     28 BR   UNL     1       7.678   5.083  13.104  0.00  0.00    +0.000 Br
ATOM     29  C   UNL     1       7.517   4.683  15.921  0.00  0.00    +0.000 A 
ATOM     30  C   UNL     1       6.846   4.454  17.122  0.00  0.00    +0.000 A 
BRANCH  30  31
ATOM     31  O   UNL     1       7.554   4.375  18.290  0.00  0.00    +0.000 OA
ATOM     32  H   UNL     1       8.372   3.874  18.136  0.00  0.00    +0.000 HD
ENDBRANCH  30  31
ENDBRANCH  23  24
ENDBRANCH  21  23
ENDBRANCH   4  21
TORSDOF 6
ENDMDL
MODEL 2
REMARK VINA RESULT:      -8.5      6.428      8.878
REMARK  Name = 
REMARK  6 active torsions:
REMARK  status: ('A' for Active; 'I' for Inactive)
REMARK    1  A    between atoms: S_2  and  N_4
REMARK    2  A    between atoms: S_2  and  C_14
REMARK    3  A    between atoms: C_17  and  N_18
REMARK    4  A    between atoms: N_18  and  C_19
REMARK    5  A    between atoms: C_19  and  C_20
REMARK    6  A    between atoms: C_26  and  O_27
REMARK                            x       y       z     vdW  Elec       q    Type
REMARK                         _______ _______ _______ _____ _____    ______ ____
ROOT
ATOM      1  C   UNL     1       7.320   6.413  17.629  0.00  0.00    +0.000 A 
ATOM      2  C   UNL     1       8.046   6.393  18.819  0.00  0.00    +0.000 A 
ATOM      3  C   UNL     1       8.628   7.571  19.288  0.00  0.00    +0.000 A 
ATOM      4  C   UNL     1       8.535   8.772  18.566  0.00  0.00    +0.000 A 
ATOM      5  C   UNL     1       7.765   8.774  17.394  0.00  0.00    +0.000 A 
ATOM      6  C   UNL     1       7.171   7.598  16.910  0.00  0.00    +0.000 A 
ENDROOT
BRANCH   1   8
ATOM      7  O   UNL     1       6.509   4.019  18.195  0.00  0.00    +0.000 OA
ATOM      8  S   UNL     1       6.617   4.889  17.043  0.00  0.00    +0.000 S 
ATOM      9  O   UNL     1       7.345   4.504  15.854  0.00  0.00    +0.000 OA
BRANCH   8  10
ATOM     10  N   UNL     1       5.087   5.407  16.510  0.00  0.00    +0.000 N 
ATOM     11  C   UNL     1       4.082   4.969  17.411  0.00  0.00    +0.000 A 
ATOM     12  N   UNL     1       3.472   3.841  17.169  0.00  0.00    +0.000 NA
ATOM     13  C   UNL     1       2.538   3.610  18.167  0.00  0.00    +0.000 A 
ATOM     14  C   UNL     1       1.759   2.445  18.317  0.00  0.00    +0.000 A 
ATOM     15  C   UNL     1       0.840   2.351  19.367  0.00  0.00    +0.000 A 
ATOM     16  C   UNL     1       0.676   3.408  20.257  0.00  0.00    +0.000 A 
ATOM     17  C   UNL     1       1.438   4.575  20.133  0.00  0.00    +0.000 A 
ATOM     18  C   UNL     1       2.377   4.648  19.090  0.00  0.00    +0.000 A 
ATOM     19  S   UNL     1       3.490   5.910  18.703  0.00  0.00    +0.000 S 
ATOM     20  H   UNL     1       4.936   4.869  15.653  0.00  0.00    +0.000 HD
ENDBRANCH   8  10
ENDBRANCH   1   8
BRANCH   4  21
ATOM     21  N   UNL     1       9.074   9.981  19.042  0.00  0.00    +0.000 N 
ATOM     22  H   UNL     1       8.703  10.210  19.961  0.00  0.00    +0.000 HD
BRANCH  21  23
ATOM     23  C   UNL     1       8.976  11.139  18.141  0.00  0.00    +0.000 C 
BRANCH  23  24
ATOM     24  C   UNL     1       9.746  12.334  18.660  0.00  0.00    +0.000 A 
ATOM     25  C   UNL     1      10.825  12.187  19.547  0.00  0.00    +0.000 A 
ATOM     26  C   UNL     1      11.537  13.302  19.999  0.00  0.00    +0.000 A 
ATOM     27  C   UNL     1      11.188  14.572  19.548  0.00  0.00    +0.000 A 
ATOM     28 BR   UNL     1      12.128  16.084  20.185  0.00  0.00    +0.000 Br
ATOM     29  C   UNL     1      10.155  14.740  18.627  0.00  0.00    +0.000 A 
ATOM     30  C   UNL     1       9.454  13.620  18.183  0.00  0.00    +0.000 A 
BRANCH  30  31
ATOM     31  O   UNL     1       8.465  13.765  17.248  0.00  0.00    +0.000 OA
ATOM     32  H   UNL     1       7.665  14.110  17.679  0.00  0.00    +0.000 HD
ENDBRANCH  30  31
ENDBRANCH  23  24
ENDBRANCH  21  23
ENDBRANCH   4  21
TORSDOF 6
ENDMDL
MODEL 3
REMARK VINA RESULT:      -8.3      6.348      8.941
REMARK  Name = 
REMARK  6 active torsions:
REMARK  status: ('A' for Active; 'I' for Inactive)
REMARK    1  A    between atoms: S_2  and  N_4
REMARK    2  A    between atoms: S_2  and  C_14
REMARK    3  A    between atoms: C_17  and  N_18
REMARK    4  A    between atoms: N_18  and  C_19
REMARK    5  A    between atoms: C_19  and  C_20
REMARK    6  A    between atoms: C_26  and  O_27
REMARK                            x       y       z     vdW  Elec       q    Type
REMARK                         _______ _______ _______ _____ _____    ______ ____
ROOT
ATOM      1  C   UNL     1       6.909   6.233  17.240  0.00  0.00    +0.000 A 
ATOM      2  C   UNL     1       7.649   5.896  18.372  0.00  0.00    +0.000 A 
ATOM      3  C   UNL     1       8.360   6.888  19.048  0.00  0.00    +0.000 A 
ATOM      4  C   UNL     1       8.381   8.216  18.590  0.00  0.00    +0.000 A 
ATOM      5  C   UNL     1       7.596   8.535  17.473  0.00  0.00    +0.000 A 
ATOM      6  C   UNL     1       6.874   7.549  16.784  0.00  0.00    +0.000 A 
ENDROOT
BRANCH   1   8
ATOM      7  O   UNL     1       6.860   4.576  15.250  0.00  0.00    +0.000 OA
ATOM      8  S   UNL     1       6.039   4.940  16.385  0.00  0.00    +0.000 S 
ATOM      9  O   UNL     1       4.666   5.366  16.235  0.00  0.00    +0.000 OA
BRANCH   8  10
ATOM     10  N   UNL     1       6.024   3.709  17.559  0.00  0.00    +0.000 N 
ATOM     11  C   UNL     1       4.725   3.577  18.113  0.00  0.00    +0.000 A 
ATOM     12  N   UNL     1       4.440   4.233  19.204  0.00  0.00    +0.000 NA
ATOM     13  C   UNL     1       3.129   3.961  19.565  0.00  0.00    +0.000 A 
ATOM     14  C   UNL     1       2.420   4.564  20.623  0.00  0.00    +0.000 A 
ATOM     15  C   UNL     1       1.100   4.182  20.885  0.00  0.00    +0.000 A 
ATOM     16  C   UNL     1       0.487   3.197  20.119  0.00  0.00    +0.000 A 
ATOM     17  C   UNL     1       1.166   2.582  19.062  0.00  0.00    +0.000 A 
ATOM     18  C   UNL     1       2.483   2.993  18.790  0.00  0.00    +0.000 A 
ATOM     19  S   UNL     1       3.557   2.475  17.542  0.00  0.00    +0.000 S 
ATOM     20  H   UNL     1       6.603   4.089  18.312  0.00  0.00    +0.000 HD
ENDBRANCH   8  10
ENDBRANCH   1   8
BRANCH   4  21
ATOM     21  N   UNL     1       9.053   9.241  19.280  0.00  0.00    +0.000 N 
ATOM     22  H   UNL     1       8.567   9.482  20.140  0.00  0.00    +0.000 HD
BRANCH  21  23
ATOM     23  C   UNL     1       9.367  10.451  18.507  0.00  0.00    +0.000 C 
BRANCH  23  24
ATOM     24  C   UNL     1       9.559  11.662  19.394  0.00  0.00    +0.000 A 
ATOM     25  C   UNL     1       9.612  11.550  20.793  0.00  0.00    +0.000 A 
ATOM     26  C   UNL     1       9.812  12.677  21.594  0.00  0.00    +0.000 A 
ATOM     27  C   UNL     1       9.983  13.924  21.000  0.00  0.00    +0.000 A 
ATOM     28 BR   UNL     1      10.219  15.455  22.083  0.00  0.00    +0.000 Br
ATOM     29  C   UNL     1       9.988  14.055  19.612  0.00  0.00    +0.000 A 
ATOM     30  C   UNL     1       9.789  12.922  18.824  0.00  0.00    +0.000 A 
BRANCH  30  31
ATOM     31  O   UNL     1       9.832  13.029  17.460  0.00  0.00    +0.000 OA
ATOM     32  H   UNL     1       9.184  13.694  17.170  0.00  0.00    +0.000 HD
ENDBRANCH  30  31
ENDBRANCH  23  24
ENDBRANCH  21  23
ENDBRANCH   4  21
TORSDOF 6
ENDMDL
MODEL 4
REMARK VINA RESULT:      -8.3      6.453      8.998
REMARK  Name = 
REMARK  6 active torsions:
REMARK  status: ('A' for Active; 'I' for Inactive)
REMARK    1  A    between atoms: S_2  and  N_4
REMARK    2  A    between atoms: S_2  and  C_14
REMARK    3  A    between atoms: C_17  and  N_18
REMARK    4  A    between atoms: N_18  and  C_19
REMARK    5  A    between atoms: C_19  and  C_20
REMARK    6  A    between atoms: C_26  and  O_27
REMARK                            x       y       z     vdW  Elec       q    Type
REMARK                         _______ _______ _______ _____ _____    ______ ____
ROOT
ATOM      1  C   UNL     1       7.250   6.608  17.490  0.00  0.00    +0.000 A 
ATOM      2  C   UNL     1       8.074   6.484  18.608  0.00  0.00    +0.000 A 
ATOM      3  C   UNL     1       8.648   7.626  19.168  0.00  0.00    +0.000 A 
ATOM      4  C   UNL     1       8.448   8.898  18.605  0.00  0.00    +0.000 A 
ATOM      5  C   UNL     1       7.583   8.999  17.506  0.00  0.00    +0.000 A 
ATOM      6  C   UNL     1       6.996   7.860  16.933  0.00  0.00    +0.000 A 
ENDROOT
BRANCH   1   8
ATOM      7  O   UNL     1       7.529   4.643  15.825  0.00  0.00    +0.000 OA
ATOM      8  S   UNL     1       6.560   5.131  16.783  0.00  0.00    +0.000 S 
ATOM      9  O   UNL     1       5.193   5.424  16.413  0.00  0.00    +0.000 OA
BRANCH   8  10
ATOM     10  N   UNL     1       6.470   4.115  18.145  0.00  0.00    +0.000 N 
ATOM     11  C   UNL     1       5.116   3.920  18.522  0.00  0.00    +0.000 A 
ATOM     12  N   UNL     1       4.597   4.706  19.425  0.00  0.00    +0.000 NA
ATOM     13  C   UNL     1       3.277   4.341  19.637  0.00  0.00    +0.000 A 
ATOM     14  C   UNL     1       2.353   5.019  20.456  0.00  0.00    +0.000 A 
ATOM     15  C   UNL     1       1.050   4.529  20.591  0.00  0.00    +0.000 A 
ATOM     16  C   UNL     1       0.663   3.365  19.935  0.00  0.00    +0.000 A 
ATOM     17  C   UNL     1       1.560   2.673  19.114  0.00  0.00    +0.000 A 
ATOM     18  C   UNL     1       2.858   3.188  18.964  0.00  0.00    +0.000 A 
ATOM     19  S   UNL     1       4.164   2.607  17.996  0.00  0.00    +0.000 S 
ATOM     20  H   UNL     1       6.881   4.679  18.893  0.00  0.00    +0.000 HD
ENDBRANCH   8  10
ENDBRANCH   1   8
BRANCH   4  21
ATOM     21  N   UNL     1       8.979  10.068  19.178  0.00  0.00    +0.000 N 
ATOM     22  H   UNL     1       8.246  10.748  19.365  0.00  0.00    +0.000 HD
BRANCH  21  23
ATOM     23  C   UNL     1      10.097  10.696  18.460  0.00  0.00    +0.000 C 
BRANCH  23  24
ATOM     24  C   UNL     1      10.173  12.187  18.714  0.00  0.00    +0.000 A 
ATOM     25  C   UNL     1       9.850  13.122  17.717  0.00  0.00    +0.000 A 
ATOM     26  C   UNL     1       9.906  14.494  17.979  0.00  0.00    +0.000 A 
ATOM     27  C   UNL     1      10.264  14.940  19.248  0.00  0.00    +0.000 A 
ATOM     28 BR   UNL     1      10.373  16.796  19.593  0.00  0.00    +0.000 Br
ATOM     29  C   UNL     1      10.538  14.032  20.269  0.00  0.00    +0.000 A 
ATOM     30  C   UNL     1      10.477  12.666  19.997  0.00  0.00    +0.000 A 
BRANCH  30  31
ATOM     31  O   UNL     1      10.703  11.763  21.000  0.00  0.00    +0.000 OA
ATOM     32  H   UNL     1      11.216  11.016  20.648  0.00  0.00    +0.000 HD
ENDBRANCH  30  31
ENDBRANCH  23  24
ENDBRANCH  21  23
ENDBRANCH   4  21
TORSDOF 6
ENDMDL
MODEL 5
REMARK VINA RESULT:      -8.3      6.425      8.970
REMARK  Name = 
REMARK  6 active torsions:
REMARK  status: ('A' for Active; 'I' for Inactive)
REMARK    1  A    between atoms: S_2  and  N_4
REMARK    2  A    between atoms: S_2  and  C_14
REMARK    3  A    between atoms: C_17  and  N_18
REMARK    4  A    between atoms: N_18  and  C_19
REMARK    5  A    between atoms: C_19  and  C_20
REMARK    6  A    between atoms: C_26  and  O_27
REMARK                            x       y       z     vdW  Elec       q    Type
REMARK                         _______ _______ _______ _____ _____    ______ ____
ROOT
ATOM      1  C   UNL     1       7.416   6.516  17.728  0.00  0.00    +0.000 A 
ATOM      2  C   UNL     1       8.269   6.678  18.818  0.00  0.00    +0.000 A 
ATOM      3  C   UNL     1       8.727   7.954  19.148  0.00  0.00    +0.000 A 
ATOM      4  C   UNL     1       8.381   9.078  18.380  0.00  0.00    +0.000 A 
ATOM      5  C   UNL     1       7.489   8.893  17.313  0.00  0.00    +0.000 A 
ATOM      6  C   UNL     1       7.018   7.616  16.970  0.00  0.00    +0.000 A 
ENDROOT
BRANCH   1   8
ATOM      7  O   UNL     1       6.727   4.165  18.569  0.00  0.00    +0.000 OA
ATOM      8  S   UNL     1       6.876   4.873  17.316  0.00  0.00    +0.000 S 
ATOM      9  O   UNL     1       7.730   4.388  16.255  0.00  0.00    +0.000 OA
BRANCH   8  10
ATOM     10  N   UNL     1       5.365   5.185  16.597  0.00  0.00    +0.000 N 
ATOM     11  C   UNL     1       4.318   4.839  17.489  0.00  0.00    +0.000 A 
ATOM     12  N   UNL     1       3.793   3.648  17.408  0.00  0.00    +0.000 NA
ATOM     13  C   UNL     1       2.798   3.526  18.365  0.00  0.00    +0.000 A 
ATOM     14  C   UNL     1       2.076   2.353  18.662  0.00  0.00    +0.000 A 
ATOM     15  C   UNL     1       1.084   2.376  19.648  0.00  0.00    +0.000 A 
ATOM     16  C   UNL     1       0.791   3.555  20.326  0.00  0.00    +0.000 A 
ATOM     17  C   UNL     1       1.493   4.734  20.051  0.00  0.00    +0.000 A 
ATOM     18  C   UNL     1       2.506   4.693  19.078  0.00  0.00    +0.000 A 
ATOM     19  S   UNL     1       3.574   5.944  18.554  0.00  0.00    +0.000 S 
ATOM     20  H   UNL     1       5.314   4.500  15.839  0.00  0.00    +0.000 HD
ENDBRANCH   8  10
ENDBRANCH   1   8
BRANCH   4  21
ATOM     21  N   UNL     1       8.793  10.379  18.720  0.00  0.00    +0.000 N 
ATOM     22  H   UNL     1       9.229  10.842  17.927  0.00  0.00    +0.000 HD
BRANCH  21  23
ATOM     23  C   UNL     1       9.635  10.504  19.920  0.00  0.00    +0.000 C 
BRANCH  23  24
ATOM     24  C   UNL     1      10.046  11.937  20.181  0.00  0.00    +0.000 A 
ATOM     25  C   UNL     1       9.570  12.650  21.294  0.00  0.00    +0.000 A 
ATOM     26  C   UNL     1       9.979  13.965  21.529  0.00  0.00    +0.000 A 
ATOM     27  C   UNL     1      10.886  14.571  20.663  0.00  0.00    +0.000 A 
ATOM     28 BR   UNL     1      11.413  16.362  20.961  0.00  0.00    +0.000 Br
ATOM     29  C   UNL     1      11.414  13.868  19.582  0.00  0.00    +0.000 A 
ATOM     30  C   UNL     1      11.000  12.555  19.359  0.00  0.00    +0.000 A 
BRANCH  30  31
ATOM     31  O   UNL     1      11.540  11.840  18.325  0.00  0.00    +0.000 OA
ATOM     32  H   UNL     1      12.223  12.375  17.888  0.00  0.00    +0.000 HD
ENDBRANCH  30  31
ENDBRANCH  23  24
ENDBRANCH  21  23
ENDBRANCH   4  21
TORSDOF 6
ENDMDL
MODEL 6
REMARK VINA RESULT:      -8.2      6.280      8.801
REMARK  Name = 
REMARK  6 active torsions:
REMARK  status: ('A' for Active; 'I' for Inactive)
REMARK    1  A    between atoms: S_2  and  N_4
REMARK    2  A    between atoms: S_2  and  C_14
REMARK    3  A    between atoms: C_17  and  N_18
REMARK    4  A    between atoms: N_18  and  C_19
REMARK    5  A    between atoms: C_19  and  C_20
REMARK    6  A    between atoms: C_26  and  O_27
REMARK                            x       y       z     vdW  Elec       q    Type
REMARK                         _______ _______ _______ _____ _____    ______ ____
ROOT
ATOM      1  C   UNL     1       7.354   6.440  17.604  0.00  0.00    +0.000 A 
ATOM      2  C   UNL     1       8.049   6.368  18.810  0.00  0.00    +0.000 A 
ATOM      3  C   UNL     1       8.636   7.520  19.334  0.00  0.00    +0.000 A 
ATOM      4  C   UNL     1       8.578   8.746  18.653  0.00  0.00    +0.000 A 
ATOM      5  C   UNL     1       7.839   8.800  17.462  0.00  0.00    +0.000 A 
ATOM      6  C   UNL     1       7.241   7.650  16.923  0.00  0.00    +0.000 A 
ENDROOT
BRANCH   1   8
ATOM      7  O   UNL     1       6.539   4.023  18.057  0.00  0.00    +0.000 OA
ATOM      8  S   UNL     1       6.644   4.947  16.949  0.00  0.00    +0.000 S 
ATOM      9  O   UNL     1       7.364   4.619  15.739  0.00  0.00    +0.000 OA
BRANCH   8  10
ATOM     10  N   UNL     1       5.112   5.493  16.450  0.00  0.00    +0.000 N 
ATOM     11  C   UNL     1       4.116   5.052  17.359  0.00  0.00    +0.000 A 
ATOM     12  N   UNL     1       3.488   3.936  17.106  0.00  0.00    +0.000 NA
ATOM     13  C   UNL     1       2.567   3.698  18.115  0.00  0.00    +0.000 A 
ATOM     14  C   UNL     1       1.776   2.541  18.256  0.00  0.00    +0.000 A 
ATOM     15  C   UNL     1       0.873   2.438  19.319  0.00  0.00    +0.000 A 
ATOM     16  C   UNL     1       0.737   3.481  20.231  0.00  0.00    +0.000 A 
ATOM     17  C   UNL     1       1.511   4.640  20.116  0.00  0.00    +0.000 A 
ATOM     18  C   UNL     1       2.434   4.721  19.059  0.00  0.00    +0.000 A 
ATOM     19  S   UNL     1       3.557   5.976  18.678  0.00  0.00    +0.000 S 
ATOM     20  H   UNL     1       4.941   4.974  15.586  0.00  0.00    +0.000 HD
ENDBRANCH   8  10
ENDBRANCH   1   8
BRANCH   4  21
ATOM     21  N   UNL     1       9.123   9.930  19.183  0.00  0.00    +0.000 N 
ATOM     22  H   UNL     1       8.503  10.337  19.879  0.00  0.00    +0.000 HD
BRANCH  21  23
ATOM     23  C   UNL     1       9.546  10.947  18.209  0.00  0.00    +0.000 C 
BRANCH  23  24
ATOM     24  C   UNL     1       9.645  12.325  18.829  0.00  0.00    +0.000 A 
ATOM     25  C   UNL     1       8.827  13.385  18.404  0.00  0.00    +0.000 A 
ATOM     26  C   UNL     1       8.918  14.644  19.003  0.00  0.00    +0.000 A 
ATOM     27  C   UNL     1       9.815  14.846  20.049  0.00  0.00    +0.000 A 
ATOM     28 BR   UNL     1       9.964  16.557  20.839  0.00  0.00    +0.000 Br
ATOM     29  C   UNL     1      10.600  13.797  20.525  0.00  0.00    +0.000 A 
ATOM     30  C   UNL     1      10.498  12.545  19.920  0.00  0.00    +0.000 A 
BRANCH  30  31
ATOM     31  O   UNL     1      11.232  11.496  20.402  0.00  0.00    +0.000 OA
ATOM     32  H   UNL     1      11.739  11.098  19.674  0.00  0.00    +0.000 HD
ENDBRANCH  30  31
ENDBRANCH  23  24
ENDBRANCH  21  23
ENDBRANCH   4  21
TORSDOF 6
ENDMDL
MODEL 7
REMARK VINA RESULT:      -8.2      6.391      8.962
REMARK  Name = 
REMARK  6 active torsions:
REMARK  status: ('A' for Active; 'I' for Inactive)
REMARK    1  A    between atoms: S_2  and  N_4
REMARK    2  A    between atoms: S_2  and  C_14
REMARK    3  A    between atoms: C_17  and  N_18
REMARK    4  A    between atoms: N_18  and  C_19
REMARK    5  A    between atoms: C_19  and  C_20
REMARK    6  A    between atoms: C_26  and  O_27
REMARK                            x       y       z     vdW  Elec       q    Type
REMARK                         _______ _______ _______ _____ _____    ______ ____
ROOT
ATOM      1  C   UNL     1       7.227   6.393  17.573  0.00  0.00    +0.000 A 
ATOM      2  C   UNL     1       8.104   6.553  18.644  0.00  0.00    +0.000 A 
ATOM      3  C   UNL     1       8.563   7.830  18.971  0.00  0.00    +0.000 A 
ATOM      4  C   UNL     1       8.192   8.956  18.219  0.00  0.00    +0.000 A 
ATOM      5  C   UNL     1       7.277   8.773  17.172  0.00  0.00    +0.000 A 
ATOM      6  C   UNL     1       6.805   7.496  16.832  0.00  0.00    +0.000 A 
ENDROOT
BRANCH   1   8
ATOM      7  O   UNL     1       7.774   4.129  16.439  0.00  0.00    +0.000 OA
ATOM      8  S   UNL     1       6.686   4.750  17.163  0.00  0.00    +0.000 S 
ATOM      9  O   UNL     1       5.355   4.857  16.608  0.00  0.00    +0.000 OA
BRANCH   8  10
ATOM     10  N   UNL     1       6.497   4.062  18.708  0.00  0.00    +0.000 N 
ATOM     11  C   UNL     1       5.120   3.894  19.004  0.00  0.00    +0.000 A 
ATOM     12  N   UNL     1       4.500   4.838  19.658  0.00  0.00    +0.000 NA
ATOM     13  C   UNL     1       3.176   4.469  19.836  0.00  0.00    +0.000 A 
ATOM     14  C   UNL     1       2.163   5.270  20.400  0.00  0.00    +0.000 A 
ATOM     15  C   UNL     1       0.866   4.763  20.532  0.00  0.00    +0.000 A 
ATOM     16  C   UNL     1       0.572   3.465  20.127  0.00  0.00    +0.000 A 
ATOM     17  C   UNL     1       1.558   2.649  19.563  0.00  0.00    +0.000 A 
ATOM     18  C   UNL     1       2.851   3.177  19.410  0.00  0.00    +0.000 A 
ATOM     19  S   UNL     1       4.255   2.455  18.712  0.00  0.00    +0.000 S 
ATOM     20  H   UNL     1       6.823   4.798  19.340  0.00  0.00    +0.000 HD
ENDBRANCH   8  10
ENDBRANCH   1   8
BRANCH   4  21
ATOM     21  N   UNL     1       8.605  10.258  18.557  0.00  0.00    +0.000 N 
ATOM     22  H   UNL     1       8.820  10.801  17.725  0.00  0.00    +0.000 HD
BRANCH  21  23
ATOM     23  C   UNL     1       9.696  10.362  19.539  0.00  0.00    +0.000 C 
BRANCH  23  24
ATOM     24  C   UNL     1      10.261  11.764  19.618  0.00  0.00    +0.000 A 
ATOM     25  C   UNL     1      10.113  12.555  20.768  0.00  0.00    +0.000 A 
ATOM     26  C   UNL     1      10.661  13.839  20.828  0.00  0.00    +0.000 A 
ATOM     27  C   UNL     1      11.382  14.333  19.744  0.00  0.00    +0.000 A 
ATOM     28 BR   UNL     1      12.095  16.083  19.811  0.00  0.00    +0.000 Br
ATOM     29  C   UNL     1      11.589  13.548  18.612  0.00  0.00    +0.000 A 
ATOM     30  C   UNL     1      11.038  12.267  18.564  0.00  0.00    +0.000 A 
BRANCH  30  31
ATOM     31  O   UNL     1      11.267  11.470  17.476  0.00  0.00    +0.000 OA
ATOM     32  H   UNL     1      10.983  10.563  17.678  0.00  0.00    +0.000 HD
ENDBRANCH  30  31
ENDBRANCH  23  24
ENDBRANCH  21  23
ENDBRANCH   4  21
TORSDOF 6
ENDMDL
MODEL 8
REMARK VINA RESULT:      -8.2      6.407      8.911
REMARK  Name = 
REMARK  6 active torsions:
REMARK  status: ('A' for Active; 'I' for Inactive)
REMARK    1  A    between atoms: S_2  and  N_4
REMARK    2  A    between atoms: S_2  and  C_14
REMARK    3  A    between atoms: C_17  and  N_18
REMARK    4  A    between atoms: N_18  and  C_19
REMARK    5  A    between atoms: C_19  and  C_20
REMARK    6  A    between atoms: C_26  and  O_27
REMARK                            x       y       z     vdW  Elec       q    Type
REMARK                         _______ _______ _______ _____ _____    ______ ____
ROOT
ATOM      1  C   UNL     1       7.355   6.459  17.736  0.00  0.00    +0.000 A 
ATOM      2  C   UNL     1       8.269   6.699  18.760  0.00  0.00    +0.000 A 
ATOM      3  C   UNL     1       8.693   8.005  19.010  0.00  0.00    +0.000 A 
ATOM      4  C   UNL     1       8.250   9.082  18.224  0.00  0.00    +0.000 A 
ATOM      5  C   UNL     1       7.300   8.818  17.227  0.00  0.00    +0.000 A 
ATOM      6  C   UNL     1       6.862   7.510  16.966  0.00  0.00    +0.000 A 
ENDROOT
BRANCH   1   8
ATOM      7  O   UNL     1       6.692   4.156  18.719  0.00  0.00    +0.000 OA
ATOM      8  S   UNL     1       6.859   4.780  17.425  0.00  0.00    +0.000 S 
ATOM      9  O   UNL     1       7.751   4.243  16.421  0.00  0.00    +0.000 OA
BRANCH   8  10
ATOM     10  N   UNL     1       5.362   5.009  16.649  0.00  0.00    +0.000 N 
ATOM     11  C   UNL     1       4.300   4.675  17.527  0.00  0.00    +0.000 A 
ATOM     12  N   UNL     1       3.814   3.464  17.490  0.00  0.00    +0.000 NA
ATOM     13  C   UNL     1       2.794   3.358  18.423  0.00  0.00    +0.000 A 
ATOM     14  C   UNL     1       2.099   2.179  18.757  0.00  0.00    +0.000 A 
ATOM     15  C   UNL     1       1.077   2.219  19.712  0.00  0.00    +0.000 A 
ATOM     16  C   UNL     1       0.729   3.420  20.322  0.00  0.00    +0.000 A 
ATOM     17  C   UNL     1       1.404   4.605  20.009  0.00  0.00    +0.000 A 
ATOM     18  C   UNL     1       2.446   4.549  19.069  0.00  0.00    +0.000 A 
ATOM     19  S   UNL     1       3.491   5.806  18.514  0.00  0.00    +0.000 S 
ATOM     20  H   UNL     1       5.354   4.287  15.925  0.00  0.00    +0.000 HD
ENDBRANCH   8  10
ENDBRANCH   1   8
BRANCH   4  21
ATOM     21  N   UNL     1       8.628  10.411  18.486  0.00  0.00    +0.000 N 
ATOM     22  H   UNL     1       8.820  10.913  17.623  0.00  0.00    +0.000 HD
BRANCH  21  23
ATOM     23  C   UNL     1       9.723  10.600  19.449  0.00  0.00    +0.000 C 
BRANCH  23  24
ATOM     24  C   UNL     1      10.269  12.012  19.423  0.00  0.00    +0.000 A 
ATOM     25  C   UNL     1      10.589  12.656  18.216  0.00  0.00    +0.000 A 
ATOM     26  C   UNL     1      11.072  13.968  18.212  0.00  0.00    +0.000 A 
ATOM     27  C   UNL     1      11.217  14.653  19.415  0.00  0.00    +0.000 A 
ATOM     28 BR   UNL     1      11.901  16.415  19.414  0.00  0.00    +0.000 Br
ATOM     29  C   UNL     1      10.856  14.056  20.621  0.00  0.00    +0.000 A 
ATOM     30  C   UNL     1      10.374  12.747  20.612  0.00  0.00    +0.000 A 
BRANCH  30  31
ATOM     31  O   UNL     1       9.978  12.162  21.784  0.00  0.00    +0.000 OA
ATOM     32  H   UNL     1      10.737  11.711  22.190  0.00  0.00    +0.000 HD
ENDBRANCH  30  31
ENDBRANCH  23  24
ENDBRANCH  21  23
ENDBRANCH   4  21
TORSDOF 6
ENDMDL
MODEL 9
REMARK VINA RESULT:      -8.2      3.154      3.889
REMARK  Name = 
REMARK  6 active torsions:
REMARK  status: ('A' for Active; 'I' for Inactive)
REMARK    1  A    between atoms: S_2  and  N_4
REMARK    2  A    between atoms: S_2  and  C_14
REMARK    3  A    between atoms: C_17  and  N_18
REMARK    4  A    between atoms: N_18  and  C_19
REMARK    5  A    between atoms: C_19  and  C_20
REMARK    6  A    between atoms: C_26  and  O_27
REMARK                            x       y       z     vdW  Elec       q    Type
REMARK                         _______ _______ _______ _____ _____    ______ ____
ROOT
ATOM      1  C   UNL     1       1.093   9.749  19.388  0.00  0.00    +0.000 A 
ATOM      2  C   UNL     1       1.633   9.309  18.181  0.00  0.00    +0.000 A 
ATOM      3  C   UNL     1       2.228   8.049  18.114  0.00  0.00    +0.000 A 
ATOM      4  C   UNL     1       2.333   7.227  19.249  0.00  0.00    +0.000 A 
ATOM      5  C   UNL     1       1.745   7.677  20.440  0.00  0.00    +0.000 A 
ATOM      6  C   UNL     1       1.141   8.941  20.522  0.00  0.00    +0.000 A 
ENDROOT
BRANCH   1   8
ATOM      7  O   UNL     1      -1.060  11.188  19.303  0.00  0.00    +0.000 OA
ATOM      8  S   UNL     1       0.369  11.372  19.446  0.00  0.00    +0.000 S 
ATOM      9  O   UNL     1       1.128  12.219  18.554  0.00  0.00    +0.000 OA
BRANCH   8  10
ATOM     10  N   UNL     1       0.775  11.866  21.023  0.00  0.00    +0.000 N 
ATOM     11  C   UNL     1      -0.397  12.197  21.749  0.00  0.00    +0.000 A 
ATOM     12  N   UNL     1      -0.794  13.440  21.766  0.00  0.00    +0.000 NA
ATOM     13  C   UNL     1      -1.948  13.536  22.527  0.00  0.00    +0.000 A 
ATOM     14  C   UNL     1      -2.737  14.692  22.692  0.00  0.00    +0.000 A 
ATOM     15  C   UNL     1      -3.874  14.651  23.504  0.00  0.00    +0.000 A 
ATOM     16  C   UNL     1      -4.224  13.478  24.167  0.00  0.00    +0.000 A 
ATOM     17  C   UNL     1      -3.461  12.316  24.020  0.00  0.00    +0.000 A 
ATOM     18  C   UNL     1      -2.335  12.361  23.180  0.00  0.00    +0.000 A 
ATOM     19  S   UNL     1      -1.232  11.103  22.754  0.00  0.00    +0.000 S 
ATOM     20  H   UNL     1       1.265  12.752  20.878  0.00  0.00    +0.000 HD
ENDBRANCH   8  10
ENDBRANCH   1   8
BRANCH   4  21
ATOM     21  N   UNL     1       2.888   5.935  19.195  0.00  0.00    +0.000 N 
ATOM     22  H   UNL     1       2.573   5.370  19.980  0.00  0.00    +0.000 HD
BRANCH  21  23
ATOM     23  C   UNL     1       4.350   5.859  19.055  0.00  0.00    +0.000 C 
BRANCH  23  24
ATOM     24  C   UNL     1       4.768   5.399  17.675  0.00  0.00    +0.000 A 
ATOM     25  C   UNL     1       5.077   6.313  16.655  0.00  0.00    +0.000 A 
ATOM     26  C   UNL     1       5.481   5.868  15.394  0.00  0.00    +0.000 A 
ATOM     27  C   UNL     1       5.601   4.503  15.150  0.00  0.00    +0.000 A 
ATOM     28 BR   UNL     1       6.115   3.899  13.434  0.00  0.00    +0.000 Br
ATOM     29  C   UNL     1       5.351   3.576  16.160  0.00  0.00    +0.000 A 
ATOM     30  C   UNL     1       4.950   4.033  17.415  0.00  0.00    +0.000 A 
BRANCH  30  31
ATOM     31  O   UNL     1       4.741   3.137  18.428  0.00  0.00    +0.000 OA
ATOM     32  H   UNL     1       3.831   2.801  18.375  0.00  0.00    +0.000 HD
ENDBRANCH  30  31
ENDBRANCH  23  24
ENDBRANCH  21  23
ENDBRANCH   4  21
TORSDOF 6
ENDMDL
