MODEL 1
REMARK VINA RESULT:      -7.4      0.000      0.000
REMARK  Name = 
REMARK  5 active torsions:
REMARK  status: ('A' for Active; 'I' for Inactive)
REMARK    1  A    between atoms: C_1  and  C_2
REMARK    2  A    between atoms: C_7  and  S_8
REMARK    3  A    between atoms: S_8  and  O_11
REMARK    4  A    between atoms: O_11  and  C_12
REMARK    5  A    between atoms: C_17  and  O_18
REMARK                            x       y       z     vdW  Elec       q    Type
REMARK                         _______ _______ _______ _____ _____    ______ ____
ROOT
ATOM      1  C   UNL     1       2.692   5.244  18.658  0.00  0.00    +0.000 A 
ATOM      2  C   UNL     1       2.484   4.390  19.746  0.00  0.00    +0.000 A 
ATOM      3  C   UNL     1       1.949   4.878  20.932  0.00  0.00    +0.000 A 
ATOM      4  C   UNL     1       1.612   6.222  21.046  0.00  0.00    +0.000 A 
ATOM      5  C   UNL     1       1.801   7.124  19.975  0.00  0.00    +0.000 A 
ATOM      6  C   UNL     1       1.468   8.501  20.050  0.00  0.00    +0.000 A 
ATOM      7  C   UNL     1       1.663   9.360  18.971  0.00  0.00    +0.000 A 
ATOM      8  C   UNL     1       2.199   8.872  17.789  0.00  0.00    +0.000 A 
ATOM      9  C   UNL     1       2.539   7.522  17.687  0.00  0.00    +0.000 A 
ATOM     10  C   UNL     1       2.351   6.621  18.759  0.00  0.00    +0.000 A 
ENDROOT
BRANCH   6  11
ATOM     11  O   UNL     1       0.936   9.103  21.161  0.00  0.00    +0.000 OA
ATOM     12  H   UNL     1       1.603   9.155  21.860  0.00  0.00    +0.000 HD
ENDBRANCH   6  11
BRANCH   1  13
ATOM     13  O   UNL     1       3.230   4.812  17.454  0.00  0.00    +0.000 OA
BRANCH  13  14
ATOM     14  S   UNL     1       4.675   4.057  17.371  0.00  0.00    +0.000 S 
ATOM     15  O   UNL     1       4.919   3.645  16.001  0.00  0.00    +0.000 OA
ATOM     16  O   UNL     1       4.736   3.083  18.447  0.00  0.00    +0.000 OA
BRANCH  14  23
ATOM     17  C   UNL     1       5.277   6.722  15.699  0.00  0.00    +0.000 C 
ATOM     18  C   UNL     1       6.098   6.437  16.925  0.00  0.00    +0.000 A 
ATOM     19  C   UNL     1       7.138   7.326  17.256  0.00  0.00    +0.000 A 
ATOM     20  C   UNL     1       7.961   7.098  18.362  0.00  0.00    +0.000 A 
ATOM     21  C   UNL     1       7.761   5.977  19.160  0.00  0.00    +0.000 A 
ATOM     22  C   UNL     1       6.736   5.084  18.854  0.00  0.00    +0.000 A 
ATOM     23  C   UNL     1       5.903   5.309  17.744  0.00  0.00    +0.000 A 
ENDBRANCH  14  23
ENDBRANCH  13  14
ENDBRANCH   1  13
TORSDOF 4
ENDMDL
MODEL 2
REMARK VINA RESULT:      -7.4      2.020      5.550
REMARK  Name = 
REMARK  5 active torsions:
REMARK  status: ('A' for Active; 'I' for Inactive)
REMARK    1  A    between atoms: C_1  and  C_2
REMARK    2  A    between atoms: C_7  and  S_8
REMARK    3  A    between atoms: S_8  and  O_11
REMARK    4  A    between atoms: O_11  and  C_12
REMARK    5  A    between atoms: C_17  and  O_18
REMARK                            x       y       z     vdW  Elec       q    Type
REMARK                         _______ _______ _______ _____ _____    ______ ____
ROOT
ATOM      1  C   UNL     1       4.880   3.757  17.035  0.00  0.00    +0.000 A 
ATOM      2  C   UNL     1       4.662   3.728  15.653  0.00  0.00    +0.000 A 
ATOM      3  C   UNL     1       5.347   4.597  14.814  0.00  0.00    +0.000 A 
ATOM      4  C   UNL     1       6.262   5.503  15.341  0.00  0.00    +0.000 A 
ATOM      5  C   UNL     1       6.518   5.570  16.729  0.00  0.00    +0.000 A 
ATOM      6  C   UNL     1       7.443   6.477  17.306  0.00  0.00    +0.000 A 
ATOM      7  C   UNL     1       7.674   6.510  18.679  0.00  0.00    +0.000 A 
ATOM      8  C   UNL     1       6.988   5.645  19.516  0.00  0.00    +0.000 A 
ATOM      9  C   UNL     1       6.069   4.742  18.977  0.00  0.00    +0.000 A 
ATOM     10  C   UNL     1       5.812   4.678  17.589  0.00  0.00    +0.000 A 
ENDROOT
BRANCH   6  11
ATOM     11  O   UNL     1       8.179   7.384  16.588  0.00  0.00    +0.000 OA
ATOM     12  H   UNL     1       7.619   7.817  15.929  0.00  0.00    +0.000 HD
ENDBRANCH   6  11
BRANCH   1  13
ATOM     13  O   UNL     1       4.216   2.919  17.919  0.00  0.00    +0.000 OA
BRANCH  13  14
ATOM     14  S   UNL     1       2.624   3.083  18.242  0.00  0.00    +0.000 S 
ATOM     15  O   UNL     1       2.250   2.142  19.282  0.00  0.00    +0.000 OA
ATOM     16  O   UNL     1       1.908   3.097  16.979  0.00  0.00    +0.000 OA
BRANCH  14  23
ATOM     17  C   UNL     1       1.894   3.786  21.282  0.00  0.00    +0.000 C 
ATOM     18  C   UNL     1       2.092   4.912  20.306  0.00  0.00    +0.000 A 
ATOM     19  C   UNL     1       1.892   6.231  20.756  0.00  0.00    +0.000 A 
ATOM     20  C   UNL     1       2.026   7.320  19.891  0.00  0.00    +0.000 A 
ATOM     21  C   UNL     1       2.362   7.113  18.558  0.00  0.00    +0.000 A 
ATOM     22  C   UNL     1       2.567   5.817  18.089  0.00  0.00    +0.000 A 
ATOM     23  C   UNL     1       2.437   4.718  18.956  0.00  0.00    +0.000 A 
ENDBRANCH  14  23
ENDBRANCH  13  14
ENDBRANCH   1  13
TORSDOF 4
ENDMDL
MODEL 3
REMARK VINA RESULT:      -7.3      2.720      6.314
REMARK  Name = 
REMARK  5 active torsions:
REMARK  status: ('A' for Active; 'I' for Inactive)
REMARK    1  A    between atoms: C_1  and  C_2
REMARK    2  A    between atoms: C_7  and  S_8
REMARK    3  A    between atoms: S_8  and  O_11
REMARK    4  A    between atoms: O_11  and  C_12
REMARK    5  A    between atoms: C_17  and  O_18
REMARK                            x       y       z     vdW  Elec       q    Type
REMARK                         _______ _______ _______ _____ _____    ______ ____
ROOT
ATOM      1  C   UNL     1       3.125   6.333  18.580  0.00  0.00    +0.000 A 
ATOM      2  C   UNL     1       4.025   6.350  17.509  0.00  0.00    +0.000 A 
ATOM      3  C   UNL     1       4.336   5.178  16.832  0.00  0.00    +0.000 A 
ATOM      4  C   UNL     1       3.750   3.974  17.212  0.00  0.00    +0.000 A 
ATOM      5  C   UNL     1       2.834   3.906  18.285  0.00  0.00    +0.000 A 
ATOM      6  C   UNL     1       2.214   2.701  18.702  0.00  0.00    +0.000 A 
ATOM      7  C   UNL     1       1.309   2.672  19.761  0.00  0.00    +0.000 A 
ATOM      8  C   UNL     1       1.002   3.842  20.438  0.00  0.00    +0.000 A 
ATOM      9  C   UNL     1       1.599   5.044  20.052  0.00  0.00    +0.000 A 
ATOM     10  C   UNL     1       2.517   5.111  18.979  0.00  0.00    +0.000 A 
ENDROOT
BRANCH   6  11
ATOM     11  O   UNL     1       2.436   1.480  18.119  0.00  0.00    +0.000 OA
ATOM     12  H   UNL     1       1.684   0.894  18.280  0.00  0.00    +0.000 HD
ENDBRANCH   6  11
BRANCH   1  13
ATOM     13  O   UNL     1       2.785   7.472  19.296  0.00  0.00    +0.000 OA
BRANCH  13  14
ATOM     14  S   UNL     1       1.845   8.647  18.662  0.00  0.00    +0.000 S 
ATOM     15  O   UNL     1       0.897   8.051  17.739  0.00  0.00    +0.000 OA
ATOM     16  O   UNL     1       2.710   9.728  18.222  0.00  0.00    +0.000 OA
BRANCH  14  23
ATOM     17  C   UNL     1      -0.315  11.011  18.551  0.00  0.00    +0.000 C 
ATOM     18  C   UNL     1      -0.034  10.350  19.871  0.00  0.00    +0.000 A 
ATOM     19  C   UNL     1      -0.691  10.836  21.017  0.00  0.00    +0.000 A 
ATOM     20  C   UNL     1      -0.446  10.289  22.279  0.00  0.00    +0.000 A 
ATOM     21  C   UNL     1       0.460   9.245  22.422  0.00  0.00    +0.000 A 
ATOM     22  C   UNL     1       1.121   8.744  21.302  0.00  0.00    +0.000 A 
ATOM     23  C   UNL     1       0.877   9.289  20.029  0.00  0.00    +0.000 A 
ENDBRANCH  14  23
ENDBRANCH  13  14
ENDBRANCH   1  13
TORSDOF 4
ENDMDL
MODEL 4
REMARK VINA RESULT:      -7.3      3.155      4.884
REMARK  Name = 
REMARK  5 active torsions:
REMARK  status: ('A' for Active; 'I' for Inactive)
REMARK    1  A    between atoms: C_1  and  C_2
REMARK    2  A    between atoms: C_7  and  S_8
REMARK    3  A    between atoms: S_8  and  O_11
REMARK    4  A    between atoms: O_11  and  C_12
REMARK    5  A    between atoms: C_17  and  O_18
REMARK                            x       y       z     vdW  Elec       q    Type
REMARK                         _______ _______ _______ _____ _____    ______ ____
ROOT
ATOM      1  C   UNL     1       4.291   5.057  17.266  0.00  0.00    +0.000 A 
ATOM      2  C   UNL     1       4.135   6.427  17.510  0.00  0.00    +0.000 A 
ATOM      3  C   UNL     1       3.131   6.881  18.355  0.00  0.00    +0.000 A 
ATOM      4  C   UNL     1       2.272   5.977  18.971  0.00  0.00    +0.000 A 
ATOM      5  C   UNL     1       2.390   4.585  18.759  0.00  0.00    +0.000 A 
ATOM      6  C   UNL     1       1.537   3.630  19.369  0.00  0.00    +0.000 A 
ATOM      7  C   UNL     1       1.687   2.264  19.141  0.00  0.00    +0.000 A 
ATOM      8  C   UNL     1       2.688   1.812  18.295  0.00  0.00    +0.000 A 
ATOM      9  C   UNL     1       3.541   2.729  17.678  0.00  0.00    +0.000 A 
ATOM     10  C   UNL     1       3.421   4.121  17.889  0.00  0.00    +0.000 A 
ENDROOT
BRANCH   6  11
ATOM     11  O   UNL     1       0.511   3.950  20.220  0.00  0.00    +0.000 OA
ATOM     12  H   UNL     1       0.068   3.144  20.520  0.00  0.00    +0.000 HD
ENDBRANCH   6  11
BRANCH   1  13
ATOM     13  O   UNL     1       5.271   4.549  16.425  0.00  0.00    +0.000 OA
BRANCH  13  14
ATOM     14  S   UNL     1       6.133   5.505  15.421  0.00  0.00    +0.000 S 
ATOM     15  O   UNL     1       7.472   5.670  15.954  0.00  0.00    +0.000 OA
ATOM     16  O   UNL     1       5.325   6.671  15.105  0.00  0.00    +0.000 OA
BRANCH  14  23
ATOM     17  C   UNL     1       8.406   5.878  13.194  0.00  0.00    +0.000 C 
ATOM     18  C   UNL     1       7.342   4.839  12.974  0.00  0.00    +0.000 A 
ATOM     19  C   UNL     1       7.356   4.111  11.770  0.00  0.00    +0.000 A 
ATOM     20  C   UNL     1       6.374   3.157  11.490  0.00  0.00    +0.000 A 
ATOM     21  C   UNL     1       5.359   2.911  12.407  0.00  0.00    +0.000 A 
ATOM     22  C   UNL     1       5.325   3.618  13.607  0.00  0.00    +0.000 A 
ATOM     23  C   UNL     1       6.312   4.578  13.896  0.00  0.00    +0.000 A 
ENDBRANCH  14  23
ENDBRANCH  13  14
ENDBRANCH   1  13
TORSDOF 4
ENDMDL
MODEL 5
REMARK VINA RESULT:      -7.3      2.044      3.777
REMARK  Name = 
REMARK  5 active torsions:
REMARK  status: ('A' for Active; 'I' for Inactive)
REMARK    1  A    between atoms: C_1  and  C_2
REMARK    2  A    between atoms: C_7  and  S_8
REMARK    3  A    between atoms: S_8  and  O_11
REMARK    4  A    between atoms: O_11  and  C_12
REMARK    5  A    between atoms: C_17  and  O_18
REMARK                            x       y       z     vdW  Elec       q    Type
REMARK                         _______ _______ _______ _____ _____    ______ ____
ROOT
ATOM      1  C   UNL     1       3.901   5.259  17.317  0.00  0.00    +0.000 A 
ATOM      2  C   UNL     1       3.703   6.594  17.687  0.00  0.00    +0.000 A 
ATOM      3  C   UNL     1       2.772   6.924  18.663  0.00  0.00    +0.000 A 
ATOM      4  C   UNL     1       2.028   5.927  19.286  0.00  0.00    +0.000 A 
ATOM      5  C   UNL     1       2.192   4.565  18.949  0.00  0.00    +0.000 A 
ATOM      6  C   UNL     1       1.456   3.518  19.560  0.00  0.00    +0.000 A 
ATOM      7  C   UNL     1       1.649   2.185  19.207  0.00  0.00    +0.000 A 
ATOM      8  C   UNL     1       2.577   1.857  18.230  0.00  0.00    +0.000 A 
ATOM      9  C   UNL     1       3.315   2.866  17.608  0.00  0.00    +0.000 A 
ATOM     10  C   UNL     1       3.148   4.229  17.945  0.00  0.00    +0.000 A 
ENDROOT
BRANCH   6  11
ATOM     11  O   UNL     1       0.510   3.711  20.533  0.00  0.00    +0.000 OA
ATOM     12  H   UNL     1       0.938   3.941  21.370  0.00  0.00    +0.000 HD
ENDBRANCH   6  11
BRANCH   1  13
ATOM     13  O   UNL     1       4.811   4.875  16.343  0.00  0.00    +0.000 OA
BRANCH  13  14
ATOM     14  S   UNL     1       5.799   5.947  15.607  0.00  0.00    +0.000 S 
ATOM     15  O   UNL     1       5.016   7.080  15.152  0.00  0.00    +0.000 OA
ATOM     16  O   UNL     1       6.638   5.218  14.672  0.00  0.00    +0.000 OA
BRANCH  14  23
ATOM     17  C   UNL     1       7.183   4.255  17.951  0.00  0.00    +0.000 C 
ATOM     18  C   UNL     1       7.424   5.737  17.889  0.00  0.00    +0.000 A 
ATOM     19  C   UNL     1       8.204   6.331  18.899  0.00  0.00    +0.000 A 
ATOM     20  C   UNL     1       8.435   7.709  18.920  0.00  0.00    +0.000 A 
ATOM     21  C   UNL     1       7.893   8.522  17.931  0.00  0.00    +0.000 A 
ATOM     22  C   UNL     1       7.119   7.957  16.919  0.00  0.00    +0.000 A 
ATOM     23  C   UNL     1       6.885   6.570  16.891  0.00  0.00    +0.000 A 
ENDBRANCH  14  23
ENDBRANCH  13  14
ENDBRANCH   1  13
TORSDOF 4
ENDMDL
MODEL 6
REMARK VINA RESULT:      -7.1      2.081      5.589
REMARK  Name = 
REMARK  5 active torsions:
REMARK  status: ('A' for Active; 'I' for Inactive)
REMARK    1  A    between atoms: C_1  and  C_2
REMARK    2  A    between atoms: C_7  and  S_8
REMARK    3  A    between atoms: S_8  and  O_11
REMARK    4  A    between atoms: O_11  and  C_12
REMARK    5  A    between atoms: C_17  and  O_18
REMARK                            x       y       z     vdW  Elec       q    Type
REMARK                         _______ _______ _______ _____ _____    ______ ____
ROOT
ATOM      1  C   UNL     1       4.867   3.819  18.213  0.00  0.00    +0.000 A 
ATOM      2  C   UNL     1       5.365   4.406  19.381  0.00  0.00    +0.000 A 
ATOM      3  C   UNL     1       6.404   5.326  19.320  0.00  0.00    +0.000 A 
ATOM      4  C   UNL     1       6.956   5.676  18.092  0.00  0.00    +0.000 A 
ATOM      5  C   UNL     1       6.487   5.113  16.884  0.00  0.00    +0.000 A 
ATOM      6  C   UNL     1       7.022   5.443  15.613  0.00  0.00    +0.000 A 
ATOM      7  C   UNL     1       6.529   4.872  14.442  0.00  0.00    +0.000 A 
ATOM      8  C   UNL     1       5.495   3.952  14.505  0.00  0.00    +0.000 A 
ATOM      9  C   UNL     1       4.950   3.605  15.743  0.00  0.00    +0.000 A 
ATOM     10  C   UNL     1       5.422   4.167  16.950  0.00  0.00    +0.000 A 
ENDROOT
BRANCH   6  11
ATOM     11  O   UNL     1       8.046   6.334  15.418  0.00  0.00    +0.000 OA
ATOM     12  H   UNL     1       8.006   7.034  16.084  0.00  0.00    +0.000 HD
ENDBRANCH   6  11
BRANCH   1  13
ATOM     13  O   UNL     1       3.837   2.889  18.217  0.00  0.00    +0.000 OA
BRANCH  13  14
ATOM     14  S   UNL     1       2.266   3.333  18.195  0.00  0.00    +0.000 S 
ATOM     15  O   UNL     1       1.521   2.492  19.113  0.00  0.00    +0.000 OA
ATOM     16  O   UNL     1       1.850   3.446  16.808  0.00  0.00    +0.000 OA
BRANCH  14  23
ATOM     17  C   UNL     1       1.838   4.133  21.268  0.00  0.00    +0.000 C 
ATOM     18  C   UNL     1       2.002   5.228  20.251  0.00  0.00    +0.000 A 
ATOM     19  C   UNL     1       1.903   6.564  20.684  0.00  0.00    +0.000 A 
ATOM     20  C   UNL     1       2.009   7.627  19.784  0.00  0.00    +0.000 A 
ATOM     21  C   UNL     1       2.217   7.377  18.432  0.00  0.00    +0.000 A 
ATOM     22  C   UNL     1       2.321   6.063  17.980  0.00  0.00    +0.000 A 
ATOM     23  C   UNL     1       2.217   4.989  18.882  0.00  0.00    +0.000 A 
ENDBRANCH  14  23
ENDBRANCH  13  14
ENDBRANCH   1  13
TORSDOF 4
ENDMDL
MODEL 7
REMARK VINA RESULT:      -7.1      2.047      4.756
REMARK  Name = 
REMARK  5 active torsions:
REMARK  status: ('A' for Active; 'I' for Inactive)
REMARK    1  A    between atoms: C_1  and  C_2
REMARK    2  A    between atoms: C_7  and  S_8
REMARK    3  A    between atoms: S_8  and  O_11
REMARK    4  A    between atoms: O_11  and  C_12
REMARK    5  A    between atoms: C_17  and  O_18
REMARK                            x       y       z     vdW  Elec       q    Type
REMARK                         _______ _______ _______ _____ _____    ______ ____
ROOT
ATOM      1  C   UNL     1       5.175   4.826  18.389  0.00  0.00    +0.000 A 
ATOM      2  C   UNL     1       5.912   4.872  17.201  0.00  0.00    +0.000 A 
ATOM      3  C   UNL     1       5.660   5.856  16.253  0.00  0.00    +0.000 A 
ATOM      4  C   UNL     1       4.672   6.808  16.481  0.00  0.00    +0.000 A 
ATOM      5  C   UNL     1       3.902   6.805  17.665  0.00  0.00    +0.000 A 
ATOM      6  C   UNL     1       2.887   7.758  17.936  0.00  0.00    +0.000 A 
ATOM      7  C   UNL     1       2.152   7.728  19.118  0.00  0.00    +0.000 A 
ATOM      8  C   UNL     1       2.403   6.744  20.062  0.00  0.00    +0.000 A 
ATOM      9  C   UNL     1       3.394   5.790  19.822  0.00  0.00    +0.000 A 
ATOM     10  C   UNL     1       4.162   5.793  18.636  0.00  0.00    +0.000 A 
ENDROOT
BRANCH   6  11
ATOM     11  O   UNL     1       2.542   8.776  17.084  0.00  0.00    +0.000 OA
ATOM     12  H   UNL     1       1.579   8.839  17.017  0.00  0.00    +0.000 HD
ENDBRANCH   6  11
BRANCH   1  13
ATOM     13  O   UNL     1       5.379   3.860  19.365  0.00  0.00    +0.000 OA
BRANCH  13  14
ATOM     14  S   UNL     1       4.689   2.383  19.282  0.00  0.00    +0.000 S 
ATOM     15  O   UNL     1       5.259   1.533  20.311  0.00  0.00    +0.000 OA
ATOM     16  O   UNL     1       4.704   1.956  17.893  0.00  0.00    +0.000 OA
BRANCH  14  23
ATOM     17  C   UNL     1       2.257   3.020  17.296  0.00  0.00    +0.000 C 
ATOM     18  C   UNL     1       1.980   2.919  18.770  0.00  0.00    +0.000 A 
ATOM     19  C   UNL     1       0.670   3.166  19.224  0.00  0.00    +0.000 A 
ATOM     20  C   UNL     1       0.356   3.124  20.584  0.00  0.00    +0.000 A 
ATOM     21  C   UNL     1       1.342   2.834  21.519  0.00  0.00    +0.000 A 
ATOM     22  C   UNL     1       2.645   2.584  21.095  0.00  0.00    +0.000 A 
ATOM     23  C   UNL     1       2.968   2.622  19.727  0.00  0.00    +0.000 A 
ENDBRANCH  14  23
ENDBRANCH  13  14
ENDBRANCH   1  13
TORSDOF 4
ENDMDL
MODEL 8
REMARK VINA RESULT:      -7.0      2.882      4.790
REMARK  Name = 
REMARK  5 active torsions:
REMARK  status: ('A' for Active; 'I' for Inactive)
REMARK    1  A    between atoms: C_1  and  C_2
REMARK    2  A    between atoms: C_7  and  S_8
REMARK    3  A    between atoms: S_8  and  O_11
REMARK    4  A    between atoms: O_11  and  C_12
REMARK    5  A    between atoms: C_17  and  O_18
REMARK                            x       y       z     vdW  Elec       q    Type
REMARK                         _______ _______ _______ _____ _____    ______ ____
ROOT
ATOM      1  C   UNL     1       1.929   8.135  19.520  0.00  0.00    +0.000 A 
ATOM      2  C   UNL     1       2.027   8.573  18.195  0.00  0.00    +0.000 A 
ATOM      3  C   UNL     1       1.377   9.731  17.786  0.00  0.00    +0.000 A 
ATOM      4  C   UNL     1       0.625  10.468  18.695  0.00  0.00    +0.000 A 
ATOM      5  C   UNL     1       0.496  10.068  20.043  0.00  0.00    +0.000 A 
ATOM      6  C   UNL     1      -0.259  10.792  21.001  0.00  0.00    +0.000 A 
ATOM      7  C   UNL     1      -0.358  10.370  22.325  0.00  0.00    +0.000 A 
ATOM      8  C   UNL     1       0.289   9.213  22.730  0.00  0.00    +0.000 A 
ATOM      9  C   UNL     1       1.037   8.478  21.810  0.00  0.00    +0.000 A 
ATOM     10  C   UNL     1       1.164   8.878  20.460  0.00  0.00    +0.000 A 
ENDROOT
BRANCH   6  11
ATOM     11  O   UNL     1      -0.946  11.946  20.724  0.00  0.00    +0.000 OA
ATOM     12  H   UNL     1      -1.320  12.311  21.538  0.00  0.00    +0.000 HD
ENDBRANCH   6  11
BRANCH   1  13
ATOM     13  O   UNL     1       2.550   6.982  19.979  0.00  0.00    +0.000 OA
BRANCH  13  14
ATOM     14  S   UNL     1       3.431   6.020  18.997  0.00  0.00    +0.000 S 
ATOM     15  O   UNL     1       4.712   5.749  19.621  0.00  0.00    +0.000 OA
ATOM     16  O   UNL     1       3.376   6.576  17.656  0.00  0.00    +0.000 OA
BRANCH  14  23
ATOM     17  C   UNL     1       4.011   3.567  17.020  0.00  0.00    +0.000 C 
ATOM     18  C   UNL     1       2.887   3.447  18.010  0.00  0.00    +0.000 A 
ATOM     19  C   UNL     1       2.097   2.282  17.989  0.00  0.00    +0.000 A 
ATOM     20  C   UNL     1       1.015   2.126  18.858  0.00  0.00    +0.000 A 
ATOM     21  C   UNL     1       0.699   3.129  19.767  0.00  0.00    +0.000 A 
ATOM     22  C   UNL     1       1.468   4.291  19.808  0.00  0.00    +0.000 A 
ATOM     23  C   UNL     1       2.560   4.454  18.938  0.00  0.00    +0.000 A 
ENDBRANCH  14  23
ENDBRANCH  13  14
ENDBRANCH   1  13
TORSDOF 4
ENDMDL
MODEL 9
REMARK VINA RESULT:      -6.9      2.862      5.475
REMARK  Name = 
REMARK  5 active torsions:
REMARK  status: ('A' for Active; 'I' for Inactive)
REMARK    1  A    between atoms: C_1  and  C_2
REMARK    2  A    between atoms: C_7  and  S_8
REMARK    3  A    between atoms: S_8  and  O_11
REMARK    4  A    between atoms: O_11  and  C_12
REMARK    5  A    between atoms: C_17  and  O_18
REMARK                            x       y       z     vdW  Elec       q    Type
REMARK                         _______ _______ _______ _____ _____    ______ ____
ROOT
ATOM      1  C   UNL     1       4.921   4.561  19.019  0.00  0.00    +0.000 A 
ATOM      2  C   UNL     1       3.944   5.382  19.594  0.00  0.00    +0.000 A 
ATOM      3  C   UNL     1       3.408   6.445  18.878  0.00  0.00    +0.000 A 
ATOM      4  C   UNL     1       3.837   6.701  17.580  0.00  0.00    +0.000 A 
ATOM      5  C   UNL     1       4.820   5.901  16.956  0.00  0.00    +0.000 A 
ATOM      6  C   UNL     1       5.283   6.127  15.634  0.00  0.00    +0.000 A 
ATOM      7  C   UNL     1       6.249   5.312  15.049  0.00  0.00    +0.000 A 
ATOM      8  C   UNL     1       6.784   4.253  15.765  0.00  0.00    +0.000 A 
ATOM      9  C   UNL     1       6.350   4.008  17.069  0.00  0.00    +0.000 A 
ATOM     10  C   UNL     1       5.369   4.810  17.693  0.00  0.00    +0.000 A 
ENDROOT
BRANCH   6  11
ATOM     11  O   UNL     1       4.835   7.141  14.827  0.00  0.00    +0.000 OA
ATOM     12  H   UNL     1       5.474   7.867  14.824  0.00  0.00    +0.000 HD
ENDBRANCH   6  11
BRANCH   1  13
ATOM     13  O   UNL     1       5.496   3.492  19.691  0.00  0.00    +0.000 OA
BRANCH  13  14
ATOM     14  S   UNL     1       4.695   2.089  19.935  0.00  0.00    +0.000 S 
ATOM     15  O   UNL     1       5.035   1.569  21.246  0.00  0.00    +0.000 OA
ATOM     16  O   UNL     1       4.870   1.260  18.755  0.00  0.00    +0.000 OA
BRANCH  14  23
ATOM     17  C   UNL     1       2.657   2.274  17.470  0.00  0.00    +0.000 C 
ATOM     18  C   UNL     1       2.155   2.595  18.849  0.00  0.00    +0.000 A 
ATOM     19  C   UNL     1       0.820   3.020  18.994  0.00  0.00    +0.000 A 
ATOM     20  C   UNL     1       0.303   3.368  20.244  0.00  0.00    +0.000 A 
ATOM     21  C   UNL     1       1.107   3.299  21.376  0.00  0.00    +0.000 A 
ATOM     22  C   UNL     1       2.431   2.879  21.258  0.00  0.00    +0.000 A 
ATOM     23  C   UNL     1       2.957   2.524  20.003  0.00  0.00    +0.000 A 
ENDBRANCH  14  23
ENDBRANCH  13  14
ENDBRANCH   1  13
TORSDOF 4
ENDMDL
