MODEL 1
REMARK VINA RESULT:      -7.8      0.000      0.000
REMARK  Name = 
REMARK  4 active torsions:
REMARK  status: ('A' for Active; 'I' for Inactive)
REMARK    1  A    between atoms: C_2  and  C_22
REMARK    2  A    between atoms: N_3  and  C_4
REMARK    3  A    between atoms: N_8  and  C_9
REMARK    4  A    between atoms: C_13  and  C_15
REMARK                            x       y       z     vdW  Elec       q    Type
REMARK                         _______ _______ _______ _____ _____    ______ ____
ROOT
ATOM      1  C   UNL     1       4.100   2.802  19.337  0.00  0.00    +0.000 A 
ATOM      2  C   UNL     1       4.746   2.106  20.334  0.00  0.00    +0.000 A 
ATOM      3  C   UNL     1       3.825   2.022  21.389  0.00  0.00    +0.000 A 
ATOM      4  N   UNL     1       2.679   2.632  21.099  0.00  0.00    +0.000 NA
ATOM      5  N   UNL     1       2.847   3.092  19.845  0.00  0.00    +0.000 N 
ENDROOT
BRANCH   5   6
ATOM      6  C   UNL     1       1.717   3.709  19.157  0.00  0.00    +0.000 C 
ATOM      7  C   UNL     1       2.112   4.740  18.094  0.00  0.00    +0.000 C 
ATOM      8  C   UNL     1       2.592   6.061  18.687  0.00  0.00    +0.000 C 
ATOM      9  N   UNL     1       1.698   6.587  19.720  0.00  0.00    +0.000 N 
ATOM     10  C   UNL     1       1.733   7.985  19.924  0.00  0.00    +0.000 C 
ATOM     11  O   UNL     1       2.225   8.734  19.079  0.00  0.00    +0.000 OA
ATOM     12  C   UNL     1       1.200   5.646  20.725  0.00  0.00    +0.000 C 
ATOM     13  C   UNL     1       0.710   4.333  20.122  0.00  0.00    +0.000 C 
BRANCH  10  14
ATOM     14  C   UNL     1       1.098   8.567  21.116  0.00  0.00    +0.000 A 
ATOM     15  C   UNL     1       1.846   9.049  22.244  0.00  0.00    +0.000 A 
ATOM     16  N   UNL     1       1.137   9.584  23.239  0.00  0.00    +0.000 NA
ATOM     17  S   UNL     1      -0.455   9.396  22.765  0.00  0.00    +0.000 S 
ATOM     18  N   UNL     1      -0.234   8.657  21.281  0.00  0.00    +0.000 NA
ENDBRANCH  10  14
ENDBRANCH   5   6
BRANCH   1  21
ATOM     19  O   UNL     1       6.296   4.563  18.819  0.00  0.00    +0.000 OA
ATOM     20  C   UNL     1       5.669   4.086  17.886  0.00  0.00    +0.000 C 
ATOM     21  N   UNL     1       4.595   3.151  18.086  0.00  0.00    +0.000 N 
ATOM     22  H   UNL     1       4.221   2.674  17.276  0.00  0.00    +0.000 HD
BRANCH  20  23
ATOM     23  C   UNL     1       6.026   4.357  16.478  0.00  0.00    +0.000 A 
ATOM     24  C   UNL     1       7.239   5.006  16.202  0.00  0.00    +0.000 A 
ATOM     25  C   UNL     1       7.625   5.226  14.878  0.00  0.00    +0.000 A 
ATOM     26  C   UNL     1       6.798   4.810  13.836  0.00  0.00    +0.000 A 
ATOM     27  C   UNL     1       5.588   4.186  14.123  0.00  0.00    +0.000 A 
ATOM     28  F   UNL     1       4.791   3.797  13.121  0.00  0.00    +0.000 F 
ATOM     29  C   UNL     1       5.190   3.955  15.433  0.00  0.00    +0.000 A 
ENDBRANCH  20  23
ENDBRANCH   1  21
TORSDOF 4
ENDMDL
MODEL 2
REMARK VINA RESULT:      -7.3      3.784      7.068
REMARK  Name = 
REMARK  4 active torsions:
REMARK  status: ('A' for Active; 'I' for Inactive)
REMARK    1  A    between atoms: C_2  and  C_22
REMARK    2  A    between atoms: N_3  and  C_4
REMARK    3  A    between atoms: N_8  and  C_9
REMARK    4  A    between atoms: C_13  and  C_15
REMARK                            x       y       z     vdW  Elec       q    Type
REMARK                         _______ _______ _______ _____ _____    ______ ____
ROOT
ATOM      1  C   UNL     1       1.218   4.476  20.375  0.00  0.00    +0.000 A 
ATOM      2  C   UNL     1       1.380   3.540  21.373  0.00  0.00    +0.000 A 
ATOM      3  C   UNL     1       1.855   2.387  20.729  0.00  0.00    +0.000 A 
ATOM      4  N   UNL     1       1.975   2.563  19.417  0.00  0.00    +0.000 NA
ATOM      5  N   UNL     1       1.599   3.838  19.209  0.00  0.00    +0.000 N 
ENDROOT
BRANCH   5   6
ATOM      6  C   UNL     1       1.738   4.412  17.874  0.00  0.00    +0.000 C 
ATOM      7  C   UNL     1       2.447   3.500  16.866  0.00  0.00    +0.000 C 
ATOM      8  C   UNL     1       3.954   3.416  17.090  0.00  0.00    +0.000 C 
ATOM      9  N   UNL     1       4.587   4.726  17.250  0.00  0.00    +0.000 N 
ATOM     10  C   UNL     1       5.957   4.804  16.915  0.00  0.00    +0.000 C 
ATOM     11  O   UNL     1       6.491   3.930  16.231  0.00  0.00    +0.000 OA
ATOM     12  C   UNL     1       3.923   5.693  18.127  0.00  0.00    +0.000 C 
ATOM     13  C   UNL     1       2.419   5.780  17.888  0.00  0.00    +0.000 C 
BRANCH  10  14
ATOM     14  C   UNL     1       6.741   5.984  17.311  0.00  0.00    +0.000 A 
ATOM     15  C   UNL     1       7.577   6.011  18.480  0.00  0.00    +0.000 A 
ATOM     16  N   UNL     1       8.258   7.137  18.694  0.00  0.00    +0.000 NA
ATOM     17  S   UNL     1       7.770   8.160  17.465  0.00  0.00    +0.000 S 
ATOM     18  N   UNL     1       6.712   7.154  16.649  0.00  0.00    +0.000 NA
ENDBRANCH  10  14
ENDBRANCH   5   6
BRANCH   1  21
ATOM     19  O   UNL     1       2.816   6.768  20.990  0.00  0.00    +0.000 OA
ATOM     20  C   UNL     1       1.607   6.888  20.869  0.00  0.00    +0.000 C 
ATOM     21  N   UNL     1       0.763   5.783  20.502  0.00  0.00    +0.000 N 
ATOM     22  H   UNL     1      -0.201   5.977  20.265  0.00  0.00    +0.000 HD
BRANCH  20  23
ATOM     23  C   UNL     1       0.930   8.195  20.992  0.00  0.00    +0.000 A 
ATOM     24  C   UNL     1       0.911   9.054  19.882  0.00  0.00    +0.000 A 
ATOM     25  C   UNL     1       0.232  10.272  19.955  0.00  0.00    +0.000 A 
ATOM     26  C   UNL     1      -0.415  10.636  21.135  0.00  0.00    +0.000 A 
ATOM     27  C   UNL     1      -0.371   9.785  22.235  0.00  0.00    +0.000 A 
ATOM     28  F   UNL     1      -0.985  10.141  23.370  0.00  0.00    +0.000 F 
ATOM     29  C   UNL     1       0.295   8.568  22.179  0.00  0.00    +0.000 A 
ENDBRANCH  20  23
ENDBRANCH   1  21
TORSDOF 4
ENDMDL
MODEL 3
REMARK VINA RESULT:      -7.2      3.444      6.889
REMARK  Name = 
REMARK  4 active torsions:
REMARK  status: ('A' for Active; 'I' for Inactive)
REMARK    1  A    between atoms: C_2  and  C_22
REMARK    2  A    between atoms: N_3  and  C_4
REMARK    3  A    between atoms: N_8  and  C_9
REMARK    4  A    between atoms: C_13  and  C_15
REMARK                            x       y       z     vdW  Elec       q    Type
REMARK                         _______ _______ _______ _____ _____    ______ ____
ROOT
ATOM      1  C   UNL     1       1.264   4.441  20.356  0.00  0.00    +0.000 A 
ATOM      2  C   UNL     1       1.422   3.518  21.366  0.00  0.00    +0.000 A 
ATOM      3  C   UNL     1       1.937   2.370  20.746  0.00  0.00    +0.000 A 
ATOM      4  N   UNL     1       2.085   2.537  19.435  0.00  0.00    +0.000 NA
ATOM      5  N   UNL     1       1.687   3.802  19.206  0.00  0.00    +0.000 N 
ENDROOT
BRANCH   5   6
ATOM      6  C   UNL     1       1.845   4.365  17.869  0.00  0.00    +0.000 C 
ATOM      7  C   UNL     1       2.599   3.461  16.888  0.00  0.00    +0.000 C 
ATOM      8  C   UNL     1       4.102   3.413  17.148  0.00  0.00    +0.000 C 
ATOM      9  N   UNL     1       4.701   4.738  17.312  0.00  0.00    +0.000 N 
ATOM     10  C   UNL     1       6.077   4.845  17.009  0.00  0.00    +0.000 C 
ATOM     11  O   UNL     1       6.646   3.976  16.346  0.00  0.00    +0.000 OA
ATOM     12  C   UNL     1       3.994   5.698  18.163  0.00  0.00    +0.000 C 
ATOM     13  C   UNL     1       2.495   5.749  17.886  0.00  0.00    +0.000 C 
BRANCH  10  14
ATOM     14  C   UNL     1       6.825   6.045  17.413  0.00  0.00    +0.000 A 
ATOM     15  C   UNL     1       7.673   6.085  18.572  0.00  0.00    +0.000 A 
ATOM     16  N   UNL     1       8.317   7.232  18.794  0.00  0.00    +0.000 NA
ATOM     17  S   UNL     1       7.779   8.253  17.585  0.00  0.00    +0.000 S 
ATOM     18  N   UNL     1       6.747   7.223  16.767  0.00  0.00    +0.000 NA
ENDBRANCH  10  14
ENDBRANCH   5   6
BRANCH   1  21
ATOM     19  O   UNL     1       2.794   6.772  20.997  0.00  0.00    +0.000 OA
ATOM     20  C   UNL     1       1.587   6.865  20.840  0.00  0.00    +0.000 C 
ATOM     21  N   UNL     1       0.777   5.739  20.459  0.00  0.00    +0.000 N 
ATOM     22  H   UNL     1      -0.184   5.910  20.193  0.00  0.00    +0.000 HD
BRANCH  20  23
ATOM     23  C   UNL     1       0.878   8.158  20.934  0.00  0.00    +0.000 A 
ATOM     24  C   UNL     1       0.157   8.450  22.102  0.00  0.00    +0.000 A 
ATOM     25  C   UNL     1      -0.478   9.687  22.237  0.00  0.00    +0.000 A 
ATOM     26  C   UNL     1      -0.402  10.622  21.206  0.00  0.00    +0.000 A 
ATOM     27  C   UNL     1       0.298  10.312  20.044  0.00  0.00    +0.000 A 
ATOM     28  F   UNL     1       0.360  11.207  19.052  0.00  0.00    +0.000 F 
ATOM     29  C   UNL     1       0.939   9.089  19.894  0.00  0.00    +0.000 A 
ENDBRANCH  20  23
ENDBRANCH   1  21
TORSDOF 4
ENDMDL
MODEL 4
REMARK VINA RESULT:      -7.2      2.205      2.863
REMARK  Name = 
REMARK  4 active torsions:
REMARK  status: ('A' for Active; 'I' for Inactive)
REMARK    1  A    between atoms: C_2  and  C_22
REMARK    2  A    between atoms: N_3  and  C_4
REMARK    3  A    between atoms: N_8  and  C_9
REMARK    4  A    between atoms: C_13  and  C_15
REMARK                            x       y       z     vdW  Elec       q    Type
REMARK                         _______ _______ _______ _____ _____    ______ ____
ROOT
ATOM      1  C   UNL     1       6.747   4.622  17.675  0.00  0.00    +0.000 A 
ATOM      2  C   UNL     1       7.903   4.981  18.332  0.00  0.00    +0.000 A 
ATOM      3  C   UNL     1       7.498   5.348  19.625  0.00  0.00    +0.000 A 
ATOM      4  N   UNL     1       6.182   5.248  19.782  0.00  0.00    +0.000 NA
ATOM      5  N   UNL     1       5.732   4.794  18.598  0.00  0.00    +0.000 N 
ENDROOT
BRANCH   5   6
ATOM      6  C   UNL     1       4.322   4.441  18.461  0.00  0.00    +0.000 C 
ATOM      7  C   UNL     1       3.640   5.036  17.224  0.00  0.00    +0.000 C 
ATOM      8  C   UNL     1       3.352   6.529  17.356  0.00  0.00    +0.000 C 
ATOM      9  N   UNL     1       2.699   6.880  18.618  0.00  0.00    +0.000 N 
ATOM     10  C   UNL     1       1.921   8.059  18.613  0.00  0.00    +0.000 C 
ATOM     11  O   UNL     1       1.551   8.567  17.553  0.00  0.00    +0.000 OA
ATOM     12  C   UNL     1       3.233   6.281  19.843  0.00  0.00    +0.000 C 
ATOM     13  C   UNL     1       3.505   4.786  19.707  0.00  0.00    +0.000 C 
BRANCH  10  14
ATOM     14  C   UNL     1       1.470   8.644  19.885  0.00  0.00    +0.000 A 
ATOM     15  C   UNL     1       1.110  10.028  20.025  0.00  0.00    +0.000 A 
ATOM     16  N   UNL     1       0.684  10.410  21.230  0.00  0.00    +0.000 NA
ATOM     17  S   UNL     1       0.822   9.037  22.174  0.00  0.00    +0.000 S 
ATOM     18  N   UNL     1       1.400   7.955  21.038  0.00  0.00    +0.000 NA
ENDBRANCH  10  14
ENDBRANCH   5   6
BRANCH   1  21
ATOM     19  O   UNL     1       6.265   6.272  15.387  0.00  0.00    +0.000 OA
ATOM     20  C   UNL     1       6.319   5.059  15.258  0.00  0.00    +0.000 C 
ATOM     21  N   UNL     1       6.617   4.186  16.361  0.00  0.00    +0.000 N 
ATOM     22  H   UNL     1       6.802   3.211  16.162  0.00  0.00    +0.000 HD
BRANCH  20  23
ATOM     23  C   UNL     1       6.180   4.401  13.943  0.00  0.00    +0.000 A 
ATOM     24  C   UNL     1       7.336   4.158  13.184  0.00  0.00    +0.000 A 
ATOM     25  C   UNL     1       7.238   3.489  11.961  0.00  0.00    +0.000 A 
ATOM     26  C   UNL     1       5.991   3.076  11.495  0.00  0.00    +0.000 A 
ATOM     27  C   UNL     1       4.851   3.341  12.246  0.00  0.00    +0.000 A 
ATOM     28  F   UNL     1       3.654   2.953  11.791  0.00  0.00    +0.000 F 
ATOM     29  C   UNL     1       4.929   4.000  13.466  0.00  0.00    +0.000 A 
ENDBRANCH  20  23
ENDBRANCH   1  21
TORSDOF 4
ENDMDL
MODEL 5
REMARK VINA RESULT:      -7.2      0.827      1.231
REMARK  Name = 
REMARK  4 active torsions:
REMARK  status: ('A' for Active; 'I' for Inactive)
REMARK    1  A    between atoms: C_2  and  C_22
REMARK    2  A    between atoms: N_3  and  C_4
REMARK    3  A    between atoms: N_8  and  C_9
REMARK    4  A    between atoms: C_13  and  C_15
REMARK                            x       y       z     vdW  Elec       q    Type
REMARK                         _______ _______ _______ _____ _____    ______ ____
ROOT
ATOM      1  C   UNL     1       4.140   2.753  19.244  0.00  0.00    +0.000 A 
ATOM      2  C   UNL     1       4.814   2.094  20.249  0.00  0.00    +0.000 A 
ATOM      3  C   UNL     1       3.936   2.087  21.344  0.00  0.00    +0.000 A 
ATOM      4  N   UNL     1       2.792   2.707  21.069  0.00  0.00    +0.000 NA
ATOM      5  N   UNL     1       2.916   3.098  19.787  0.00  0.00    +0.000 N 
ENDROOT
BRANCH   5   6
ATOM      6  C   UNL     1       1.771   3.703  19.114  0.00  0.00    +0.000 C 
ATOM      7  C   UNL     1       2.141   4.741  18.049  0.00  0.00    +0.000 C 
ATOM      8  C   UNL     1       2.614   6.066  18.640  0.00  0.00    +0.000 C 
ATOM      9  N   UNL     1       1.727   6.579  19.685  0.00  0.00    +0.000 N 
ATOM     10  C   UNL     1       1.748   7.977  19.893  0.00  0.00    +0.000 C 
ATOM     11  O   UNL     1       2.221   8.734  19.044  0.00  0.00    +0.000 OA
ATOM     12  C   UNL     1       1.251   5.630  20.694  0.00  0.00    +0.000 C 
ATOM     13  C   UNL     1       0.768   4.314  20.093  0.00  0.00    +0.000 C 
BRANCH  10  14
ATOM     14  C   UNL     1       1.120   8.548  21.094  0.00  0.00    +0.000 A 
ATOM     15  C   UNL     1       1.877   9.051  22.207  0.00  0.00    +0.000 A 
ATOM     16  N   UNL     1       1.174   9.574  23.213  0.00  0.00    +0.000 NA
ATOM     17  S   UNL     1      -0.421   9.349  22.767  0.00  0.00    +0.000 S 
ATOM     18  N   UNL     1      -0.210   8.609  21.282  0.00  0.00    +0.000 NA
ENDBRANCH  10  14
ENDBRANCH   5   6
BRANCH   1  21
ATOM     19  O   UNL     1       6.246   4.555  18.533  0.00  0.00    +0.000 OA
ATOM     20  C   UNL     1       5.617   3.984  17.657  0.00  0.00    +0.000 C 
ATOM     21  N   UNL     1       4.589   3.023  17.956  0.00  0.00    +0.000 N 
ATOM     22  H   UNL     1       4.215   2.471  17.196  0.00  0.00    +0.000 HD
BRANCH  20  23
ATOM     23  C   UNL     1       5.927   4.159  16.223  0.00  0.00    +0.000 A 
ATOM     24  C   UNL     1       5.012   3.684  15.271  0.00  0.00    +0.000 A 
ATOM     25  C   UNL     1       5.256   3.885  13.910  0.00  0.00    +0.000 A 
ATOM     26  C   UNL     1       6.414   4.546  13.503  0.00  0.00    +0.000 A 
ATOM     27  C   UNL     1       7.323   4.994  14.456  0.00  0.00    +0.000 A 
ATOM     28  F   UNL     1       8.439   5.619  14.063  0.00  0.00    +0.000 F 
ATOM     29  C   UNL     1       7.095   4.807  15.814  0.00  0.00    +0.000 A 
ENDBRANCH  20  23
ENDBRANCH   1  21
TORSDOF 4
ENDMDL
MODEL 6
REMARK VINA RESULT:      -7.1      2.255      3.042
REMARK  Name = 
REMARK  4 active torsions:
REMARK  status: ('A' for Active; 'I' for Inactive)
REMARK    1  A    between atoms: C_2  and  C_22
REMARK    2  A    between atoms: N_3  and  C_4
REMARK    3  A    between atoms: N_8  and  C_9
REMARK    4  A    between atoms: C_13  and  C_15
REMARK                            x       y       z     vdW  Elec       q    Type
REMARK                         _______ _______ _______ _____ _____    ______ ____
ROOT
ATOM      1  C   UNL     1       6.485   4.584  17.578  0.00  0.00    +0.000 A 
ATOM      2  C   UNL     1       7.693   4.964  18.121  0.00  0.00    +0.000 A 
ATOM      3  C   UNL     1       7.395   5.411  19.417  0.00  0.00    +0.000 A 
ATOM      4  N   UNL     1       6.093   5.338  19.682  0.00  0.00    +0.000 NA
ATOM      5  N   UNL     1       5.548   4.823  18.565  0.00  0.00    +0.000 N 
ENDROOT
BRANCH   5   6
ATOM      6  C   UNL     1       4.128   4.483  18.559  0.00  0.00    +0.000 C 
ATOM      7  C   UNL     1       3.351   5.039  17.361  0.00  0.00    +0.000 C 
ATOM      8  C   UNL     1       3.088   6.539  17.459  0.00  0.00    +0.000 C 
ATOM      9  N   UNL     1       2.546   6.945  18.756  0.00  0.00    +0.000 N 
ATOM     10  C   UNL     1       1.781   8.133  18.771  0.00  0.00    +0.000 C 
ATOM     11  O   UNL     1       1.329   8.605  17.726  0.00  0.00    +0.000 OA
ATOM     12  C   UNL     1       3.175   6.386  19.955  0.00  0.00    +0.000 C 
ATOM     13  C   UNL     1       3.421   4.884  19.854  0.00  0.00    +0.000 C 
BRANCH  10  14
ATOM     14  C   UNL     1       1.443   8.771  20.052  0.00  0.00    +0.000 A 
ATOM     15  C   UNL     1       1.283  10.191  20.200  0.00  0.00    +0.000 A 
ATOM     16  N   UNL     1       0.940  10.624  21.414  0.00  0.00    +0.000 NA
ATOM     17  S   UNL     1       0.905   9.243  22.355  0.00  0.00    +0.000 S 
ATOM     18  N   UNL     1       1.301   8.095  21.206  0.00  0.00    +0.000 NA
ENDBRANCH  10  14
ENDBRANCH   5   6
BRANCH   1  21
ATOM     19  O   UNL     1       7.390   5.715  15.109  0.00  0.00    +0.000 OA
ATOM     20  C   UNL     1       6.683   4.719  15.096  0.00  0.00    +0.000 C 
ATOM     21  N   UNL     1       6.248   4.074  16.306  0.00  0.00    +0.000 N 
ATOM     22  H   UNL     1       5.800   3.170  16.231  0.00  0.00    +0.000 HD
BRANCH  20  23
ATOM     23  C   UNL     1       6.300   4.042  13.840  0.00  0.00    +0.000 A 
ATOM     24  C   UNL     1       4.938   3.926  13.524  0.00  0.00    +0.000 A 
ATOM     25  C   UNL     1       4.551   3.338  12.317  0.00  0.00    +0.000 A 
ATOM     26  C   UNL     1       5.519   2.859  11.437  0.00  0.00    +0.000 A 
ATOM     27  C   UNL     1       6.866   2.961  11.771  0.00  0.00    +0.000 A 
ATOM     28  F   UNL     1       7.794   2.491  10.930  0.00  0.00    +0.000 F 
ATOM     29  C   UNL     1       7.270   3.547  12.964  0.00  0.00    +0.000 A 
ENDBRANCH  20  23
ENDBRANCH   1  21
TORSDOF 4
ENDMDL
MODEL 7
REMARK VINA RESULT:      -7.0      5.534      8.088
REMARK  Name = 
REMARK  4 active torsions:
REMARK  status: ('A' for Active; 'I' for Inactive)
REMARK    1  A    between atoms: C_2  and  C_22
REMARK    2  A    between atoms: N_3  and  C_4
REMARK    3  A    between atoms: N_8  and  C_9
REMARK    4  A    between atoms: C_13  and  C_15
REMARK                            x       y       z     vdW  Elec       q    Type
REMARK                         _______ _______ _______ _____ _____    ______ ____
ROOT
ATOM      1  C   UNL     1       0.157  11.133  18.293  0.00  0.00    +0.000 A 
ATOM      2  C   UNL     1       0.455  12.275  19.003  0.00  0.00    +0.000 A 
ATOM      3  C   UNL     1      -0.651  13.121  18.830  0.00  0.00    +0.000 A 
ATOM      4  N   UNL     1      -1.581  12.572  18.055  0.00  0.00    +0.000 NA
ATOM      5  N   UNL     1      -1.091  11.358  17.743  0.00  0.00    +0.000 N 
ENDROOT
BRANCH   5   6
ATOM      6  C   UNL     1      -1.929  10.423  16.999  0.00  0.00    +0.000 C 
ATOM      7  C   UNL     1      -2.925  11.090  16.044  0.00  0.00    +0.000 C 
ATOM      8  C   UNL     1      -4.110  11.729  16.762  0.00  0.00    +0.000 C 
ATOM      9  N   UNL     1      -4.735  10.841  17.744  0.00  0.00    +0.000 N 
ATOM     10  C   UNL     1      -6.094  11.093  18.040  0.00  0.00    +0.000 C 
ATOM     11  O   UNL     1      -6.784  11.786  17.292  0.00  0.00    +0.000 OA
ATOM     12  C   UNL     1      -3.849  10.093  18.638  0.00  0.00    +0.000 C 
ATOM     13  C   UNL     1      -2.674   9.447  17.910  0.00  0.00    +0.000 C 
BRANCH  10  14
ATOM     14  C   UNL     1      -6.719  10.452  19.207  0.00  0.00    +0.000 A 
ATOM     15  C   UNL     1      -6.997  11.155  20.429  0.00  0.00    +0.000 A 
ATOM     16  N   UNL     1      -7.601  10.455  21.390  0.00  0.00    +0.000 NA
ATOM     17  S   UNL     1      -7.733   8.912  20.761  0.00  0.00    +0.000 S 
ATOM     18  N   UNL     1      -7.043   9.148  19.256  0.00  0.00    +0.000 NA
ENDBRANCH  10  14
ENDBRANCH   5   6
BRANCH   1  21
ATOM     19  O   UNL     1       0.829   9.273  20.361  0.00  0.00    +0.000 OA
ATOM     20  C   UNL     1       1.291   9.125  19.240  0.00  0.00    +0.000 C 
ATOM     21  N   UNL     1       0.941   9.993  18.149  0.00  0.00    +0.000 N 
ATOM     22  H   UNL     1       1.229   9.728  17.216  0.00  0.00    +0.000 HD
BRANCH  20  23
ATOM     23  C   UNL     1       2.166   7.986  18.893  0.00  0.00    +0.000 A 
ATOM     24  C   UNL     1       2.150   6.847  19.713  0.00  0.00    +0.000 A 
ATOM     25  C   UNL     1       2.928   5.737  19.378  0.00  0.00    +0.000 A 
ATOM     26  C   UNL     1       3.726   5.768  18.236  0.00  0.00    +0.000 A 
ATOM     27  C   UNL     1       3.749   6.911  17.442  0.00  0.00    +0.000 A 
ATOM     28  F   UNL     1       4.525   6.943  16.352  0.00  0.00    +0.000 F 
ATOM     29  C   UNL     1       2.979   8.023  17.757  0.00  0.00    +0.000 A 
ENDBRANCH  20  23
ENDBRANCH   1  21
TORSDOF 4
ENDMDL
MODEL 8
REMARK VINA RESULT:      -6.9      4.434      6.349
REMARK  Name = 
REMARK  4 active torsions:
REMARK  status: ('A' for Active; 'I' for Inactive)
REMARK    1  A    between atoms: C_2  and  C_22
REMARK    2  A    between atoms: N_3  and  C_4
REMARK    3  A    between atoms: N_8  and  C_9
REMARK    4  A    between atoms: C_13  and  C_15
REMARK                            x       y       z     vdW  Elec       q    Type
REMARK                         _______ _______ _______ _____ _____    ______ ____
ROOT
ATOM      1  C   UNL     1       1.438   8.542  20.250  0.00  0.00    +0.000 A 
ATOM      2  C   UNL     1       1.244   8.328  21.597  0.00  0.00    +0.000 A 
ATOM      3  C   UNL     1       0.435   9.390  22.030  0.00  0.00    +0.000 A 
ATOM      4  N   UNL     1       0.144  10.229  21.042  0.00  0.00    +0.000 NA
ATOM      5  N   UNL     1       0.745   9.702  19.959  0.00  0.00    +0.000 N 
ENDROOT
BRANCH   5   6
ATOM      6  C   UNL     1       0.517  10.310  18.652  0.00  0.00    +0.000 C 
ATOM      7  C   UNL     1       1.769  10.923  18.015  0.00  0.00    +0.000 C 
ATOM      8  C   UNL     1       2.188  12.241  18.660  0.00  0.00    +0.000 C 
ATOM      9  N   UNL     1       1.080  13.184  18.816  0.00  0.00    +0.000 N 
ATOM     10  C   UNL     1       1.427  14.553  18.871  0.00  0.00    +0.000 C 
ATOM     11  O   UNL     1       2.532  14.940  18.486  0.00  0.00    +0.000 OA
ATOM     12  C   UNL     1      -0.185  12.660  19.334  0.00  0.00    +0.000 C 
ATOM     13  C   UNL     1      -0.604  11.350  18.674  0.00  0.00    +0.000 C 
BRANCH  10  14
ATOM     14  C   UNL     1       0.432  15.543  19.309  0.00  0.00    +0.000 A 
ATOM     15  C   UNL     1      -0.345  16.330  18.392  0.00  0.00    +0.000 A 
ATOM     16  N   UNL     1      -1.235  17.163  18.934  0.00  0.00    +0.000 NA
ATOM     17  S   UNL     1      -1.017  16.991  20.582  0.00  0.00    +0.000 S 
ATOM     18  N   UNL     1       0.193  15.838  20.600  0.00  0.00    +0.000 NA
ENDBRANCH  10  14
ENDBRANCH   5   6
BRANCH   1  21
ATOM     19  O   UNL     1       1.766   5.701  20.363  0.00  0.00    +0.000 OA
ATOM     20  C   UNL     1       2.351   6.345  19.506  0.00  0.00    +0.000 C 
ATOM     21  N   UNL     1       2.177   7.765  19.365  0.00  0.00    +0.000 N 
ATOM     22  H   UNL     1       2.562   8.214  18.544  0.00  0.00    +0.000 HD
BRANCH  20  23
ATOM     23  C   UNL     1       3.205   5.702  18.486  0.00  0.00    +0.000 A 
ATOM     24  C   UNL     1       3.166   4.306  18.354  0.00  0.00    +0.000 A 
ATOM     25  C   UNL     1       3.924   3.678  17.362  0.00  0.00    +0.000 A 
ATOM     26  C   UNL     1       4.724   4.441  16.515  0.00  0.00    +0.000 A 
ATOM     27  C   UNL     1       4.771   5.824  16.669  0.00  0.00    +0.000 A 
ATOM     28  F   UNL     1       5.549   6.553  15.860  0.00  0.00    +0.000 F 
ATOM     29  C   UNL     1       4.021   6.465  17.646  0.00  0.00    +0.000 A 
ENDBRANCH  20  23
ENDBRANCH   1  21
TORSDOF 4
ENDMDL
MODEL 9
REMARK VINA RESULT:      -6.8      4.371      6.361
REMARK  Name = 
REMARK  4 active torsions:
REMARK  status: ('A' for Active; 'I' for Inactive)
REMARK    1  A    between atoms: C_2  and  C_22
REMARK    2  A    between atoms: N_3  and  C_4
REMARK    3  A    between atoms: N_8  and  C_9
REMARK    4  A    between atoms: C_13  and  C_15
REMARK                            x       y       z     vdW  Elec       q    Type
REMARK                         _______ _______ _______ _____ _____    ______ ____
ROOT
ATOM      1  C   UNL     1       1.112   8.732  20.699  0.00  0.00    +0.000 A 
ATOM      2  C   UNL     1       1.084   8.506  22.057  0.00  0.00    +0.000 A 
ATOM      3  C   UNL     1       0.161   9.430  22.571  0.00  0.00    +0.000 A 
ATOM      4  N   UNL     1      -0.354  10.201  21.618  0.00  0.00    +0.000 NA
ATOM      5  N   UNL     1       0.217   9.764  20.481  0.00  0.00    +0.000 N 
ENDROOT
BRANCH   5   6
ATOM      6  C   UNL     1      -0.229  10.313  19.204  0.00  0.00    +0.000 C 
ATOM      7  C   UNL     1       0.898  10.558  18.194  0.00  0.00    +0.000 C 
ATOM      8  C   UNL     1       1.751  11.778  18.529  0.00  0.00    +0.000 C 
ATOM      9  N   UNL     1       0.957  12.970  18.832  0.00  0.00    +0.000 N 
ATOM     10  C   UNL     1       1.588  14.215  18.612  0.00  0.00    +0.000 C 
ATOM     11  O   UNL     1       2.599  14.295  17.912  0.00  0.00    +0.000 OA
ATOM     12  C   UNL     1      -0.197  12.806  19.719  0.00  0.00    +0.000 C 
ATOM     13  C   UNL     1      -1.051  11.592  19.369  0.00  0.00    +0.000 C 
BRANCH  10  14
ATOM     14  C   UNL     1       0.989  15.445  19.151  0.00  0.00    +0.000 A 
ATOM     15  C   UNL     1       1.423  16.054  20.378  0.00  0.00    +0.000 A 
ATOM     16  N   UNL     1       0.812  17.188  20.725  0.00  0.00    +0.000 NA
ATOM     17  S   UNL     1      -0.345  17.417  19.540  0.00  0.00    +0.000 S 
ATOM     18  N   UNL     1      -0.046  16.084  18.576  0.00  0.00    +0.000 NA
ENDBRANCH  10  14
ENDBRANCH   5   6
BRANCH   1  21
ATOM     19  O   UNL     1       1.687   5.930  20.634  0.00  0.00    +0.000 OA
ATOM     20  C   UNL     1       2.178   6.668  19.795  0.00  0.00    +0.000 C 
ATOM     21  N   UNL     1       1.877   8.074  19.743  0.00  0.00    +0.000 N 
ATOM     22  H   UNL     1       2.187   8.599  18.936  0.00  0.00    +0.000 HD
BRANCH  20  23
ATOM     23  C   UNL     1       3.041   6.161  18.708  0.00  0.00    +0.000 A 
ATOM     24  C   UNL     1       3.707   7.084  17.888  0.00  0.00    +0.000 A 
ATOM     25  C   UNL     1       4.571   6.630  16.887  0.00  0.00    +0.000 A 
ATOM     26  C   UNL     1       4.758   5.262  16.701  0.00  0.00    +0.000 A 
ATOM     27  C   UNL     1       4.075   4.356  17.507  0.00  0.00    +0.000 A 
ATOM     28  F   UNL     1       4.249   3.043  17.320  0.00  0.00    +0.000 F 
ATOM     29  C   UNL     1       3.217   4.789  18.510  0.00  0.00    +0.000 A 
ENDBRANCH  20  23
ENDBRANCH   1  21
TORSDOF 4
ENDMDL
