MODEL 1
REMARK VINA RESULT:      -8.5      0.000      0.000
REMARK  Name = 
REMARK  7 active torsions:
REMARK  status: ('A' for Active; 'I' for Inactive)
REMARK    1  A    between atoms: C_1  and  O_2
REMARK    2  A    between atoms: O_2  and  C_3
REMARK    3  A    between atoms: C_6  and  C_7
REMARK    4  A    between atoms: N_12  and  C_13
REMARK    5  A    between atoms: C_13  and  C_14
REMARK    6  A    between atoms: C_14  and  N_15
REMARK    7  A    between atoms: N_18  and  C_19
REMARK                            x       y       z     vdW  Elec       q    Type
REMARK                         _______ _______ _______ _____ _____    ______ ____
ROOT
ATOM      1  C   UNL     1       3.328   7.027  18.186  0.00  0.00    +0.000 A 
ATOM      2  C   UNL     1       2.708   8.234  17.879  0.00  0.00    +0.000 A 
ATOM      3  C   UNL     1       1.859   8.579  18.966  0.00  0.00    +0.000 A 
ATOM      4  C   UNL     1       0.898   9.635  19.147  0.00  0.00    +0.000 A 
ATOM      5  O   UNL     1       0.735  10.505  18.297  0.00  0.00    +0.000 OA
ATOM      6  N   UNL     1       0.184   9.598  20.346  0.00  0.00    +0.000 N 
ATOM      7  C   UNL     1       0.398   8.664  21.347  0.00  0.00    +0.000 A 
ATOM      8  O   UNL     1      -0.116   8.621  22.450  0.00  0.00    +0.000 OA
ATOM      9  N   UNL     1       1.383   7.668  21.106  0.00  0.00    +0.000 N 
ATOM     10  C   UNL     1       2.076   7.643  19.933  0.00  0.00    +0.000 A 
ATOM     11  N   UNL     1       3.021   6.761  19.509  0.00  0.00    +0.000 N 
ATOM     12  H   UNL     1       1.542   6.993  21.843  0.00  0.00    +0.000 HD
ATOM     13  H   UNL     1       3.385   5.976  20.034  0.00  0.00    +0.000 HD
ENDROOT
BRANCH   1  17
ATOM     14  C   UNL     1       5.383   4.280  15.622  0.00  0.00    +0.000 A 
ATOM     15  C   UNL     1       5.444   5.652  15.377  0.00  0.00    +0.000 A 
ATOM     16  C   UNL     1       4.812   6.560  16.234  0.00  0.00    +0.000 A 
ATOM     17  C   UNL     1       4.091   6.103  17.343  0.00  0.00    +0.000 A 
ATOM     18  C   UNL     1       4.027   4.720  17.573  0.00  0.00    +0.000 A 
ATOM     19  C   UNL     1       4.665   3.814  16.719  0.00  0.00    +0.000 A 
BRANCH  14  21
ATOM     20  C   UNL     1       6.669   4.179  13.642  0.00  0.00    +0.000 C 
ATOM     21  O   UNL     1       6.019   3.492  14.707  0.00  0.00    +0.000 OA
ENDBRANCH  14  21
ENDBRANCH   1  17
BRANCH   6  22
ATOM     22  C   UNL     1      -0.743  10.695  20.619  0.00  0.00    +0.000 C 
BRANCH  22  23
ATOM     23  C   UNL     1      -0.124  11.937  21.313  0.00  0.00    +0.000 C 
BRANCH  23  24
ATOM     24  N   UNL     1      -0.894  13.195  21.230  0.00  0.00    +0.000 NA
ATOM     25  C   UNL     1      -0.114  14.409  21.577  0.00  0.00    +0.000 C 
ATOM     26  C   UNL     1       0.999  14.802  20.581  0.00  0.00    +0.000 C 
ATOM     27  N   UNL     1       0.450  14.961  19.231  0.00  0.00    +0.000 N 
ATOM     28  C   UNL     1      -0.392  13.854  18.752  0.00  0.00    +0.000 C 
ATOM     29  C   UNL     1      -1.414  13.402  19.841  0.00  0.00    +0.000 C 
BRANCH  27  30
ATOM     30  C   UNL     1       0.584  16.151  18.524  0.00  0.00    +0.000 A 
ATOM     31  C   UNL     1      -0.544  16.982  18.351  0.00  0.00    +0.000 A 
ATOM     32  C   UNL     1      -0.492  18.201  17.664  0.00  0.00    +0.000 A 
ATOM     33  C   UNL     1       0.701  18.630  17.104  0.00  0.00    +0.000 A 
ATOM     34  C   UNL     1       1.838  17.842  17.243  0.00  0.00    +0.000 A 
ATOM     35  C   UNL     1       1.788  16.626  17.948  0.00  0.00    +0.000 A 
ATOM     36 CL   UNL     1       3.312  15.819  18.149  0.00  0.00    +0.000 Cl
ENDBRANCH  27  30
ENDBRANCH  23  24
ENDBRANCH  22  23
ENDBRANCH   6  22
TORSDOF 6
ENDMDL
MODEL 2
REMARK VINA RESULT:      -8.4      1.003      1.288
REMARK  Name = 
REMARK  7 active torsions:
REMARK  status: ('A' for Active; 'I' for Inactive)
REMARK    1  A    between atoms: C_1  and  O_2
REMARK    2  A    between atoms: O_2  and  C_3
REMARK    3  A    between atoms: C_6  and  C_7
REMARK    4  A    between atoms: N_12  and  C_13
REMARK    5  A    between atoms: C_13  and  C_14
REMARK    6  A    between atoms: C_14  and  N_15
REMARK    7  A    between atoms: N_18  and  C_19
REMARK                            x       y       z     vdW  Elec       q    Type
REMARK                         _______ _______ _______ _____ _____    ______ ____
ROOT
ATOM      1  C   UNL     1       3.152   7.139  18.400  0.00  0.00    +0.000 A 
ATOM      2  C   UNL     1       2.527   8.333  18.055  0.00  0.00    +0.000 A 
ATOM      3  C   UNL     1       1.699   8.723  19.143  0.00  0.00    +0.000 A 
ATOM      4  C   UNL     1       0.742   9.787  19.299  0.00  0.00    +0.000 A 
ATOM      5  O   UNL     1       0.562  10.622  18.416  0.00  0.00    +0.000 OA
ATOM      6  N   UNL     1       0.051   9.802  20.512  0.00  0.00    +0.000 N 
ATOM      7  C   UNL     1       0.285   8.909  21.546  0.00  0.00    +0.000 A 
ATOM      8  O   UNL     1      -0.207   8.913  22.660  0.00  0.00    +0.000 OA
ATOM      9  N   UNL     1       1.264   7.903  21.329  0.00  0.00    +0.000 N 
ATOM     10  C   UNL     1       1.935   7.828  20.144  0.00  0.00    +0.000 A 
ATOM     11  N   UNL     1       2.872   6.929  19.739  0.00  0.00    +0.000 N 
ATOM     12  H   UNL     1       1.438   7.260  22.090  0.00  0.00    +0.000 HD
ATOM     13  H   UNL     1       3.245   6.166  20.289  0.00  0.00    +0.000 HD
ENDROOT
BRANCH   1  17
ATOM     14  C   UNL     1       5.172   4.329  15.878  0.00  0.00    +0.000 A 
ATOM     15  C   UNL     1       5.482   5.687  15.807  0.00  0.00    +0.000 A 
ATOM     16  C   UNL     1       4.858   6.607  16.657  0.00  0.00    +0.000 A 
ATOM     17  C   UNL     1       3.899   6.180  17.581  0.00  0.00    +0.000 A 
ATOM     18  C   UNL     1       3.587   4.812  17.636  0.00  0.00    +0.000 A 
ATOM     19  C   UNL     1       4.216   3.893  16.789  0.00  0.00    +0.000 A 
BRANCH  14  21
ATOM     20  C   UNL     1       6.444   4.202  13.890  0.00  0.00    +0.000 C 
ATOM     21  O   UNL     1       5.827   3.531  14.984  0.00  0.00    +0.000 OA
ENDBRANCH  14  21
ENDBRANCH   1  17
BRANCH   6  22
ATOM     22  C   UNL     1      -0.869  10.909  20.757  0.00  0.00    +0.000 C 
BRANCH  22  23
ATOM     23  C   UNL     1      -0.259  12.139  21.479  0.00  0.00    +0.000 C 
BRANCH  23  24
ATOM     24  N   UNL     1      -0.998  13.414  21.358  0.00  0.00    +0.000 NA
ATOM     25  C   UNL     1      -0.195  14.616  21.696  0.00  0.00    +0.000 C 
ATOM     26  C   UNL     1       0.944  14.963  20.713  0.00  0.00    +0.000 C 
ATOM     27  N   UNL     1       0.423  15.108  19.351  0.00  0.00    +0.000 N 
ATOM     28  C   UNL     1      -0.437  14.012  18.878  0.00  0.00    +0.000 C 
ATOM     29  C   UNL     1      -1.487  13.605  19.957  0.00  0.00    +0.000 C 
BRANCH  27  30
ATOM     30  C   UNL     1       0.597  16.280  18.623  0.00  0.00    +0.000 A 
ATOM     31  C   UNL     1       1.787  16.466  17.886  0.00  0.00    +0.000 A 
ATOM     32  C   UNL     1       2.034  17.610  17.118  0.00  0.00    +0.000 A 
ATOM     33  C   UNL     1       1.097  18.631  17.073  0.00  0.00    +0.000 A 
ATOM     34  C   UNL     1      -0.087  18.495  17.789  0.00  0.00    +0.000 A 
ATOM     35  C   UNL     1      -0.343  17.338  18.546  0.00  0.00    +0.000 A 
ATOM     36 CL   UNL     1      -1.916  17.258  19.277  0.00  0.00    +0.000 Cl
ENDBRANCH  27  30
ENDBRANCH  23  24
ENDBRANCH  22  23
ENDBRANCH   6  22
TORSDOF 6
ENDMDL
MODEL 3
REMARK VINA RESULT:      -8.2      3.229      4.709
REMARK  Name = 
REMARK  7 active torsions:
REMARK  status: ('A' for Active; 'I' for Inactive)
REMARK    1  A    between atoms: C_1  and  O_2
REMARK    2  A    between atoms: O_2  and  C_3
REMARK    3  A    between atoms: C_6  and  C_7
REMARK    4  A    between atoms: N_12  and  C_13
REMARK    5  A    between atoms: C_13  and  C_14
REMARK    6  A    between atoms: C_14  and  N_15
REMARK    7  A    between atoms: N_18  and  C_19
REMARK                            x       y       z     vdW  Elec       q    Type
REMARK                         _______ _______ _______ _____ _____    ______ ____
ROOT
ATOM      1  C   UNL     1       3.227   7.082  18.303  0.00  0.00    +0.000 A 
ATOM      2  C   UNL     1       2.630   8.289  17.951  0.00  0.00    +0.000 A 
ATOM      3  C   UNL     1       1.754   8.667  19.004  0.00  0.00    +0.000 A 
ATOM      4  C   UNL     1       0.800   9.737  19.133  0.00  0.00    +0.000 A 
ATOM      5  O   UNL     1       0.671  10.590  18.259  0.00  0.00    +0.000 OA
ATOM      6  N   UNL     1       0.050   9.736  20.311  0.00  0.00    +0.000 N 
ATOM      7  C   UNL     1       0.225   8.822  21.339  0.00  0.00    +0.000 A 
ATOM      8  O   UNL     1      -0.321   8.810  22.427  0.00  0.00    +0.000 OA
ATOM      9  N   UNL     1       1.205   7.811  21.150  0.00  0.00    +0.000 N 
ATOM     10  C   UNL     1       1.932   7.751  19.998  0.00  0.00    +0.000 A 
ATOM     11  N   UNL     1       2.880   6.850  19.622  0.00  0.00    +0.000 N 
ATOM     12  H   UNL     1       1.335   7.151  21.907  0.00  0.00    +0.000 HD
ATOM     13  H   UNL     1       3.219   6.074  20.176  0.00  0.00    +0.000 HD
ENDROOT
BRANCH   1  17
ATOM     14  C   UNL     1       5.338   4.289  15.838  0.00  0.00    +0.000 A 
ATOM     15  C   UNL     1       5.607   5.655  15.743  0.00  0.00    +0.000 A 
ATOM     16  C   UNL     1       4.953   6.570  16.575  0.00  0.00    +0.000 A 
ATOM     17  C   UNL     1       4.005   6.131  17.504  0.00  0.00    +0.000 A 
ATOM     18  C   UNL     1       3.734   4.756  17.583  0.00  0.00    +0.000 A 
ATOM     19  C   UNL     1       4.393   3.841  16.755  0.00  0.00    +0.000 A 
BRANCH  14  21
ATOM     20  C   UNL     1       6.349   4.093  13.711  0.00  0.00    +0.000 C 
ATOM     21  O   UNL     1       6.020   3.495  14.961  0.00  0.00    +0.000 OA
ENDBRANCH  14  21
ENDBRANCH   1  17
BRANCH   6  22
ATOM     22  C   UNL     1      -0.871  10.848  20.532  0.00  0.00    +0.000 C 
BRANCH  22  23
ATOM     23  C   UNL     1      -0.454  11.853  21.638  0.00  0.00    +0.000 C 
BRANCH  23  24
ATOM     24  N   UNL     1      -1.046  13.206  21.562  0.00  0.00    +0.000 NA
ATOM     25  C   UNL     1      -2.322  13.269  20.807  0.00  0.00    +0.000 C 
ATOM     26  C   UNL     1      -3.530  12.570  21.466  0.00  0.00    +0.000 C 
ATOM     27  N   UNL     1      -3.753  13.091  22.818  0.00  0.00    +0.000 N 
ATOM     28  C   UNL     1      -2.566  13.138  23.686  0.00  0.00    +0.000 C 
ATOM     29  C   UNL     1      -1.334  13.730  22.934  0.00  0.00    +0.000 C 
BRANCH  27  30
ATOM     30  C   UNL     1      -4.968  13.656  23.192  0.00  0.00    +0.000 A 
ATOM     31  C   UNL     1      -5.999  12.820  23.674  0.00  0.00    +0.000 A 
ATOM     32  C   UNL     1      -7.245  13.310  24.082  0.00  0.00    +0.000 A 
ATOM     33  C   UNL     1      -7.516  14.667  24.006  0.00  0.00    +0.000 A 
ATOM     34  C   UNL     1      -6.533  15.529  23.531  0.00  0.00    +0.000 A 
ATOM     35  C   UNL     1      -5.275  15.038  23.138  0.00  0.00    +0.000 A 
ATOM     36 CL   UNL     1      -4.110  16.246  22.692  0.00  0.00    +0.000 Cl
ENDBRANCH  27  30
ENDBRANCH  23  24
ENDBRANCH  22  23
ENDBRANCH   6  22
TORSDOF 6
ENDMDL
MODEL 4
REMARK VINA RESULT:      -8.2      4.930      8.607
REMARK  Name = 
REMARK  7 active torsions:
REMARK  status: ('A' for Active; 'I' for Inactive)
REMARK    1  A    between atoms: C_1  and  O_2
REMARK    2  A    between atoms: O_2  and  C_3
REMARK    3  A    between atoms: C_6  and  C_7
REMARK    4  A    between atoms: N_12  and  C_13
REMARK    5  A    between atoms: C_13  and  C_14
REMARK    6  A    between atoms: C_14  and  N_15
REMARK    7  A    between atoms: N_18  and  C_19
REMARK                            x       y       z     vdW  Elec       q    Type
REMARK                         _______ _______ _______ _____ _____    ______ ____
ROOT
ATOM      1  C   UNL     1       8.642   8.750  18.415  0.00  0.00    +0.000 A 
ATOM      2  C   UNL     1       8.372   7.602  19.153  0.00  0.00    +0.000 A 
ATOM      3  C   UNL     1       7.474   6.798  18.400  0.00  0.00    +0.000 A 
ATOM      4  C   UNL     1       6.769   5.583  18.710  0.00  0.00    +0.000 A 
ATOM      5  O   UNL     1       6.940   4.996  19.775  0.00  0.00    +0.000 OA
ATOM      6  N   UNL     1       5.896   5.125  17.721  0.00  0.00    +0.000 N 
ATOM      7  C   UNL     1       5.736   5.735  16.486  0.00  0.00    +0.000 A 
ATOM      8  O   UNL     1       5.069   5.348  15.544  0.00  0.00    +0.000 OA
ATOM      9  N   UNL     1       6.488   6.916  16.243  0.00  0.00    +0.000 N 
ATOM     10  C   UNL     1       7.322   7.420  17.196  0.00  0.00    +0.000 A 
ATOM     11  N   UNL     1       8.090   8.542  17.164  0.00  0.00    +0.000 N 
ATOM     12  H   UNL     1       6.375   7.352  15.337  0.00  0.00    +0.000 HD
ATOM     13  H   UNL     1       8.180   9.183  16.385  0.00  0.00    +0.000 HD
ENDROOT
BRANCH   1  17
ATOM     14  C   UNL     1      10.350  12.523  19.502  0.00  0.00    +0.000 A 
ATOM     15  C   UNL     1       9.870  11.659  20.486  0.00  0.00    +0.000 A 
ATOM     16  C   UNL     1       9.350  10.406  20.144  0.00  0.00    +0.000 A 
ATOM     17  C   UNL     1       9.287  10.007  18.804  0.00  0.00    +0.000 A 
ATOM     18  C   UNL     1       9.762  10.890  17.822  0.00  0.00    +0.000 A 
ATOM     19  C   UNL     1      10.287  12.140  18.166  0.00  0.00    +0.000 A 
BRANCH  14  21
ATOM     20  C   UNL     1      11.767  14.376  19.119  0.00  0.00    +0.000 C 
ATOM     21  O   UNL     1      10.813  13.726  19.954  0.00  0.00    +0.000 OA
ENDBRANCH  14  21
ENDBRANCH   1  17
BRANCH   6  22
ATOM     22  C   UNL     1       5.219   3.850  17.948  0.00  0.00    +0.000 C 
BRANCH  22  23
ATOM     23  C   UNL     1       4.141   3.854  19.064  0.00  0.00    +0.000 C 
BRANCH  23  24
ATOM     24  N   UNL     1       2.780   4.274  18.670  0.00  0.00    +0.000 NA
ATOM     25  C   UNL     1       1.854   4.481  19.811  0.00  0.00    +0.000 C 
ATOM     26  C   UNL     1       2.167   5.686  20.724  0.00  0.00    +0.000 C 
ATOM     27  N   UNL     1       2.236   6.922  19.940  0.00  0.00    +0.000 N 
ATOM     28  C   UNL     1       3.084   6.868  18.739  0.00  0.00    +0.000 C 
ATOM     29  C   UNL     1       2.827   5.567  17.917  0.00  0.00    +0.000 C 
BRANCH  27  30
ATOM     30  C   UNL     1       1.422   8.014  20.224  0.00  0.00    +0.000 A 
ATOM     31  C   UNL     1       0.749   8.069  21.464  0.00  0.00    +0.000 A 
ATOM     32  C   UNL     1      -0.078   9.138  21.832  0.00  0.00    +0.000 A 
ATOM     33  C   UNL     1      -0.277  10.194  20.957  0.00  0.00    +0.000 A 
ATOM     34  C   UNL     1       0.361  10.180  19.722  0.00  0.00    +0.000 A 
ATOM     35  C   UNL     1       1.206   9.115  19.359  0.00  0.00    +0.000 A 
ATOM     36 CL   UNL     1       2.032   9.302  17.844  0.00  0.00    +0.000 Cl
ENDBRANCH  27  30
ENDBRANCH  23  24
ENDBRANCH  22  23
ENDBRANCH   6  22
TORSDOF 6
ENDMDL
MODEL 5
REMARK VINA RESULT:      -7.8      3.173      4.303
REMARK  Name = 
REMARK  7 active torsions:
REMARK  status: ('A' for Active; 'I' for Inactive)
REMARK    1  A    between atoms: C_1  and  O_2
REMARK    2  A    between atoms: O_2  and  C_3
REMARK    3  A    between atoms: C_6  and  C_7
REMARK    4  A    between atoms: N_12  and  C_13
REMARK    5  A    between atoms: C_13  and  C_14
REMARK    6  A    between atoms: C_14  and  N_15
REMARK    7  A    between atoms: N_18  and  C_19
REMARK                            x       y       z     vdW  Elec       q    Type
REMARK                         _______ _______ _______ _____ _____    ______ ____
ROOT
ATOM      1  C   UNL     1       3.240   7.072  18.298  0.00  0.00    +0.000 A 
ATOM      2  C   UNL     1       2.620   8.272  17.965  0.00  0.00    +0.000 A 
ATOM      3  C   UNL     1       1.767   8.639  19.041  0.00  0.00    +0.000 A 
ATOM      4  C   UNL     1       0.805   9.697  19.198  0.00  0.00    +0.000 A 
ATOM      5  O   UNL     1       0.643  10.550  18.329  0.00  0.00    +0.000 OA
ATOM      6  N   UNL     1       0.087   9.685  20.395  0.00  0.00    +0.000 N 
ATOM      7  C   UNL     1       0.298   8.771  21.415  0.00  0.00    +0.000 A 
ATOM      8  O   UNL     1      -0.219   8.751  22.517  0.00  0.00    +0.000 OA
ATOM      9  N   UNL     1       1.285   7.772  21.199  0.00  0.00    +0.000 N 
ATOM     10  C   UNL     1       1.982   7.723  20.028  0.00  0.00    +0.000 A 
ATOM     11  N   UNL     1       2.930   6.834  19.626  0.00  0.00    +0.000 N 
ATOM     12  H   UNL     1       1.442   7.113  21.950  0.00  0.00    +0.000 HD
ATOM     13  H   UNL     1       3.293   6.060  20.168  0.00  0.00    +0.000 HD
ENDROOT
BRANCH   1  17
ATOM     14  C   UNL     1       5.319   4.312  15.770  0.00  0.00    +0.000 A 
ATOM     15  C   UNL     1       5.585   5.678  15.687  0.00  0.00    +0.000 A 
ATOM     16  C   UNL     1       4.942   6.583  16.539  0.00  0.00    +0.000 A 
ATOM     17  C   UNL     1       4.007   6.132  17.477  0.00  0.00    +0.000 A 
ATOM     18  C   UNL     1       3.740   4.755  17.544  0.00  0.00    +0.000 A 
ATOM     19  C   UNL     1       4.387   3.851  16.695  0.00  0.00    +0.000 A 
BRANCH  14  21
ATOM     20  C   UNL     1       6.573   4.212  13.769  0.00  0.00    +0.000 C 
ATOM     21  O   UNL     1       5.989   3.529  14.874  0.00  0.00    +0.000 OA
ENDBRANCH  14  21
ENDBRANCH   1  17
BRANCH   6  22
ATOM     22  C   UNL     1      -0.842  10.786  20.642  0.00  0.00    +0.000 C 
BRANCH  22  23
ATOM     23  C   UNL     1      -0.217  12.061  21.269  0.00  0.00    +0.000 C 
BRANCH  23  24
ATOM     24  N   UNL     1      -0.750  13.358  20.803  0.00  0.00    +0.000 NA
ATOM     25  C   UNL     1      -2.136  13.292  20.278  0.00  0.00    +0.000 C 
ATOM     26  C   UNL     1      -3.238  12.996  21.318  0.00  0.00    +0.000 C 
ATOM     27  N   UNL     1      -3.192  13.973  22.410  0.00  0.00    +0.000 N 
ATOM     28  C   UNL     1      -1.867  14.191  23.013  0.00  0.00    +0.000 C 
ATOM     29  C   UNL     1      -0.764  14.352  21.922  0.00  0.00    +0.000 C 
BRANCH  27  30
ATOM     30  C   UNL     1      -4.293  14.757  22.735  0.00  0.00    +0.000 A 
ATOM     31  C   UNL     1      -4.398  16.058  22.196  0.00  0.00    +0.000 A 
ATOM     32  C   UNL     1      -5.480  16.906  22.464  0.00  0.00    +0.000 A 
ATOM     33  C   UNL     1      -6.499  16.486  23.304  0.00  0.00    +0.000 A 
ATOM     34  C   UNL     1      -6.435  15.214  23.863  0.00  0.00    +0.000 A 
ATOM     35  C   UNL     1      -5.357  14.356  23.580  0.00  0.00    +0.000 A 
ATOM     36 CL   UNL     1      -5.482  12.758  24.246  0.00  0.00    +0.000 Cl
ENDBRANCH  27  30
ENDBRANCH  23  24
ENDBRANCH  22  23
ENDBRANCH   6  22
TORSDOF 6
ENDMDL
MODEL 6
REMARK VINA RESULT:      -7.7      2.658      3.854
REMARK  Name = 
REMARK  7 active torsions:
REMARK  status: ('A' for Active; 'I' for Inactive)
REMARK    1  A    between atoms: C_1  and  O_2
REMARK    2  A    between atoms: O_2  and  C_3
REMARK    3  A    between atoms: C_6  and  C_7
REMARK    4  A    between atoms: N_12  and  C_13
REMARK    5  A    between atoms: C_13  and  C_14
REMARK    6  A    between atoms: C_14  and  N_15
REMARK    7  A    between atoms: N_18  and  C_19
REMARK                            x       y       z     vdW  Elec       q    Type
REMARK                         _______ _______ _______ _____ _____    ______ ____
ROOT
ATOM      1  C   UNL     1       3.056   7.191  18.274  0.00  0.00    +0.000 A 
ATOM      2  C   UNL     1       2.447   8.411  17.995  0.00  0.00    +0.000 A 
ATOM      3  C   UNL     1       1.644   8.765  19.113  0.00  0.00    +0.000 A 
ATOM      4  C   UNL     1       0.708   9.837  19.333  0.00  0.00    +0.000 A 
ATOM      5  O   UNL     1       0.530  10.714  18.492  0.00  0.00    +0.000 OA
ATOM      6  N   UNL     1       0.037   9.807  20.556  0.00  0.00    +0.000 N 
ATOM      7  C   UNL     1       0.271   8.864  21.545  0.00  0.00    +0.000 A 
ATOM      8  O   UNL     1      -0.204   8.825  22.666  0.00  0.00    +0.000 OA
ATOM      9  N   UNL     1       1.229   7.853  21.266  0.00  0.00    +0.000 N 
ATOM     10  C   UNL     1       1.879   7.821  20.068  0.00  0.00    +0.000 A 
ATOM     11  N   UNL     1       2.793   6.925  19.607  0.00  0.00    +0.000 N 
ATOM     12  H   UNL     1       1.403   7.172  21.994  0.00  0.00    +0.000 HD
ATOM     13  H   UNL     1       3.162   6.132  20.115  0.00  0.00    +0.000 HD
ENDROOT
BRANCH   1  17
ATOM     14  C   UNL     1       5.315   4.481  15.849  0.00  0.00    +0.000 A 
ATOM     15  C   UNL     1       4.363   3.996  16.745  0.00  0.00    +0.000 A 
ATOM     16  C   UNL     1       3.590   4.876  17.510  0.00  0.00    +0.000 A 
ATOM     17  C   UNL     1       3.773   6.258  17.401  0.00  0.00    +0.000 A 
ATOM     18  C   UNL     1       4.743   6.734  16.504  0.00  0.00    +0.000 A 
ATOM     19  C   UNL     1       5.510   5.853  15.735  0.00  0.00    +0.000 A 
BRANCH  14  21
ATOM     20  C   UNL     1       6.225   3.773  13.785  0.00  0.00    +0.000 C 
ATOM     21  O   UNL     1       6.024   3.528  15.174  0.00  0.00    +0.000 OA
ENDBRANCH  14  21
ENDBRANCH   1  17
BRANCH   6  22
ATOM     22  C   UNL     1      -0.860  10.918  20.867  0.00  0.00    +0.000 C 
BRANCH  22  23
ATOM     23  C   UNL     1      -0.219  12.099  21.643  0.00  0.00    +0.000 C 
BRANCH  23  24
ATOM     24  N   UNL     1      -0.462  13.455  21.106  0.00  0.00    +0.000 NA
ATOM     25  C   UNL     1      -1.884  13.736  20.788  0.00  0.00    +0.000 C 
ATOM     26  C   UNL     1      -2.838  13.836  21.997  0.00  0.00    +0.000 C 
ATOM     27  N   UNL     1      -2.359  14.841  22.950  0.00  0.00    +0.000 N 
ATOM     28  C   UNL     1      -0.943  14.728  23.336  0.00  0.00    +0.000 C 
ATOM     29  C   UNL     1      -0.030  14.495  22.093  0.00  0.00    +0.000 C 
BRANCH  27  30
ATOM     30  C   UNL     1      -3.147  15.922  23.330  0.00  0.00    +0.000 A 
ATOM     31  C   UNL     1      -3.774  15.909  24.594  0.00  0.00    +0.000 A 
ATOM     32  C   UNL     1      -4.573  16.962  25.057  0.00  0.00    +0.000 A 
ATOM     33  C   UNL     1      -4.789  18.072  24.256  0.00  0.00    +0.000 A 
ATOM     34  C   UNL     1      -4.196  18.127  22.999  0.00  0.00    +0.000 A 
ATOM     35  C   UNL     1      -3.380  17.077  22.542  0.00  0.00    +0.000 A 
ATOM     36 CL   UNL     1      -2.606  17.347  21.012  0.00  0.00    +0.000 Cl
ENDBRANCH  27  30
ENDBRANCH  23  24
ENDBRANCH  22  23
ENDBRANCH   6  22
TORSDOF 6
ENDMDL
MODEL 7
REMARK VINA RESULT:      -7.6      3.516      4.751
REMARK  Name = 
REMARK  7 active torsions:
REMARK  status: ('A' for Active; 'I' for Inactive)
REMARK    1  A    between atoms: C_1  and  O_2
REMARK    2  A    between atoms: O_2  and  C_3
REMARK    3  A    between atoms: C_6  and  C_7
REMARK    4  A    between atoms: N_12  and  C_13
REMARK    5  A    between atoms: C_13  and  C_14
REMARK    6  A    between atoms: C_14  and  N_15
REMARK    7  A    between atoms: N_18  and  C_19
REMARK                            x       y       z     vdW  Elec       q    Type
REMARK                         _______ _______ _______ _____ _____    ______ ____
ROOT
ATOM      1  C   UNL     1       2.374   7.564  18.446  0.00  0.00    +0.000 A 
ATOM      2  C   UNL     1       1.945   7.801  19.748  0.00  0.00    +0.000 A 
ATOM      3  C   UNL     1       1.372   9.101  19.791  0.00  0.00    +0.000 A 
ATOM      4  C   UNL     1       0.885   9.910  20.877  0.00  0.00    +0.000 A 
ATOM      5  O   UNL     1       0.845   9.481  22.027  0.00  0.00    +0.000 OA
ATOM      6  N   UNL     1       0.461  11.193  20.528  0.00  0.00    +0.000 N 
ATOM      7  C   UNL     1       0.436  11.674  19.228  0.00  0.00    +0.000 A 
ATOM      8  O   UNL     1      -0.002  12.739  18.835  0.00  0.00    +0.000 OA
ATOM      9  N   UNL     1       0.907  10.807  18.205  0.00  0.00    +0.000 N 
ATOM     10  C   UNL     1       1.366   9.559  18.507  0.00  0.00    +0.000 A 
ATOM     11  N   UNL     1       1.882   8.608  17.682  0.00  0.00    +0.000 N 
ATOM     12  H   UNL     1       0.878  11.158  17.257  0.00  0.00    +0.000 HD
ATOM     13  H   UNL     1       1.980   8.678  16.677  0.00  0.00    +0.000 HD
ENDROOT
BRANCH   1  17
ATOM     14  C   UNL     1       4.779   4.489  16.687  0.00  0.00    +0.000 A 
ATOM     15  C   UNL     1       5.170   5.825  16.598  0.00  0.00    +0.000 A 
ATOM     16  C   UNL     1       4.413   6.832  17.206  0.00  0.00    +0.000 A 
ATOM     17  C   UNL     1       3.241   6.516  17.900  0.00  0.00    +0.000 A 
ATOM     18  C   UNL     1       2.851   5.169  17.974  0.00  0.00    +0.000 A 
ATOM     19  C   UNL     1       3.612   4.163  17.370  0.00  0.00    +0.000 A 
BRANCH  14  21
ATOM     20  C   UNL     1       6.087   4.025  14.774  0.00  0.00    +0.000 C 
ATOM     21  O   UNL     1       5.583   3.598  16.036  0.00  0.00    +0.000 OA
ENDBRANCH  14  21
ENDBRANCH   1  17
BRANCH   6  22
ATOM     22  C   UNL     1      -0.123  12.026  21.578  0.00  0.00    +0.000 C 
BRANCH  22  23
ATOM     23  C   UNL     1      -1.649  11.856  21.795  0.00  0.00    +0.000 C 
BRANCH  23  24
ATOM     24  N   UNL     1      -2.530  12.815  21.094  0.00  0.00    +0.000 NA
ATOM     25  C   UNL     1      -3.925  12.839  21.600  0.00  0.00    +0.000 C 
ATOM     26  C   UNL     1      -4.117  13.409  23.021  0.00  0.00    +0.000 C 
ATOM     27  N   UNL     1      -3.556  14.759  23.116  0.00  0.00    +0.000 N 
ATOM     28  C   UNL     1      -2.183  14.915  22.609  0.00  0.00    +0.000 C 
ATOM     29  C   UNL     1      -2.001  14.208  21.230  0.00  0.00    +0.000 C 
BRANCH  27  30
ATOM     30  C   UNL     1      -4.331  15.847  23.504  0.00  0.00    +0.000 A 
ATOM     31  C   UNL     1      -4.110  16.437  24.767  0.00  0.00    +0.000 A 
ATOM     32  C   UNL     1      -4.838  17.541  25.227  0.00  0.00    +0.000 A 
ATOM     33  C   UNL     1      -5.835  18.092  24.438  0.00  0.00    +0.000 A 
ATOM     34  C   UNL     1      -6.092  17.541  23.188  0.00  0.00    +0.000 A 
ATOM     35  C   UNL     1      -5.349  16.442  22.719  0.00  0.00    +0.000 A 
ATOM     36 CL   UNL     1      -5.696  15.948  21.091  0.00  0.00    +0.000 Cl
ENDBRANCH  27  30
ENDBRANCH  23  24
ENDBRANCH  22  23
ENDBRANCH   6  22
TORSDOF 6
ENDMDL
MODEL 8
REMARK VINA RESULT:      -7.6      1.888      2.623
REMARK  Name = 
REMARK  7 active torsions:
REMARK  status: ('A' for Active; 'I' for Inactive)
REMARK    1  A    between atoms: C_1  and  O_2
REMARK    2  A    between atoms: O_2  and  C_3
REMARK    3  A    between atoms: C_6  and  C_7
REMARK    4  A    between atoms: N_12  and  C_13
REMARK    5  A    between atoms: C_13  and  C_14
REMARK    6  A    between atoms: C_14  and  N_15
REMARK    7  A    between atoms: N_18  and  C_19
REMARK                            x       y       z     vdW  Elec       q    Type
REMARK                         _______ _______ _______ _____ _____    ______ ____
ROOT
ATOM      1  C   UNL     1       2.754   7.414  18.519  0.00  0.00    +0.000 A 
ATOM      2  C   UNL     1       2.137   8.601  18.138  0.00  0.00    +0.000 A 
ATOM      3  C   UNL     1       1.338   9.048  19.225  0.00  0.00    +0.000 A 
ATOM      4  C   UNL     1       0.399  10.130  19.357  0.00  0.00    +0.000 A 
ATOM      5  O   UNL     1       0.211  10.930  18.444  0.00  0.00    +0.000 OA
ATOM      6  N   UNL     1      -0.265  10.205  20.582  0.00  0.00    +0.000 N 
ATOM      7  C   UNL     1      -0.021   9.354  21.649  0.00  0.00    +0.000 A 
ATOM      8  O   UNL     1      -0.488   9.411  22.771  0.00  0.00    +0.000 OA
ATOM      9  N   UNL     1       0.941   8.327  21.453  0.00  0.00    +0.000 N 
ATOM     10  C   UNL     1       1.584   8.193  20.258  0.00  0.00    +0.000 A 
ATOM     11  N   UNL     1       2.500   7.264  19.872  0.00  0.00    +0.000 N 
ATOM     12  H   UNL     1       1.123   7.713  22.237  0.00  0.00    +0.000 HD
ATOM     13  H   UNL     1       2.876   6.520  20.446  0.00  0.00    +0.000 HD
ENDROOT
BRANCH   1  17
ATOM     14  C   UNL     1       5.003   4.492  16.342  0.00  0.00    +0.000 A 
ATOM     15  C   UNL     1       3.953   4.097  17.171  0.00  0.00    +0.000 A 
ATOM     16  C   UNL     1       3.186   5.047  17.853  0.00  0.00    +0.000 A 
ATOM     17  C   UNL     1       3.471   6.411  17.727  0.00  0.00    +0.000 A 
ATOM     18  C   UNL     1       4.536   6.796  16.898  0.00  0.00    +0.000 A 
ATOM     19  C   UNL     1       5.299   5.845  16.212  0.00  0.00    +0.000 A 
BRANCH  14  21
ATOM     20  C   UNL     1       6.325   3.796  14.510  0.00  0.00    +0.000 C 
ATOM     21  O   UNL     1       5.694   3.476  15.746  0.00  0.00    +0.000 OA
ENDBRANCH  14  21
ENDBRANCH   1  17
BRANCH   6  22
ATOM     22  C   UNL     1      -1.166  11.335  20.800  0.00  0.00    +0.000 C 
BRANCH  22  23
ATOM     23  C   UNL     1      -0.520  12.740  20.674  0.00  0.00    +0.000 C 
BRANCH  23  24
ATOM     24  N   UNL     1       0.614  13.032  21.576  0.00  0.00    +0.000 NA
ATOM     25  C   UNL     1       1.940  12.657  21.025  0.00  0.00    +0.000 C 
ATOM     26  C   UNL     1       2.432  13.493  19.824  0.00  0.00    +0.000 C 
ATOM     27  N   UNL     1       2.445  14.920  20.160  0.00  0.00    +0.000 N 
ATOM     28  C   UNL     1       1.210  15.443  20.763  0.00  0.00    +0.000 C 
ATOM     29  C   UNL     1       0.677  14.496  21.883  0.00  0.00    +0.000 C 
BRANCH  27  30
ATOM     30  C   UNL     1       3.605  15.682  20.067  0.00  0.00    +0.000 A 
ATOM     31  C   UNL     1       4.386  15.896  21.223  0.00  0.00    +0.000 A 
ATOM     32  C   UNL     1       5.572  16.640  21.211  0.00  0.00    +0.000 A 
ATOM     33  C   UNL     1       6.017  17.217  20.033  0.00  0.00    +0.000 A 
ATOM     34  C   UNL     1       5.278  17.037  18.869  0.00  0.00    +0.000 A 
ATOM     35  C   UNL     1       4.095  16.276  18.877  0.00  0.00    +0.000 A 
ATOM     36 CL   UNL     1       3.355  16.033  17.326  0.00  0.00    +0.000 Cl
ENDBRANCH  27  30
ENDBRANCH  23  24
ENDBRANCH  22  23
ENDBRANCH   6  22
TORSDOF 6
ENDMDL
MODEL 9
REMARK VINA RESULT:      -7.6      3.516      4.726
REMARK  Name = 
REMARK  7 active torsions:
REMARK  status: ('A' for Active; 'I' for Inactive)
REMARK    1  A    between atoms: C_1  and  O_2
REMARK    2  A    between atoms: O_2  and  C_3
REMARK    3  A    between atoms: C_6  and  C_7
REMARK    4  A    between atoms: N_12  and  C_13
REMARK    5  A    between atoms: C_13  and  C_14
REMARK    6  A    between atoms: C_14  and  N_15
REMARK    7  A    between atoms: N_18  and  C_19
REMARK                            x       y       z     vdW  Elec       q    Type
REMARK                         _______ _______ _______ _____ _____    ______ ____
ROOT
ATOM      1  C   UNL     1       3.181   7.116  18.386  0.00  0.00    +0.000 A 
ATOM      2  C   UNL     1       2.733   8.394  18.065  0.00  0.00    +0.000 A 
ATOM      3  C   UNL     1       1.815   8.801  19.071  0.00  0.00    +0.000 A 
ATOM      4  C   UNL     1       0.962   9.953  19.195  0.00  0.00    +0.000 A 
ATOM      5  O   UNL     1       0.986  10.860  18.367  0.00  0.00    +0.000 OA
ATOM      6  N   UNL     1       0.124   9.965  20.312  0.00  0.00    +0.000 N 
ATOM      7  C   UNL     1       0.127   8.984  21.291  0.00  0.00    +0.000 A 
ATOM      8  O   UNL     1      -0.503   8.968  22.333  0.00  0.00    +0.000 OA
ATOM      9  N   UNL     1       1.017   7.891  21.114  0.00  0.00    +0.000 N 
ATOM     10  C   UNL     1       1.825   7.820  20.018  0.00  0.00    +0.000 A 
ATOM     11  N   UNL     1       2.708   6.850  19.659  0.00  0.00    +0.000 N 
ATOM     12  H   UNL     1       1.022   7.182  21.837  0.00  0.00    +0.000 HD
ATOM     13  H   UNL     1       2.926   6.015  20.187  0.00  0.00    +0.000 HD
ENDROOT
BRANCH   1  17
ATOM     14  C   UNL     1       5.191   4.242  15.930  0.00  0.00    +0.000 A 
ATOM     15  C   UNL     1       5.501   5.597  15.823  0.00  0.00    +0.000 A 
ATOM     16  C   UNL     1       4.880   6.539  16.652  0.00  0.00    +0.000 A 
ATOM     17  C   UNL     1       3.924   6.136  17.590  0.00  0.00    +0.000 A 
ATOM     18  C   UNL     1       3.612   4.770  17.681  0.00  0.00    +0.000 A 
ATOM     19  C   UNL     1       4.238   3.829  16.856  0.00  0.00    +0.000 A 
BRANCH  14  21
ATOM     20  C   UNL     1       6.106   3.969  13.768  0.00  0.00    +0.000 C 
ATOM     21  O   UNL     1       5.843   3.420  15.056  0.00  0.00    +0.000 OA
ENDBRANCH  14  21
ENDBRANCH   1  17
BRANCH   6  22
ATOM     22  C   UNL     1      -0.701  11.150  20.531  0.00  0.00    +0.000 C 
BRANCH  22  23
ATOM     23  C   UNL     1      -2.105  11.120  19.871  0.00  0.00    +0.000 C 
BRANCH  23  24
ATOM     24  N   UNL     1      -2.673  12.422  19.460  0.00  0.00    +0.000 NA
ATOM     25  C   UNL     1      -4.153  12.431  19.352  0.00  0.00    +0.000 C 
ATOM     26  C   UNL     1      -4.927  12.297  20.680  0.00  0.00    +0.000 C 
ATOM     27  N   UNL     1      -4.515  13.339  21.625  0.00  0.00    +0.000 N 
ATOM     28  C   UNL     1      -3.063  13.490  21.812  0.00  0.00    +0.000 C 
ATOM     29  C   UNL     1      -2.309  13.487  20.447  0.00  0.00    +0.000 C 
BRANCH  27  30
ATOM     30  C   UNL     1      -5.430  14.230  22.175  0.00  0.00    +0.000 A 
ATOM     31  C   UNL     1      -5.691  15.449  21.513  0.00  0.00    +0.000 A 
ATOM     32  C   UNL     1      -6.606  16.394  21.993  0.00  0.00    +0.000 A 
ATOM     33  C   UNL     1      -7.289  16.159  23.176  0.00  0.00    +0.000 A 
ATOM     34  C   UNL     1      -7.060  14.974  23.867  0.00  0.00    +0.000 A 
ATOM     35  C   UNL     1      -6.153  14.018  23.375  0.00  0.00    +0.000 A 
ATOM     36 CL   UNL     1      -6.071  12.536  24.277  0.00  0.00    +0.000 Cl
ENDBRANCH  27  30
ENDBRANCH  23  24
ENDBRANCH  22  23
ENDBRANCH   6  22
TORSDOF 6
ENDMDL
