MODEL 1
REMARK VINA RESULT:      -6.9      0.000      0.000
REMARK  Name = 
REMARK  12 active torsions:
REMARK  status: ('A' for Active; 'I' for Inactive)
REMARK    1  A    between atoms: C_1  and  C_2
REMARK    2  A    between atoms: C_2  and  C_3
REMARK    3  A    between atoms: C_3  and  C_4
REMARK    4  A    between atoms: C_4  and  C_5
REMARK    5  A    between atoms: C_5  and  C_6
REMARK    6  A    between atoms: C_6  and  C_7
REMARK    7  A    between atoms: C_7  and  C_8
REMARK    8  A    between atoms: C_8  and  N_9
REMARK    9  A    between atoms: N_9  and  C_10
REMARK   10  A    between atoms: C_13  and  C_14
REMARK   11  A    between atoms: C_14  and  C_16
REMARK   12  A    between atoms: C_18  and  C_19
REMARK                            x       y       z     vdW  Elec       q    Type
REMARK                         _______ _______ _______ _____ _____    ______ ____
ROOT
ATOM      1  C   UNL     1       2.416   7.517  19.085  0.00  0.00    +0.000 A 
ATOM      2  C   UNL     1       1.712   7.961  20.212  0.00  0.00    +0.000 A 
ATOM      3  C   UNL     1       0.965   9.140  20.175  0.00  0.00    +0.000 A 
ATOM      4  C   UNL     1       0.871   9.891  19.000  0.00  0.00    +0.000 A 
ATOM      5  C   UNL     1       1.508   9.423  17.850  0.00  0.00    +0.000 A 
ATOM      6  C   UNL     1       2.271   8.246  17.898  0.00  0.00    +0.000 A 
ENDROOT
BRANCH   1   7
ATOM      7  N   UNL     1       3.192   6.346  19.062  0.00  0.00    +0.000 N 
ATOM      8  H   UNL     1       2.688   5.574  19.498  0.00  0.00    +0.000 HD
BRANCH   7   9
ATOM      9  C   UNL     1       3.818   5.991  17.795  0.00  0.00    +0.000 C 
BRANCH   9  10
ATOM     10  C   UNL     1       4.351   4.563  17.838  0.00  0.00    +0.000 C 
BRANCH  10  11
ATOM     11  C   UNL     1       3.425   3.638  17.050  0.00  0.00    +0.000 C 
BRANCH  11  12
ATOM     12  C   UNL     1       2.683   2.680  17.972  0.00  0.00    +0.000 C 
BRANCH  12  13
ATOM     13  C   UNL     1       1.244   3.146  18.205  0.00  0.00    +0.000 C 
BRANCH  13  14
ATOM     14  C   UNL     1       0.818   2.873  19.647  0.00  0.00    +0.000 C 
BRANCH  14  16
ATOM     15  C   UNL     1       2.255   3.693  21.534  0.00  0.00    +0.000 C 
ATOM     16  C   UNL     1       1.147   4.053  20.558  0.00  0.00    +0.000 C 
ENDBRANCH  14  16
ENDBRANCH  13  14
ENDBRANCH  12  13
ENDBRANCH  11  12
ENDBRANCH  10  11
ENDBRANCH   9  10
ENDBRANCH   7   9
ENDBRANCH   1   7
BRANCH   4  17
ATOM     17  C   UNL     1       0.102  11.165  19.064  0.00  0.00    +0.000 C 
ATOM     18  O   UNL     1       0.496  12.083  19.781  0.00  0.00    +0.000 OA
BRANCH  17  19
ATOM     19  C   UNL     1      -1.103  11.366  18.211  0.00  0.00    +0.000 C 
ATOM     20  C   UNL     1      -1.691  10.206  17.449  0.00  0.00    +0.000 C 
ATOM     21  C   UNL     1      -2.417  10.742  18.659  0.00  0.00    +0.000 C 
BRANCH  21  22
ATOM     22  C   UNL     1      -3.721  11.473  18.461  0.00  0.00    +0.000 A 
ATOM     23  C   UNL     1      -4.394  11.415  17.228  0.00  0.00    +0.000 A 
ATOM     24  C   UNL     1      -5.578  12.126  17.008  0.00  0.00    +0.000 A 
ATOM     25  C   UNL     1      -6.113  12.901  18.032  0.00  0.00    +0.000 A 
ATOM     26 CL   UNL     1      -7.546  13.811  17.758  0.00  0.00    +0.000 Cl
ATOM     27  C   UNL     1      -5.490  12.947  19.275  0.00  0.00    +0.000 A 
ATOM     28  C   UNL     1      -4.309  12.228  19.488  0.00  0.00    +0.000 A 
ENDBRANCH  21  22
ENDBRANCH  17  19
ENDBRANCH   4  17
TORSDOF 11
ENDMDL
MODEL 2
REMARK VINA RESULT:      -6.9      1.674      2.647
REMARK  Name = 
REMARK  12 active torsions:
REMARK  status: ('A' for Active; 'I' for Inactive)
REMARK    1  A    between atoms: C_1  and  C_2
REMARK    2  A    between atoms: C_2  and  C_3
REMARK    3  A    between atoms: C_3  and  C_4
REMARK    4  A    between atoms: C_4  and  C_5
REMARK    5  A    between atoms: C_5  and  C_6
REMARK    6  A    between atoms: C_6  and  C_7
REMARK    7  A    between atoms: C_7  and  C_8
REMARK    8  A    between atoms: C_8  and  N_9
REMARK    9  A    between atoms: N_9  and  C_10
REMARK   10  A    between atoms: C_13  and  C_14
REMARK   11  A    between atoms: C_14  and  C_16
REMARK   12  A    between atoms: C_18  and  C_19
REMARK                            x       y       z     vdW  Elec       q    Type
REMARK                         _______ _______ _______ _____ _____    ______ ____
ROOT
ATOM      1  C   UNL     1       3.442   6.644  18.072  0.00  0.00    +0.000 A 
ATOM      2  C   UNL     1       3.235   6.078  19.337  0.00  0.00    +0.000 A 
ATOM      3  C   UNL     1       2.484   6.743  20.309  0.00  0.00    +0.000 A 
ATOM      4  C   UNL     1       1.888   7.977  20.032  0.00  0.00    +0.000 A 
ATOM      5  C   UNL     1       2.025   8.519  18.754  0.00  0.00    +0.000 A 
ATOM      6  C   UNL     1       2.796   7.853  17.787  0.00  0.00    +0.000 A 
ENDROOT
BRANCH   1   7
ATOM      7  N   UNL     1       4.195   6.030  17.057  0.00  0.00    +0.000 N 
ATOM      8  H   UNL     1       4.662   6.732  16.484  0.00  0.00    +0.000 HD
BRANCH   7   9
ATOM      9  C   UNL     1       5.063   4.928  17.452  0.00  0.00    +0.000 C 
BRANCH   9  10
ATOM     10  C   UNL     1       4.620   3.628  16.788  0.00  0.00    +0.000 C 
BRANCH  10  11
ATOM     11  C   UNL     1       3.094   3.564  16.738  0.00  0.00    +0.000 C 
BRANCH  11  12
ATOM     12  C   UNL     1       2.540   2.677  17.845  0.00  0.00    +0.000 C 
BRANCH  12  13
ATOM     13  C   UNL     1       1.171   3.173  18.314  0.00  0.00    +0.000 C 
BRANCH  13  14
ATOM     14  C   UNL     1       0.793   2.528  19.647  0.00  0.00    +0.000 C 
BRANCH  14  16
ATOM     15  C   UNL     1       2.334   2.786  21.610  0.00  0.00    +0.000 C 
ATOM     16  C   UNL     1       1.191   3.410  20.827  0.00  0.00    +0.000 C 
ENDBRANCH  14  16
ENDBRANCH  13  14
ENDBRANCH  12  13
ENDBRANCH  11  12
ENDBRANCH  10  11
ENDBRANCH   9  10
ENDBRANCH   7   9
ENDBRANCH   1   7
BRANCH   4  17
ATOM     17  C   UNL     1       1.153   8.644  21.143  0.00  0.00    +0.000 C 
ATOM     18  O   UNL     1       1.674   8.734  22.254  0.00  0.00    +0.000 OA
BRANCH  17  19
ATOM     19  C   UNL     1      -0.178   9.269  20.904  0.00  0.00    +0.000 C 
ATOM     20  C   UNL     1      -0.563  10.530  21.636  0.00  0.00    +0.000 C 
ATOM     21  C   UNL     1      -0.228  10.598  20.165  0.00  0.00    +0.000 C 
BRANCH  21  22
ATOM     22  C   UNL     1      -1.333  10.887  19.180  0.00  0.00    +0.000 A 
ATOM     23  C   UNL     1      -2.420  11.702  19.542  0.00  0.00    +0.000 A 
ATOM     24  C   UNL     1      -3.479  11.941  18.661  0.00  0.00    +0.000 A 
ATOM     25  C   UNL     1      -3.458  11.372  17.393  0.00  0.00    +0.000 A 
ATOM     26 CL   UNL     1      -4.775  11.627  16.317  0.00  0.00    +0.000 Cl
ATOM     27  C   UNL     1      -2.377  10.593  16.992  0.00  0.00    +0.000 A 
ATOM     28  C   UNL     1      -1.319  10.363  17.878  0.00  0.00    +0.000 A 
ENDBRANCH  21  22
ENDBRANCH  17  19
ENDBRANCH   4  17
TORSDOF 11
ENDMDL
MODEL 3
REMARK VINA RESULT:      -6.8      4.090      9.681
REMARK  Name = 
REMARK  12 active torsions:
REMARK  status: ('A' for Active; 'I' for Inactive)
REMARK    1  A    between atoms: C_1  and  C_2
REMARK    2  A    between atoms: C_2  and  C_3
REMARK    3  A    between atoms: C_3  and  C_4
REMARK    4  A    between atoms: C_4  and  C_5
REMARK    5  A    between atoms: C_5  and  C_6
REMARK    6  A    between atoms: C_6  and  C_7
REMARK    7  A    between atoms: C_7  and  C_8
REMARK    8  A    between atoms: C_8  and  N_9
REMARK    9  A    between atoms: N_9  and  C_10
REMARK   10  A    between atoms: C_13  and  C_14
REMARK   11  A    between atoms: C_14  and  C_16
REMARK   12  A    between atoms: C_18  and  C_19
REMARK                            x       y       z     vdW  Elec       q    Type
REMARK                         _______ _______ _______ _____ _____    ______ ____
ROOT
ATOM      1  C   UNL     1       1.093   9.922  18.761  0.00  0.00    +0.000 A 
ATOM      2  C   UNL     1       1.682   9.002  17.884  0.00  0.00    +0.000 A 
ATOM      3  C   UNL     1       2.135   7.762  18.340  0.00  0.00    +0.000 A 
ATOM      4  C   UNL     1       1.979   7.391  19.678  0.00  0.00    +0.000 A 
ATOM      5  C   UNL     1       1.329   8.267  20.548  0.00  0.00    +0.000 A 
ATOM      6  C   UNL     1       0.892   9.519  20.087  0.00  0.00    +0.000 A 
ENDROOT
BRANCH   1   7
ATOM      7  N   UNL     1       0.627  11.187  18.367  0.00  0.00    +0.000 N 
ATOM      8  H   UNL     1       0.996  11.433  17.448  0.00  0.00    +0.000 HD
BRANCH   7   9
ATOM      9  C   UNL     1      -0.801  11.441  18.508  0.00  0.00    +0.000 C 
BRANCH   9  10
ATOM     10  C   UNL     1      -1.613  10.352  17.816  0.00  0.00    +0.000 C 
BRANCH  10  11
ATOM     11  C   UNL     1      -2.254  10.910  16.546  0.00  0.00    +0.000 C 
BRANCH  11  12
ATOM     12  C   UNL     1      -3.740  10.583  16.485  0.00  0.00    +0.000 C 
BRANCH  12  13
ATOM     13  C   UNL     1      -4.313  10.365  17.887  0.00  0.00    +0.000 C 
BRANCH  13  14
ATOM     14  C   UNL     1      -5.214  11.532  18.287  0.00  0.00    +0.000 C 
BRANCH  14  16
ATOM     15  C   UNL     1      -6.979  13.062  17.370  0.00  0.00    +0.000 C 
ATOM     16  C   UNL     1      -5.696  12.309  17.064  0.00  0.00    +0.000 C 
ENDBRANCH  14  16
ENDBRANCH  13  14
ENDBRANCH  12  13
ENDBRANCH  11  12
ENDBRANCH  10  11
ENDBRANCH   9  10
ENDBRANCH   7   9
ENDBRANCH   1   7
BRANCH   4  17
ATOM     17  C   UNL     1       2.543   6.075  20.091  0.00  0.00    +0.000 C 
ATOM     18  O   UNL     1       1.972   5.407  20.952  0.00  0.00    +0.000 OA
BRANCH  17  19
ATOM     19  C   UNL     1       3.753   5.525  19.419  0.00  0.00    +0.000 C 
ATOM     20  C   UNL     1       4.040   4.045  19.472  0.00  0.00    +0.000 C 
ATOM     21  C   UNL     1       3.562   4.662  18.180  0.00  0.00    +0.000 C 
BRANCH  21  22
ATOM     22  C   UNL     1       4.522   4.759  17.021  0.00  0.00    +0.000 A 
ATOM     23  C   UNL     1       4.772   5.995  16.399  0.00  0.00    +0.000 A 
ATOM     24  C   UNL     1       5.620   6.097  15.293  0.00  0.00    +0.000 A 
ATOM     25  C   UNL     1       6.241   4.956  14.797  0.00  0.00    +0.000 A 
ATOM     26 CL   UNL     1       7.254   5.065  13.411  0.00  0.00    +0.000 Cl
ATOM     27  C   UNL     1       6.043   3.726  15.415  0.00  0.00    +0.000 A 
ATOM     28  C   UNL     1       5.198   3.633  16.525  0.00  0.00    +0.000 A 
ENDBRANCH  21  22
ENDBRANCH  17  19
ENDBRANCH   4  17
TORSDOF 11
ENDMDL
MODEL 4
REMARK VINA RESULT:      -6.7      4.029      6.674
REMARK  Name = 
REMARK  12 active torsions:
REMARK  status: ('A' for Active; 'I' for Inactive)
REMARK    1  A    between atoms: C_1  and  C_2
REMARK    2  A    between atoms: C_2  and  C_3
REMARK    3  A    between atoms: C_3  and  C_4
REMARK    4  A    between atoms: C_4  and  C_5
REMARK    5  A    between atoms: C_5  and  C_6
REMARK    6  A    between atoms: C_6  and  C_7
REMARK    7  A    between atoms: C_7  and  C_8
REMARK    8  A    between atoms: C_8  and  N_9
REMARK    9  A    between atoms: N_9  and  C_10
REMARK   10  A    between atoms: C_13  and  C_14
REMARK   11  A    between atoms: C_14  and  C_16
REMARK   12  A    between atoms: C_18  and  C_19
REMARK                            x       y       z     vdW  Elec       q    Type
REMARK                         _______ _______ _______ _____ _____    ______ ____
ROOT
ATOM      1  C   UNL     1       6.196   5.715  16.967  0.00  0.00    +0.000 A 
ATOM      2  C   UNL     1       6.189   4.699  17.931  0.00  0.00    +0.000 A 
ATOM      3  C   UNL     1       5.137   4.578  18.842  0.00  0.00    +0.000 A 
ATOM      4  C   UNL     1       4.045   5.449  18.792  0.00  0.00    +0.000 A 
ATOM      5  C   UNL     1       4.004   6.420  17.792  0.00  0.00    +0.000 A 
ATOM      6  C   UNL     1       5.072   6.547  16.890  0.00  0.00    +0.000 A 
ENDROOT
BRANCH   1   7
ATOM      7  N   UNL     1       7.228   5.895  16.031  0.00  0.00    +0.000 N 
ATOM      8  H   UNL     1       8.125   6.005  16.504  0.00  0.00    +0.000 HD
BRANCH   7   9
ATOM      9  C   UNL     1       7.272   4.967  14.908  0.00  0.00    +0.000 C 
BRANCH   9  10
ATOM     10  C   UNL     1       6.006   5.079  14.066  0.00  0.00    +0.000 C 
BRANCH  10  11
ATOM     11  C   UNL     1       5.617   3.703  13.527  0.00  0.00    +0.000 C 
BRANCH  11  12
ATOM     12  C   UNL     1       5.967   3.567  12.051  0.00  0.00    +0.000 C 
BRANCH  12  13
ATOM     13  C   UNL     1       5.050   2.554  11.360  0.00  0.00    +0.000 C 
BRANCH  13  14
ATOM     14  C   UNL     1       3.683   3.173  11.075  0.00  0.00    +0.000 C 
BRANCH  14  16
ATOM     15  C   UNL     1       2.504   4.667   9.440  0.00  0.00    +0.000 C 
ATOM     16  C   UNL     1       3.547   3.576   9.609  0.00  0.00    +0.000 C 
ENDBRANCH  14  16
ENDBRANCH  13  14
ENDBRANCH  12  13
ENDBRANCH  11  12
ENDBRANCH  10  11
ENDBRANCH   9  10
ENDBRANCH   7   9
ENDBRANCH   1   7
BRANCH   4  17
ATOM     17  C   UNL     1       2.995   5.286  19.838  0.00  0.00    +0.000 C 
ATOM     18  O   UNL     1       3.138   4.444  20.722  0.00  0.00    +0.000 OA
BRANCH  17  19
ATOM     19  C   UNL     1       1.807   6.185  19.864  0.00  0.00    +0.000 C 
ATOM     20  C   UNL     1       1.154   6.535  21.177  0.00  0.00    +0.000 C 
ATOM     21  C   UNL     1       1.970   7.578  20.453  0.00  0.00    +0.000 C 
BRANCH  21  22
ATOM     22  C   UNL     1       1.259   8.759  19.838  0.00  0.00    +0.000 A 
ATOM     23  C   UNL     1       0.297   9.476  20.570  0.00  0.00    +0.000 A 
ATOM     24  C   UNL     1      -0.408  10.541  20.002  0.00  0.00    +0.000 A 
ATOM     25  C   UNL     1      -0.149  10.911  18.686  0.00  0.00    +0.000 A 
ATOM     26 CL   UNL     1      -1.039  12.194  17.965  0.00  0.00    +0.000 Cl
ATOM     27  C   UNL     1       0.826  10.245  17.950  0.00  0.00    +0.000 A 
ATOM     28  C   UNL     1       1.530   9.184  18.528  0.00  0.00    +0.000 A 
ENDBRANCH  21  22
ENDBRANCH  17  19
ENDBRANCH   4  17
TORSDOF 11
ENDMDL
MODEL 5
REMARK VINA RESULT:      -6.7      1.454      2.768
REMARK  Name = 
REMARK  12 active torsions:
REMARK  status: ('A' for Active; 'I' for Inactive)
REMARK    1  A    between atoms: C_1  and  C_2
REMARK    2  A    between atoms: C_2  and  C_3
REMARK    3  A    between atoms: C_3  and  C_4
REMARK    4  A    between atoms: C_4  and  C_5
REMARK    5  A    between atoms: C_5  and  C_6
REMARK    6  A    between atoms: C_6  and  C_7
REMARK    7  A    between atoms: C_7  and  C_8
REMARK    8  A    between atoms: C_8  and  N_9
REMARK    9  A    between atoms: N_9  and  C_10
REMARK   10  A    between atoms: C_13  and  C_14
REMARK   11  A    between atoms: C_14  and  C_16
REMARK   12  A    between atoms: C_18  and  C_19
REMARK                            x       y       z     vdW  Elec       q    Type
REMARK                         _______ _______ _______ _____ _____    ______ ____
ROOT
ATOM      1  C   UNL     1       2.153   7.588  19.642  0.00  0.00    +0.000 A 
ATOM      2  C   UNL     1       1.347   8.260  20.571  0.00  0.00    +0.000 A 
ATOM      3  C   UNL     1       0.711   9.458  20.237  0.00  0.00    +0.000 A 
ATOM      4  C   UNL     1       0.834  10.000  18.955  0.00  0.00    +0.000 A 
ATOM      5  C   UNL     1       1.574   9.304  17.998  0.00  0.00    +0.000 A 
ATOM      6  C   UNL     1       2.225   8.110  18.345  0.00  0.00    +0.000 A 
ENDROOT
BRANCH   1   7
ATOM      7  N   UNL     1       2.826   6.386  19.920  0.00  0.00    +0.000 N 
ATOM      8  H   UNL     1       2.722   6.137  20.904  0.00  0.00    +0.000 HD
BRANCH   7   9
ATOM      9  C   UNL     1       2.594   5.272  19.010  0.00  0.00    +0.000 C 
BRANCH   9  10
ATOM     10  C   UNL     1       3.914   4.626  18.602  0.00  0.00    +0.000 C 
BRANCH  10  11
ATOM     11  C   UNL     1       3.902   4.321  17.104  0.00  0.00    +0.000 C 
BRANCH  11  12
ATOM     12  C   UNL     1       5.216   4.723  16.446  0.00  0.00    +0.000 C 
BRANCH  12  13
ATOM     13  C   UNL     1       5.606   6.153  16.827  0.00  0.00    +0.000 C 
BRANCH  13  14
ATOM     14  C   UNL     1       7.124   6.320  16.802  0.00  0.00    +0.000 C 
BRANCH  14  16
ATOM     15  C   UNL     1       7.764   5.759  19.163  0.00  0.00    +0.000 C 
ATOM     16  C   UNL     1       7.648   6.866  18.128  0.00  0.00    +0.000 C 
ENDBRANCH  14  16
ENDBRANCH  13  14
ENDBRANCH  12  13
ENDBRANCH  11  12
ENDBRANCH  10  11
ENDBRANCH   9  10
ENDBRANCH   7   9
ENDBRANCH   1   7
BRANCH   4  17
ATOM     17  C   UNL     1       0.170  11.310  18.702  0.00  0.00    +0.000 C 
ATOM     18  O   UNL     1       0.719  12.352  19.055  0.00  0.00    +0.000 OA
BRANCH  17  19
ATOM     19  C   UNL     1      -1.119  11.375  17.958  0.00  0.00    +0.000 C 
ATOM     20  C   UNL     1      -1.756  10.111  17.440  0.00  0.00    +0.000 C 
ATOM     21  C   UNL     1      -2.366  10.816  18.627  0.00  0.00    +0.000 C 
BRANCH  21  22
ATOM     22  C   UNL     1      -3.700  11.501  18.460  0.00  0.00    +0.000 A 
ATOM     23  C   UNL     1      -4.402  11.416  17.245  0.00  0.00    +0.000 A 
ATOM     24  C   UNL     1      -5.614  12.085  17.054  0.00  0.00    +0.000 A 
ATOM     25  C   UNL     1      -6.149  12.846  18.088  0.00  0.00    +0.000 A 
ATOM     26 CL   UNL     1      -7.619  13.705  17.849  0.00  0.00    +0.000 Cl
ATOM     27  C   UNL     1      -5.496  12.918  19.315  0.00  0.00    +0.000 A 
ATOM     28  C   UNL     1      -4.286  12.241  19.499  0.00  0.00    +0.000 A 
ENDBRANCH  21  22
ENDBRANCH  17  19
ENDBRANCH   4  17
TORSDOF 11
ENDMDL
MODEL 6
REMARK VINA RESULT:      -6.7      3.685      4.518
REMARK  Name = 
REMARK  12 active torsions:
REMARK  status: ('A' for Active; 'I' for Inactive)
REMARK    1  A    between atoms: C_1  and  C_2
REMARK    2  A    between atoms: C_2  and  C_3
REMARK    3  A    between atoms: C_3  and  C_4
REMARK    4  A    between atoms: C_4  and  C_5
REMARK    5  A    between atoms: C_5  and  C_6
REMARK    6  A    between atoms: C_6  and  C_7
REMARK    7  A    between atoms: C_7  and  C_8
REMARK    8  A    between atoms: C_8  and  N_9
REMARK    9  A    between atoms: N_9  and  C_10
REMARK   10  A    between atoms: C_13  and  C_14
REMARK   11  A    between atoms: C_14  and  C_16
REMARK   12  A    between atoms: C_18  and  C_19
REMARK                            x       y       z     vdW  Elec       q    Type
REMARK                         _______ _______ _______ _____ _____    ______ ____
ROOT
ATOM      1  C   UNL     1       2.789   7.317  18.347  0.00  0.00    +0.000 A 
ATOM      2  C   UNL     1       2.454   7.035  19.678  0.00  0.00    +0.000 A 
ATOM      3  C   UNL     1       1.633   7.895  20.411  0.00  0.00    +0.000 A 
ATOM      4  C   UNL     1       1.093   9.043  19.823  0.00  0.00    +0.000 A 
ATOM      5  C   UNL     1       1.360   9.298  18.478  0.00  0.00    +0.000 A 
ATOM      6  C   UNL     1       2.200   8.439  17.752  0.00  0.00    +0.000 A 
ENDROOT
BRANCH   1   7
ATOM      7  N   UNL     1       3.617   6.497  17.561  0.00  0.00    +0.000 N 
ATOM      8  H   UNL     1       4.186   7.063  16.932  0.00  0.00    +0.000 HD
BRANCH   7   9
ATOM      9  C   UNL     1       4.370   5.460  18.254  0.00  0.00    +0.000 C 
BRANCH   9  10
ATOM     10  C   UNL     1       4.547   4.236  17.361  0.00  0.00    +0.000 C 
BRANCH  10  11
ATOM     11  C   UNL     1       3.234   3.456  17.283  0.00  0.00    +0.000 C 
BRANCH  11  12
ATOM     12  C   UNL     1       3.341   2.118  18.004  0.00  0.00    +0.000 C 
BRANCH  12  13
ATOM     13  C   UNL     1       2.359   2.046  19.176  0.00  0.00    +0.000 C 
BRANCH  13  14
ATOM     14  C   UNL     1       3.007   2.573  20.454  0.00  0.00    +0.000 C 
BRANCH  14  16
ATOM     15  C   UNL     1       0.841   3.837  20.376  0.00  0.00    +0.000 C 
ATOM     16  C   UNL     1       2.181   3.695  21.077  0.00  0.00    +0.000 C 
ENDBRANCH  14  16
ENDBRANCH  13  14
ENDBRANCH  12  13
ENDBRANCH  11  12
ENDBRANCH  10  11
ENDBRANCH   9  10
ENDBRANCH   7   9
ENDBRANCH   1   7
BRANCH   4  17
ATOM     17  C   UNL     1       0.276   9.934  20.693  0.00  0.00    +0.000 C 
ATOM     18  O   UNL     1      -0.223   9.492  21.726  0.00  0.00    +0.000 OA
BRANCH  17  19
ATOM     19  C   UNL     1       0.117  11.378  20.361  0.00  0.00    +0.000 C 
ATOM     20  C   UNL     1      -0.108  12.385  21.460  0.00  0.00    +0.000 C 
ATOM     21  C   UNL     1       1.229  12.337  20.761  0.00  0.00    +0.000 C 
BRANCH  21  22
ATOM     22  C   UNL     1       1.619  13.480  19.857  0.00  0.00    +0.000 A 
ATOM     23  C   UNL     1       2.587  13.301  18.853  0.00  0.00    +0.000 A 
ATOM     24  C   UNL     1       2.998  14.361  18.039  0.00  0.00    +0.000 A 
ATOM     25  C   UNL     1       2.433  15.620  18.214  0.00  0.00    +0.000 A 
ATOM     26 CL   UNL     1       2.962  16.938  17.244  0.00  0.00    +0.000 Cl
ATOM     27  C   UNL     1       1.445  15.817  19.173  0.00  0.00    +0.000 A 
ATOM     28  C   UNL     1       1.036  14.751  19.980  0.00  0.00    +0.000 A 
ENDBRANCH  21  22
ENDBRANCH  17  19
ENDBRANCH   4  17
TORSDOF 11
ENDMDL
MODEL 7
REMARK VINA RESULT:      -6.7      4.031      6.450
REMARK  Name = 
REMARK  12 active torsions:
REMARK  status: ('A' for Active; 'I' for Inactive)
REMARK    1  A    between atoms: C_1  and  C_2
REMARK    2  A    between atoms: C_2  and  C_3
REMARK    3  A    between atoms: C_3  and  C_4
REMARK    4  A    between atoms: C_4  and  C_5
REMARK    5  A    between atoms: C_5  and  C_6
REMARK    6  A    between atoms: C_6  and  C_7
REMARK    7  A    between atoms: C_7  and  C_8
REMARK    8  A    between atoms: C_8  and  N_9
REMARK    9  A    between atoms: N_9  and  C_10
REMARK   10  A    between atoms: C_13  and  C_14
REMARK   11  A    between atoms: C_14  and  C_16
REMARK   12  A    between atoms: C_18  and  C_19
REMARK                            x       y       z     vdW  Elec       q    Type
REMARK                         _______ _______ _______ _____ _____    ______ ____
ROOT
ATOM      1  C   UNL     1       5.130   4.264  17.500  0.00  0.00    +0.000 A 
ATOM      2  C   UNL     1       5.432   5.004  18.651  0.00  0.00    +0.000 A 
ATOM      3  C   UNL     1       4.418   5.511  19.466  0.00  0.00    +0.000 A 
ATOM      4  C   UNL     1       3.073   5.264  19.174  0.00  0.00    +0.000 A 
ATOM      5  C   UNL     1       2.760   4.468  18.071  0.00  0.00    +0.000 A 
ATOM      6  C   UNL     1       3.784   3.976  17.246  0.00  0.00    +0.000 A 
ENDROOT
BRANCH   1   7
ATOM      7  N   UNL     1       6.104   3.736  16.635  0.00  0.00    +0.000 N 
ATOM      8  H   UNL     1       5.730   2.939  16.121  0.00  0.00    +0.000 HD
BRANCH   7   9
ATOM      9  C   UNL     1       6.828   4.683  15.797  0.00  0.00    +0.000 C 
BRANCH   9  10
ATOM     10  C   UNL     1       6.195   4.771  14.413  0.00  0.00    +0.000 C 
BRANCH  10  11
ATOM     11  C   UNL     1       6.090   3.375  13.799  0.00  0.00    +0.000 C 
BRANCH  11  12
ATOM     12  C   UNL     1       6.134   3.434  12.278  0.00  0.00    +0.000 C 
BRANCH  12  13
ATOM     13  C   UNL     1       5.497   2.186  11.661  0.00  0.00    +0.000 C 
BRANCH  13  14
ATOM     14  C   UNL     1       4.535   2.573  10.539  0.00  0.00    +0.000 C 
BRANCH  14  16
ATOM     15  C   UNL     1       2.913   4.325   9.767  0.00  0.00    +0.000 C 
ATOM     16  C   UNL     1       3.600   3.701  10.969  0.00  0.00    +0.000 C 
ENDBRANCH  14  16
ENDBRANCH  13  14
ENDBRANCH  12  13
ENDBRANCH  11  12
ENDBRANCH  10  11
ENDBRANCH   9  10
ENDBRANCH   7   9
ENDBRANCH   1   7
BRANCH   4  17
ATOM     17  C   UNL     1       2.055   5.891  20.063  0.00  0.00    +0.000 C 
ATOM     18  O   UNL     1       1.244   5.184  20.659  0.00  0.00    +0.000 OA
BRANCH  17  19
ATOM     19  C   UNL     1       2.056   7.363  20.294  0.00  0.00    +0.000 C 
ATOM     20  C   UNL     1       2.079   8.311  19.122  0.00  0.00    +0.000 C 
ATOM     21  C   UNL     1       0.809   8.152  19.922  0.00  0.00    +0.000 C 
BRANCH  21  22
ATOM     22  C   UNL     1       0.342   9.300  20.782  0.00  0.00    +0.000 A 
ATOM     23  C   UNL     1      -0.279   9.061  22.021  0.00  0.00    +0.000 A 
ATOM     24  C   UNL     1      -0.763  10.109  22.808  0.00  0.00    +0.000 A 
ATOM     25  C   UNL     1      -0.622  11.421  22.368  0.00  0.00    +0.000 A 
ATOM     26 CL   UNL     1      -1.251  12.714  23.311  0.00  0.00    +0.000 Cl
ATOM     27  C   UNL     1       0.023  11.690  21.165  0.00  0.00    +0.000 A 
ATOM     28  C   UNL     1       0.509  10.636  20.385  0.00  0.00    +0.000 A 
ENDBRANCH  21  22
ENDBRANCH  17  19
ENDBRANCH   4  17
TORSDOF 11
ENDMDL
MODEL 8
REMARK VINA RESULT:      -6.7      2.457      4.355
REMARK  Name = 
REMARK  12 active torsions:
REMARK  status: ('A' for Active; 'I' for Inactive)
REMARK    1  A    between atoms: C_1  and  C_2
REMARK    2  A    between atoms: C_2  and  C_3
REMARK    3  A    between atoms: C_3  and  C_4
REMARK    4  A    between atoms: C_4  and  C_5
REMARK    5  A    between atoms: C_5  and  C_6
REMARK    6  A    between atoms: C_6  and  C_7
REMARK    7  A    between atoms: C_7  and  C_8
REMARK    8  A    between atoms: C_8  and  N_9
REMARK    9  A    between atoms: N_9  and  C_10
REMARK   10  A    between atoms: C_13  and  C_14
REMARK   11  A    between atoms: C_14  and  C_16
REMARK   12  A    between atoms: C_18  and  C_19
REMARK                            x       y       z     vdW  Elec       q    Type
REMARK                         _______ _______ _______ _____ _____    ______ ____
ROOT
ATOM      1  C   UNL     1       2.722   5.412  18.743  0.00  0.00    +0.000 A 
ATOM      2  C   UNL     1       2.090   5.144  19.964  0.00  0.00    +0.000 A 
ATOM      3  C   UNL     1       1.599   6.179  20.763  0.00  0.00    +0.000 A 
ATOM      4  C   UNL     1       1.694   7.510  20.347  0.00  0.00    +0.000 A 
ATOM      5  C   UNL     1       2.256   7.787  19.100  0.00  0.00    +0.000 A 
ATOM      6  C   UNL     1       2.763   6.743  18.310  0.00  0.00    +0.000 A 
ENDROOT
BRANCH   1   7
ATOM      7  N   UNL     1       3.245   4.416  17.901  0.00  0.00    +0.000 N 
ATOM      8  H   UNL     1       3.222   4.723  16.928  0.00  0.00    +0.000 HD
BRANCH   7   9
ATOM      9  C   UNL     1       4.513   3.816  18.293  0.00  0.00    +0.000 C 
BRANCH   9  10
ATOM     10  C   UNL     1       5.436   4.860  18.912  0.00  0.00    +0.000 C 
BRANCH  10  11
ATOM     11  C   UNL     1       6.668   5.053  18.029  0.00  0.00    +0.000 C 
BRANCH  11  12
ATOM     12  C   UNL     1       6.278   5.453  16.612  0.00  0.00    +0.000 C 
BRANCH  12  13
ATOM     13  C   UNL     1       6.954   4.547  15.580  0.00  0.00    +0.000 C 
BRANCH  13  14
ATOM     14  C   UNL     1       5.914   3.916  14.656  0.00  0.00    +0.000 C 
BRANCH  14  16
ATOM     15  C   UNL     1       7.408   4.980  12.944  0.00  0.00    +0.000 C 
ATOM     16  C   UNL     1       6.404   3.872  13.211  0.00  0.00    +0.000 C 
ENDBRANCH  14  16
ENDBRANCH  13  14
ENDBRANCH  12  13
ENDBRANCH  11  12
ENDBRANCH  10  11
ENDBRANCH   9  10
ENDBRANCH   7   9
ENDBRANCH   1   7
BRANCH   4  17
ATOM     17  C   UNL     1       1.197   8.555  21.286  0.00  0.00    +0.000 C 
ATOM     18  O   UNL     1       1.857   8.847  22.281  0.00  0.00    +0.000 OA
BRANCH  17  19
ATOM     19  C   UNL     1      -0.057   9.303  20.992  0.00  0.00    +0.000 C 
ATOM     20  C   UNL     1      -0.199  10.740  21.427  0.00  0.00    +0.000 C 
ATOM     21  C   UNL     1      -0.005  10.424  19.963  0.00  0.00    +0.000 C 
BRANCH  21  22
ATOM     22  C   UNL     1      -1.154  10.647  19.012  0.00  0.00    +0.000 A 
ATOM     23  C   UNL     1      -1.255   9.903  17.823  0.00  0.00    +0.000 A 
ATOM     24  C   UNL     1      -2.284  10.131  16.906  0.00  0.00    +0.000 A 
ATOM     25  C   UNL     1      -3.240  11.105  17.173  0.00  0.00    +0.000 A 
ATOM     26 CL   UNL     1      -4.486  11.420  16.031  0.00  0.00    +0.000 Cl
ATOM     27  C   UNL     1      -3.188  11.830  18.359  0.00  0.00    +0.000 A 
ATOM     28  C   UNL     1      -2.157  11.593  19.275  0.00  0.00    +0.000 A 
ENDBRANCH  21  22
ENDBRANCH  17  19
ENDBRANCH   4  17
TORSDOF 11
ENDMDL
MODEL 9
REMARK VINA RESULT:      -6.7      2.946      4.732
REMARK  Name = 
REMARK  12 active torsions:
REMARK  status: ('A' for Active; 'I' for Inactive)
REMARK    1  A    between atoms: C_1  and  C_2
REMARK    2  A    between atoms: C_2  and  C_3
REMARK    3  A    between atoms: C_3  and  C_4
REMARK    4  A    between atoms: C_4  and  C_5
REMARK    5  A    between atoms: C_5  and  C_6
REMARK    6  A    between atoms: C_6  and  C_7
REMARK    7  A    between atoms: C_7  and  C_8
REMARK    8  A    between atoms: C_8  and  N_9
REMARK    9  A    between atoms: N_9  and  C_10
REMARK   10  A    between atoms: C_13  and  C_14
REMARK   11  A    between atoms: C_14  and  C_16
REMARK   12  A    between atoms: C_18  and  C_19
REMARK                            x       y       z     vdW  Elec       q    Type
REMARK                         _______ _______ _______ _____ _____    ______ ____
ROOT
ATOM      1  C   UNL     1       2.687   5.946  19.002  0.00  0.00    +0.000 A 
ATOM      2  C   UNL     1       2.701   7.299  18.639  0.00  0.00    +0.000 A 
ATOM      3  C   UNL     1       2.111   8.269  19.452  0.00  0.00    +0.000 A 
ATOM      4  C   UNL     1       1.521   7.919  20.670  0.00  0.00    +0.000 A 
ATOM      5  C   UNL     1       1.563   6.586  21.079  0.00  0.00    +0.000 A 
ATOM      6  C   UNL     1       2.143   5.613  20.249  0.00  0.00    +0.000 A 
ENDROOT
BRANCH   1   7
ATOM      7  N   UNL     1       3.254   4.924  18.223  0.00  0.00    +0.000 N 
ATOM      8  H   UNL     1       2.563   4.541  17.578  0.00  0.00    +0.000 HD
BRANCH   7   9
ATOM      9  C   UNL     1       4.541   5.203  17.600  0.00  0.00    +0.000 C 
BRANCH   9  10
ATOM     10  C   UNL     1       4.645   4.514  16.244  0.00  0.00    +0.000 C 
BRANCH  10  11
ATOM     11  C   UNL     1       5.988   4.845  15.594  0.00  0.00    +0.000 C 
BRANCH  11  12
ATOM     12  C   UNL     1       6.368   3.806  14.548  0.00  0.00    +0.000 C 
BRANCH  12  13
ATOM     13  C   UNL     1       5.518   3.960  13.285  0.00  0.00    +0.000 C 
BRANCH  13  14
ATOM     14  C   UNL     1       6.259   3.411  12.067  0.00  0.00    +0.000 C 
BRANCH  14  16
ATOM     15  C   UNL     1       6.600   1.126  11.088  0.00  0.00    +0.000 C 
ATOM     16  C   UNL     1       5.575   2.163  11.514  0.00  0.00    +0.000 C 
ENDBRANCH  14  16
ENDBRANCH  13  14
ENDBRANCH  12  13
ENDBRANCH  11  12
ENDBRANCH  10  11
ENDBRANCH   9  10
ENDBRANCH   7   9
ENDBRANCH   1   7
BRANCH   4  17
ATOM     17  C   UNL     1       0.864   9.007  21.447  0.00  0.00    +0.000 C 
ATOM     18  O   UNL     1       1.393   9.433  22.472  0.00  0.00    +0.000 OA
BRANCH  17  19
ATOM     19  C   UNL     1      -0.394   9.635  20.956  0.00  0.00    +0.000 C 
ATOM     20  C   UNL     1      -0.676  11.088  21.245  0.00  0.00    +0.000 C 
ATOM     21  C   UNL     1      -0.297  10.670  19.844  0.00  0.00    +0.000 C 
BRANCH  21  22
ATOM     22  C   UNL     1      -1.343  10.731  18.759  0.00  0.00    +0.000 A 
ATOM     23  C   UNL     1      -1.235   9.925  17.612  0.00  0.00    +0.000 A 
ATOM     24  C   UNL     1      -2.166  10.004  16.573  0.00  0.00    +0.000 A 
ATOM     25  C   UNL     1      -3.233  10.890  16.674  0.00  0.00    +0.000 A 
ATOM     26 CL   UNL     1      -4.362  11.024  15.383  0.00  0.00    +0.000 Cl
ATOM     27  C   UNL     1      -3.388  11.673  17.814  0.00  0.00    +0.000 A 
ATOM     28  C   UNL     1      -2.454  11.584  18.851  0.00  0.00    +0.000 A 
ENDBRANCH  21  22
ENDBRANCH  17  19
ENDBRANCH   4  17
TORSDOF 11
ENDMDL
