MODEL 1
REMARK VINA RESULT:      -7.6      0.000      0.000
REMARK  Name = 
REMARK  4 active torsions:
REMARK  status: ('A' for Active; 'I' for Inactive)
REMARK    1  A    between atoms: C_1  and  O_2
REMARK    2  A    between atoms: O_2  and  C_3
REMARK    3  A    between atoms: C_11  and  C_12
REMARK    4  A    between atoms: C_17  and  C_18
REMARK                            x       y       z     vdW  Elec       q    Type
REMARK                         _______ _______ _______ _____ _____    ______ ____
ROOT
ATOM      1  C   UNL     1       0.427   9.979  21.895  0.00  0.00    +0.000 A 
ATOM      2  C   UNL     1       0.449  10.896  20.822  0.00  0.00    +0.000 A 
ATOM      3  C   UNL     1       0.973  10.533  19.575  0.00  0.00    +0.000 A 
ATOM      4  C   UNL     1       1.453   9.247  19.442  0.00  0.00    +0.000 A 
ATOM      5  C   UNL     1       1.421   8.330  20.488  0.00  0.00    +0.000 A 
ATOM      6  C   UNL     1       0.919   8.677  21.724  0.00  0.00    +0.000 A 
ATOM      7  O   UNL     1       1.911   7.093  20.141  0.00  0.00    +0.000 OA
ATOM      8  C   UNL     1       2.270   7.193  18.800  0.00  0.00    +0.000 C 
ATOM      9  C   UNL     1       2.728   6.192  18.040  0.00  0.00    +0.000 C 
ATOM     10  C   UNL     1       2.027   8.567  18.288  0.00  0.00    +0.000 C 
ATOM     11  O   UNL     1       2.233   9.024  17.185  0.00  0.00    +0.000 OA
ENDROOT
BRANCH   9  12
ATOM     12  C   UNL     1       2.887   4.823  18.542  0.00  0.00    +0.000 A 
ATOM     13  C   UNL     1       1.787   3.955  18.481  0.00  0.00    +0.000 A 
ATOM     14  C   UNL     1       1.896   2.640  18.936  0.00  0.00    +0.000 A 
ATOM     15  C   UNL     1       3.106   2.180  19.447  0.00  0.00    +0.000 A 
ATOM     16  C   UNL     1       4.206   3.035  19.511  0.00  0.00    +0.000 A 
ATOM     17  C   UNL     1       4.110   4.365  19.071  0.00  0.00    +0.000 A 
ATOM     18  C   UNL     1       5.320   5.255  19.158  0.00  0.00    +0.000 C 
ENDBRANCH   9  12
BRANCH   1  20
ATOM     19  C   UNL     1      -1.292  10.936  23.235  0.00  0.00    +0.000 C 
ATOM     20  O   UNL     1      -0.057  10.237  23.151  0.00  0.00    +0.000 OA
ENDBRANCH   1  20
TORSDOF 2
ENDMDL
MODEL 2
REMARK VINA RESULT:      -7.4      4.754      8.213
REMARK  Name = 
REMARK  4 active torsions:
REMARK  status: ('A' for Active; 'I' for Inactive)
REMARK    1  A    between atoms: C_1  and  O_2
REMARK    2  A    between atoms: O_2  and  C_3
REMARK    3  A    between atoms: C_11  and  C_12
REMARK    4  A    between atoms: C_17  and  C_18
REMARK                            x       y       z     vdW  Elec       q    Type
REMARK                         _______ _______ _______ _____ _____    ______ ____
ROOT
ATOM      1  C   UNL     1       5.945   3.513  12.513  0.00  0.00    +0.000 A 
ATOM      2  C   UNL     1       7.125   4.288  12.507  0.00  0.00    +0.000 A 
ATOM      3  C   UNL     1       7.495   5.047  13.624  0.00  0.00    +0.000 A 
ATOM      4  C   UNL     1       6.665   4.994  14.725  0.00  0.00    +0.000 A 
ATOM      5  C   UNL     1       5.508   4.222  14.747  0.00  0.00    +0.000 A 
ATOM      6  C   UNL     1       5.127   3.479  13.651  0.00  0.00    +0.000 A 
ATOM      7  O   UNL     1       4.842   4.276  15.949  0.00  0.00    +0.000 OA
ATOM      8  C   UNL     1       5.600   5.113  16.763  0.00  0.00    +0.000 C 
ATOM      9  C   UNL     1       5.349   5.385  18.048  0.00  0.00    +0.000 C 
ATOM     10  C   UNL     1       6.781   5.637  16.028  0.00  0.00    +0.000 C 
ATOM     11  O   UNL     1       7.645   6.397  16.405  0.00  0.00    +0.000 OA
ENDROOT
BRANCH   9  12
ATOM     12  C   UNL     1       4.223   4.796  18.779  0.00  0.00    +0.000 A 
ATOM     13  C   UNL     1       4.397   3.542  19.382  0.00  0.00    +0.000 A 
ATOM     14  C   UNL     1       3.357   2.949  20.098  0.00  0.00    +0.000 A 
ATOM     15  C   UNL     1       2.137   3.606  20.224  0.00  0.00    +0.000 A 
ATOM     16  C   UNL     1       1.953   4.854  19.629  0.00  0.00    +0.000 A 
ATOM     17  C   UNL     1       2.985   5.459  18.893  0.00  0.00    +0.000 A 
ATOM     18  C   UNL     1       2.745   6.806  18.266  0.00  0.00    +0.000 C 
ENDBRANCH   9  12
BRANCH   1  20
ATOM     19  C   UNL     1       6.003   1.419  11.384  0.00  0.00    +0.000 C 
ATOM     20  O   UNL     1       5.495   2.744  11.473  0.00  0.00    +0.000 OA
ENDBRANCH   1  20
TORSDOF 2
ENDMDL
MODEL 3
REMARK VINA RESULT:      -7.4      4.070      7.603
REMARK  Name = 
REMARK  4 active torsions:
REMARK  status: ('A' for Active; 'I' for Inactive)
REMARK    1  A    between atoms: C_1  and  O_2
REMARK    2  A    between atoms: O_2  and  C_3
REMARK    3  A    between atoms: C_11  and  C_12
REMARK    4  A    between atoms: C_17  and  C_18
REMARK                            x       y       z     vdW  Elec       q    Type
REMARK                         _______ _______ _______ _____ _____    ______ ____
ROOT
ATOM      1  C   UNL     1       5.825   4.086  13.591  0.00  0.00    +0.000 A 
ATOM      2  C   UNL     1       7.101   4.622  13.868  0.00  0.00    +0.000 A 
ATOM      3  C   UNL     1       7.432   5.068  15.154  0.00  0.00    +0.000 A 
ATOM      4  C   UNL     1       6.464   4.950  16.131  0.00  0.00    +0.000 A 
ATOM      5  C   UNL     1       5.209   4.409  15.872  0.00  0.00    +0.000 A 
ATOM      6  C   UNL     1       4.867   3.976  14.609  0.00  0.00    +0.000 A 
ATOM      7  O   UNL     1       4.406   4.344  16.986  0.00  0.00    +0.000 OA
ATOM      8  C   UNL     1       5.169   4.855  18.031  0.00  0.00    +0.000 C 
ATOM      9  C   UNL     1       4.794   4.910  19.314  0.00  0.00    +0.000 C 
ATOM     10  C   UNL     1       6.504   5.293  17.546  0.00  0.00    +0.000 C 
ATOM     11  O   UNL     1       7.418   5.796  18.162  0.00  0.00    +0.000 OA
ENDROOT
BRANCH   9  12
ATOM     12  C   UNL     1       3.503   4.401  19.786  0.00  0.00    +0.000 A 
ATOM     13  C   UNL     1       3.384   3.032  20.065  0.00  0.00    +0.000 A 
ATOM     14  C   UNL     1       2.178   2.505  20.529  0.00  0.00    +0.000 A 
ATOM     15  C   UNL     1       1.084   3.342  20.724  0.00  0.00    +0.000 A 
ATOM     16  C   UNL     1       1.192   4.706  20.451  0.00  0.00    +0.000 A 
ATOM     17  C   UNL     1       2.394   5.250  19.971  0.00  0.00    +0.000 A 
ATOM     18  C   UNL     1       2.468   6.726  19.688  0.00  0.00    +0.000 C 
ENDBRANCH   9  12
BRANCH   1  20
ATOM     19  C   UNL     1       6.095   2.513  11.825  0.00  0.00    +0.000 C 
ATOM     20  O   UNL     1       5.404   3.629  12.370  0.00  0.00    +0.000 OA
ENDBRANCH   1  20
TORSDOF 2
ENDMDL
MODEL 4
REMARK VINA RESULT:      -7.3      2.469      3.918
REMARK  Name = 
REMARK  4 active torsions:
REMARK  status: ('A' for Active; 'I' for Inactive)
REMARK    1  A    between atoms: C_1  and  O_2
REMARK    2  A    between atoms: O_2  and  C_3
REMARK    3  A    between atoms: C_11  and  C_12
REMARK    4  A    between atoms: C_17  and  C_18
REMARK                            x       y       z     vdW  Elec       q    Type
REMARK                         _______ _______ _______ _____ _____    ______ ____
ROOT
ATOM      1  C   UNL     1       1.357   9.485  18.960  0.00  0.00    +0.000 A 
ATOM      2  C   UNL     1       1.021   8.901  20.201  0.00  0.00    +0.000 A 
ATOM      3  C   UNL     1       1.498   7.632  20.552  0.00  0.00    +0.000 A 
ATOM      4  C   UNL     1       2.313   6.990  19.642  0.00  0.00    +0.000 A 
ATOM      5  C   UNL     1       2.663   7.563  18.424  0.00  0.00    +0.000 A 
ATOM      6  C   UNL     1       2.192   8.807  18.061  0.00  0.00    +0.000 A 
ATOM      7  O   UNL     1       3.512   6.780  17.679  0.00  0.00    +0.000 OA
ATOM      8  C   UNL     1       3.744   5.641  18.446  0.00  0.00    +0.000 C 
ATOM      9  C   UNL     1       4.577   4.644  18.126  0.00  0.00    +0.000 C 
ATOM     10  C   UNL     1       2.978   5.695  19.719  0.00  0.00    +0.000 C 
ATOM     11  O   UNL     1       2.921   4.884  20.616  0.00  0.00    +0.000 OA
ENDROOT
BRANCH   9  12
ATOM     12  C   UNL     1       5.384   4.646  16.902  0.00  0.00    +0.000 A 
ATOM     13  C   UNL     1       4.775   4.266  15.697  0.00  0.00    +0.000 A 
ATOM     14  C   UNL     1       5.501   4.264  14.506  0.00  0.00    +0.000 A 
ATOM     15  C   UNL     1       6.837   4.650  14.507  0.00  0.00    +0.000 A 
ATOM     16  C   UNL     1       7.453   5.031  15.699  0.00  0.00    +0.000 A 
ATOM     17  C   UNL     1       6.741   5.026  16.909  0.00  0.00    +0.000 A 
ATOM     18  C   UNL     1       7.442   5.443  18.173  0.00  0.00    +0.000 C 
ENDBRANCH   9  12
BRANCH   1  20
ATOM     19  C   UNL     1       1.106  11.808  19.414  0.00  0.00    +0.000 C 
ATOM     20  O   UNL     1       0.938  10.714  18.522  0.00  0.00    +0.000 OA
ENDBRANCH   1  20
TORSDOF 2
ENDMDL
MODEL 5
REMARK VINA RESULT:      -7.3      4.336      7.388
REMARK  Name = 
REMARK  4 active torsions:
REMARK  status: ('A' for Active; 'I' for Inactive)
REMARK    1  A    between atoms: C_1  and  O_2
REMARK    2  A    between atoms: O_2  and  C_3
REMARK    3  A    between atoms: C_11  and  C_12
REMARK    4  A    between atoms: C_17  and  C_18
REMARK                            x       y       z     vdW  Elec       q    Type
REMARK                         _______ _______ _______ _____ _____    ______ ____
ROOT
ATOM      1  C   UNL     1       6.108   3.922  13.807  0.00  0.00    +0.000 A 
ATOM      2  C   UNL     1       7.240   4.716  14.094  0.00  0.00    +0.000 A 
ATOM      3  C   UNL     1       7.384   5.343  15.338  0.00  0.00    +0.000 A 
ATOM      4  C   UNL     1       6.382   5.142  16.265  0.00  0.00    +0.000 A 
ATOM      5  C   UNL     1       5.271   4.349  15.998  0.00  0.00    +0.000 A 
ATOM      6  C   UNL     1       5.111   3.735  14.775  0.00  0.00    +0.000 A 
ATOM      7  O   UNL     1       4.409   4.245  17.065  0.00  0.00    +0.000 OA
ATOM      8  C   UNL     1       4.984   4.994  18.088  0.00  0.00    +0.000 C 
ATOM      9  C   UNL     1       4.508   5.105  19.333  0.00  0.00    +0.000 C 
ATOM     10  C   UNL     1       6.250   5.626  17.633  0.00  0.00    +0.000 C 
ATOM     11  O   UNL     1       7.006   6.353  18.239  0.00  0.00    +0.000 OA
ENDROOT
BRANCH   9  12
ATOM     12  C   UNL     1       3.299   4.410  19.785  0.00  0.00    +0.000 A 
ATOM     13  C   UNL     1       2.096   5.129  19.848  0.00  0.00    +0.000 A 
ATOM     14  C   UNL     1       0.918   4.505  20.260  0.00  0.00    +0.000 A 
ATOM     15  C   UNL     1       0.930   3.157  20.605  0.00  0.00    +0.000 A 
ATOM     16  C   UNL     1       2.120   2.433  20.545  0.00  0.00    +0.000 A 
ATOM     17  C   UNL     1       3.317   3.048  20.145  0.00  0.00    +0.000 A 
ATOM     18  C   UNL     1       4.580   2.230  20.095  0.00  0.00    +0.000 C 
ENDBRANCH   9  12
BRANCH   1  20
ATOM     19  C   UNL     1       4.581   3.428  12.050  0.00  0.00    +0.000 C 
ATOM     20  O   UNL     1       5.873   3.273  12.623  0.00  0.00    +0.000 OA
ENDBRANCH   1  20
TORSDOF 2
ENDMDL
MODEL 6
REMARK VINA RESULT:      -7.2      0.651      1.627
REMARK  Name = 
REMARK  4 active torsions:
REMARK  status: ('A' for Active; 'I' for Inactive)
REMARK    1  A    between atoms: C_1  and  O_2
REMARK    2  A    between atoms: O_2  and  C_3
REMARK    3  A    between atoms: C_11  and  C_12
REMARK    4  A    between atoms: C_17  and  C_18
REMARK                            x       y       z     vdW  Elec       q    Type
REMARK                         _______ _______ _______ _____ _____    ______ ____
ROOT
ATOM      1  C   UNL     1      -0.017   9.812  21.796  0.00  0.00    +0.000 A 
ATOM      2  C   UNL     1      -0.140  10.754  20.752  0.00  0.00    +0.000 A 
ATOM      3  C   UNL     1       0.493  10.550  19.519  0.00  0.00    +0.000 A 
ATOM      4  C   UNL     1       1.227   9.391  19.371  0.00  0.00    +0.000 A 
ATOM      5  C   UNL     1       1.342   8.449  20.388  0.00  0.00    +0.000 A 
ATOM      6  C   UNL     1       0.733   8.642  21.610  0.00  0.00    +0.000 A 
ATOM      7  O   UNL     1       2.084   7.349  20.028  0.00  0.00    +0.000 OA
ATOM      8  C   UNL     1       2.466   7.568  18.708  0.00  0.00    +0.000 C 
ATOM      9  C   UNL     1       3.144   6.707  17.941  0.00  0.00    +0.000 C 
ATOM     10  C   UNL     1       1.970   8.883  18.225  0.00  0.00    +0.000 C 
ATOM     11  O   UNL     1       2.122   9.412  17.146  0.00  0.00    +0.000 OA
ENDROOT
BRANCH   9  12
ATOM     12  C   UNL     1       3.557   5.381  18.411  0.00  0.00    +0.000 A 
ATOM     13  C   UNL     1       4.811   5.248  19.026  0.00  0.00    +0.000 A 
ATOM     14  C   UNL     1       5.240   4.007  19.500  0.00  0.00    +0.000 A 
ATOM     15  C   UNL     1       4.417   2.892  19.370  0.00  0.00    +0.000 A 
ATOM     16  C   UNL     1       3.168   3.014  18.761  0.00  0.00    +0.000 A 
ATOM     17  C   UNL     1       2.727   4.252  18.267  0.00  0.00    +0.000 A 
ATOM     18  C   UNL     1       1.373   4.339  17.616  0.00  0.00    +0.000 C 
ENDBRANCH   9  12
BRANCH   1  20
ATOM     19  C   UNL     1      -1.474  11.016  23.243  0.00  0.00    +0.000 C 
ATOM     20  O   UNL     1      -0.590   9.921  23.036  0.00  0.00    +0.000 OA
ENDBRANCH   1  20
TORSDOF 2
ENDMDL
MODEL 7
REMARK VINA RESULT:      -7.1      1.049      1.080
REMARK  Name = 
REMARK  4 active torsions:
REMARK  status: ('A' for Active; 'I' for Inactive)
REMARK    1  A    between atoms: C_1  and  O_2
REMARK    2  A    between atoms: O_2  and  C_3
REMARK    3  A    between atoms: C_11  and  C_12
REMARK    4  A    between atoms: C_17  and  C_18
REMARK                            x       y       z     vdW  Elec       q    Type
REMARK                         _______ _______ _______ _____ _____    ______ ____
ROOT
ATOM      1  C   UNL     1       0.458  10.813  21.343  0.00  0.00    +0.000 A 
ATOM      2  C   UNL     1       0.643  11.424  20.085  0.00  0.00    +0.000 A 
ATOM      3  C   UNL     1       1.191  10.711  19.011  0.00  0.00    +0.000 A 
ATOM      4  C   UNL     1       1.530   9.394  19.236  0.00  0.00    +0.000 A 
ATOM      5  C   UNL     1       1.338   8.777  20.468  0.00  0.00    +0.000 A 
ATOM      6  C   UNL     1       0.810   9.469  21.536  0.00  0.00    +0.000 A 
ATOM      7  O   UNL     1       1.705   7.452  20.475  0.00  0.00    +0.000 OA
ATOM      8  C   UNL     1       2.147   7.176  19.185  0.00  0.00    +0.000 C 
ATOM      9  C   UNL     1       2.531   5.977  18.733  0.00  0.00    +0.000 C 
ATOM     10  C   UNL     1       2.089   8.394  18.334  0.00  0.00    +0.000 C 
ATOM     11  O   UNL     1       2.406   8.537  17.174  0.00  0.00    +0.000 OA
ENDROOT
BRANCH   9  12
ATOM     12  C   UNL     1       2.508   4.771  19.565  0.00  0.00    +0.000 A 
ATOM     13  C   UNL     1       1.317   4.436  20.227  0.00  0.00    +0.000 A 
ATOM     14  C   UNL     1       1.245   3.290  21.020  0.00  0.00    +0.000 A 
ATOM     15  C   UNL     1       2.358   2.466  21.152  0.00  0.00    +0.000 A 
ATOM     16  C   UNL     1       3.547   2.789  20.497  0.00  0.00    +0.000 A 
ATOM     17  C   UNL     1       3.641   3.945  19.706  0.00  0.00    +0.000 A 
ATOM     18  C   UNL     1       4.942   4.257  19.018  0.00  0.00    +0.000 C 
ENDBRANCH   9  12
BRANCH   1  20
ATOM     19  C   UNL     1      -1.162  10.781  23.087  0.00  0.00    +0.000 C 
ATOM     20  O   UNL     1      -0.063  11.423  22.454  0.00  0.00    +0.000 OA
ENDBRANCH   1  20
TORSDOF 2
ENDMDL
MODEL 8
REMARK VINA RESULT:      -7.0      2.958      4.462
REMARK  Name = 
REMARK  4 active torsions:
REMARK  status: ('A' for Active; 'I' for Inactive)
REMARK    1  A    between atoms: C_1  and  O_2
REMARK    2  A    between atoms: O_2  and  C_3
REMARK    3  A    between atoms: C_11  and  C_12
REMARK    4  A    between atoms: C_17  and  C_18
REMARK                            x       y       z     vdW  Elec       q    Type
REMARK                         _______ _______ _______ _____ _____    ______ ____
ROOT
ATOM      1  C   UNL     1       1.663   7.845  20.040  0.00  0.00    +0.000 A 
ATOM      2  C   UNL     1       1.316   6.853  20.982  0.00  0.00    +0.000 A 
ATOM      3  C   UNL     1       1.762   5.533  20.836  0.00  0.00    +0.000 A 
ATOM      4  C   UNL     1       2.556   5.253  19.744  0.00  0.00    +0.000 A 
ATOM      5  C   UNL     1       2.917   6.227  18.818  0.00  0.00    +0.000 A 
ATOM      6  C   UNL     1       2.476   7.527  18.944  0.00  0.00    +0.000 A 
ATOM      7  O   UNL     1       3.743   5.753  17.826  0.00  0.00    +0.000 OA
ATOM      8  C   UNL     1       3.949   4.408  18.117  0.00  0.00    +0.000 C 
ATOM      9  C   UNL     1       4.754   3.580  17.442  0.00  0.00    +0.000 C 
ATOM     10  C   UNL     1       3.189   4.007  19.330  0.00  0.00    +0.000 C 
ATOM     11  O   UNL     1       3.114   2.924  19.866  0.00  0.00    +0.000 OA
ENDROOT
BRANCH   9  12
ATOM     12  C   UNL     1       5.556   4.014  16.294  0.00  0.00    +0.000 A 
ATOM     13  C   UNL     1       5.010   3.889  15.008  0.00  0.00    +0.000 A 
ATOM     14  C   UNL     1       5.732   4.300  13.888  0.00  0.00    +0.000 A 
ATOM     15  C   UNL     1       7.002   4.847  14.043  0.00  0.00    +0.000 A 
ATOM     16  C   UNL     1       7.554   4.978  15.317  0.00  0.00    +0.000 A 
ATOM     17  C   UNL     1       6.846   4.556  16.454  0.00  0.00    +0.000 A 
ATOM     18  C   UNL     1       7.479   4.714  17.810  0.00  0.00    +0.000 C 
ENDBRANCH   9  12
BRANCH   1  20
ATOM     19  C   UNL     1       0.458   9.548  21.187  0.00  0.00    +0.000 C 
ATOM     20  O   UNL     1       1.274   9.158  20.090  0.00  0.00    +0.000 OA
ENDBRANCH   1  20
TORSDOF 2
ENDMDL
MODEL 9
REMARK VINA RESULT:      -6.8      1.518      6.553
REMARK  Name = 
REMARK  4 active torsions:
REMARK  status: ('A' for Active; 'I' for Inactive)
REMARK    1  A    between atoms: C_1  and  O_2
REMARK    2  A    between atoms: O_2  and  C_3
REMARK    3  A    between atoms: C_11  and  C_12
REMARK    4  A    between atoms: C_17  and  C_18
REMARK                            x       y       z     vdW  Elec       q    Type
REMARK                         _______ _______ _______ _____ _____    ______ ____
ROOT
ATOM      1  C   UNL     1       3.499   4.243  19.496  0.00  0.00    +0.000 A 
ATOM      2  C   UNL     1       4.045   4.641  18.256  0.00  0.00    +0.000 A 
ATOM      3  C   UNL     1       3.752   5.897  17.710  0.00  0.00    +0.000 A 
ATOM      4  C   UNL     1       2.920   6.723  18.438  0.00  0.00    +0.000 A 
ATOM      5  C   UNL     1       2.390   6.347  19.667  0.00  0.00    +0.000 A 
ATOM      6  C   UNL     1       2.661   5.110  20.211  0.00  0.00    +0.000 A 
ATOM      7  O   UNL     1       1.618   7.326  20.248  0.00  0.00    +0.000 OA
ATOM      8  C   UNL     1       1.651   8.403  19.368  0.00  0.00    +0.000 C 
ATOM      9  C   UNL     1       1.088   9.598  19.578  0.00  0.00    +0.000 C 
ATOM     10  C   UNL     1       2.453   8.075  18.160  0.00  0.00    +0.000 C 
ATOM     11  O   UNL     1       2.686   8.755  17.185  0.00  0.00    +0.000 OA
ENDROOT
BRANCH   9  12
ATOM     12  C   UNL     1       0.366   9.929  20.811  0.00  0.00    +0.000 A 
ATOM     13  C   UNL     1       0.691   9.233  21.985  0.00  0.00    +0.000 A 
ATOM     14  C   UNL     1       0.040   9.523  23.184  0.00  0.00    +0.000 A 
ATOM     15  C   UNL     1      -0.935  10.515  23.223  0.00  0.00    +0.000 A 
ATOM     16  C   UNL     1      -1.265  11.214  22.061  0.00  0.00    +0.000 A 
ATOM     17  C   UNL     1      -0.629  10.926  20.843  0.00  0.00    +0.000 A 
ATOM     18  C   UNL     1      -1.015  11.702  19.614  0.00  0.00    +0.000 C 
ENDBRANCH   9  12
BRANCH   1  20
ATOM     19  C   UNL     1       2.815   2.668  21.144  0.00  0.00    +0.000 C 
ATOM     20  O   UNL     1       3.718   3.038  20.110  0.00  0.00    +0.000 OA
ENDBRANCH   1  20
TORSDOF 2
ENDMDL
