MODEL 1
REMARK VINA RESULT:      -7.9      0.000      0.000
REMARK  Name = 
REMARK  14 active torsions:
REMARK  status: ('A' for Active; 'I' for Inactive)
REMARK    1  A    between atoms: C_1  and  O_2
REMARK    2  A    between atoms: O_2  and  C_3
REMARK    3  A    between atoms: C_8  and  O_9
REMARK    4  A    between atoms: O_9  and  C_10
REMARK    5  A    between atoms: C_10  and  C_11
REMARK    6  A    between atoms: C_11  and  N_12
REMARK    7  A    between atoms: N_12  and  C_13
REMARK    8  A    between atoms: C_13  and  C_14
REMARK    9  A    between atoms: C_14  and  C_15
REMARK   10  A    between atoms: C_14  and  O_17
REMARK   11  A    between atoms: C_15  and  O_16
REMARK   12  A    between atoms: O_17  and  C_18
REMARK   13  A    between atoms: C_18  and  C_19
REMARK   14  A    between atoms: C_18  and  C_25
REMARK                            x       y       z     vdW  Elec       q    Type
REMARK                         _______ _______ _______ _____ _____    ______ ____
ROOT
ATOM      1  C   UNL     1       5.686   6.305  16.710  0.00  0.00    +0.000 C 
ENDROOT
BRANCH   1   2
ATOM      2  C   UNL     1       6.466   6.093  18.028  0.00  0.00    +0.000 C 
BRANCH   2   3
ATOM      3  N   UNL     1       7.801   6.705  18.116  0.00  0.00    +0.000 NA
ATOM      4  H   UNL     1       8.152   6.659  19.072  0.00  0.00    +0.000 HD
BRANCH   3   5
ATOM      5  C   UNL     1       7.772   8.127  17.705  0.00  0.00    +0.000 C 
BRANCH   5   6
ATOM      6  C   UNL     1       8.663   9.001  18.600  0.00  0.00    +0.000 C 
BRANCH   6   7
ATOM      7  O   UNL     1       8.691  10.364  18.214  0.00  0.00    +0.000 OA
BRANCH   7  13
ATOM      8  C   UNL     1      10.084  11.396  20.042  0.00  0.00    +0.000 A 
ATOM      9  C   UNL     1      11.288  12.054  20.331  0.00  0.00    +0.000 A 
ATOM     10  C   UNL     1      12.114  12.500  19.302  0.00  0.00    +0.000 A 
ATOM     11  C   UNL     1      11.763  12.261  17.979  0.00  0.00    +0.000 A 
ATOM     12  C   UNL     1      10.605  11.543  17.684  0.00  0.00    +0.000 A 
ATOM     13  C   UNL     1       9.762  11.083  18.705  0.00  0.00    +0.000 A 
BRANCH   8  15
ATOM     14  C   UNL     1       8.638  12.050  21.815  0.00  0.00    +0.000 C 
ATOM     15  O   UNL     1       9.271  11.001  21.079  0.00  0.00    +0.000 OA
ENDBRANCH   8  15
ENDBRANCH   7  13
ENDBRANCH   6   7
ENDBRANCH   5   6
ENDBRANCH   3   5
ENDBRANCH   2   3
ENDBRANCH   1   2
BRANCH   1  16
ATOM     16  C   UNL     1       6.174   5.299  15.648  0.00  0.00    +0.000 C 
BRANCH  16  17
ATOM     17  O   UNL     1       7.367   4.640  16.066  0.00  0.00    +0.000 OA
ATOM     18  H   UNL     1       7.489   4.898  16.997  0.00  0.00    +0.000 HD
ENDBRANCH  16  17
ENDBRANCH   1  16
BRANCH   1  19
ATOM     19  O   UNL     1       4.268   6.046  16.877  0.00  0.00    +0.000 OA
BRANCH  19  20
ATOM     20  C   UNL     1       3.785   6.011  18.235  0.00  0.00    +0.000 C 
BRANCH  20  21
ATOM     21  C   UNL     1       2.866   7.177  18.547  0.00  0.00    +0.000 A 
ATOM     22  C   UNL     1       2.587   8.157  17.584  0.00  0.00    +0.000 A 
ATOM     23  C   UNL     1       1.746   9.232  17.885  0.00  0.00    +0.000 A 
ATOM     24  C   UNL     1       1.183   9.343  19.154  0.00  0.00    +0.000 A 
ATOM     25  C   UNL     1       1.458   8.381  20.125  0.00  0.00    +0.000 A 
ATOM     26  C   UNL     1       2.296   7.306  19.824  0.00  0.00    +0.000 A 
ENDBRANCH  20  21
BRANCH  20  27
ATOM     27  C   UNL     1       3.152   4.653  18.523  0.00  0.00    +0.000 A 
ATOM     28  C   UNL     1       1.879   4.353  18.000  0.00  0.00    +0.000 A 
ATOM     29  C   UNL     1       1.248   3.147  18.305  0.00  0.00    +0.000 A 
ATOM     30  C   UNL     1       1.884   2.216  19.124  0.00  0.00    +0.000 A 
ATOM     31  C   UNL     1       3.159   2.482  19.618  0.00  0.00    +0.000 A 
ATOM     32  C   UNL     1       3.792   3.689  19.317  0.00  0.00    +0.000 A 
ENDBRANCH  20  27
ENDBRANCH  19  20
ENDBRANCH   1  19
TORSDOF 13
ENDMDL
MODEL 2
REMARK VINA RESULT:      -7.8      1.114      1.515
REMARK  Name = 
REMARK  14 active torsions:
REMARK  status: ('A' for Active; 'I' for Inactive)
REMARK    1  A    between atoms: C_1  and  O_2
REMARK    2  A    between atoms: O_2  and  C_3
REMARK    3  A    between atoms: C_8  and  O_9
REMARK    4  A    between atoms: O_9  and  C_10
REMARK    5  A    between atoms: C_10  and  C_11
REMARK    6  A    between atoms: C_11  and  N_12
REMARK    7  A    between atoms: N_12  and  C_13
REMARK    8  A    between atoms: C_13  and  C_14
REMARK    9  A    between atoms: C_14  and  C_15
REMARK   10  A    between atoms: C_14  and  O_17
REMARK   11  A    between atoms: C_15  and  O_16
REMARK   12  A    between atoms: O_17  and  C_18
REMARK   13  A    between atoms: C_18  and  C_19
REMARK   14  A    between atoms: C_18  and  C_25
REMARK                            x       y       z     vdW  Elec       q    Type
REMARK                         _______ _______ _______ _____ _____    ______ ____
ROOT
ATOM      1  C   UNL     1       5.251   5.782  17.494  0.00  0.00    +0.000 C 
ENDROOT
BRANCH   1   2
ATOM      2  C   UNL     1       6.013   7.037  17.012  0.00  0.00    +0.000 C 
BRANCH   2   3
ATOM      3  N   UNL     1       7.483   6.973  17.040  0.00  0.00    +0.000 NA
ATOM      4  H   UNL     1       7.796   6.013  17.179  0.00  0.00    +0.000 HD
BRANCH   3   5
ATOM      5  C   UNL     1       8.039   7.802  18.134  0.00  0.00    +0.000 C 
BRANCH   5   6
ATOM      6  C   UNL     1       8.406   9.213  17.654  0.00  0.00    +0.000 C 
BRANCH   6   7
ATOM      7  O   UNL     1       8.235  10.211  18.646  0.00  0.00    +0.000 OA
BRANCH   7  13
ATOM      8  C   UNL     1       9.808  11.378  20.232  0.00  0.00    +0.000 A 
ATOM      9  C   UNL     1      11.071  11.973  20.360  0.00  0.00    +0.000 A 
ATOM     10  C   UNL     1      11.862  12.201  19.238  0.00  0.00    +0.000 A 
ATOM     11  C   UNL     1      11.415  11.806  17.983  0.00  0.00    +0.000 A 
ATOM     12  C   UNL     1      10.193  11.148  17.854  0.00  0.00    +0.000 A 
ATOM     13  C   UNL     1       9.383  10.905  18.973  0.00  0.00    +0.000 A 
BRANCH   8  15
ATOM     14  C   UNL     1       9.022  12.282  22.287  0.00  0.00    +0.000 C 
ATOM     15  O   UNL     1       9.034  11.199  21.355  0.00  0.00    +0.000 OA
ENDBRANCH   8  15
ENDBRANCH   7  13
ENDBRANCH   6   7
ENDBRANCH   5   6
ENDBRANCH   3   5
ENDBRANCH   2   3
ENDBRANCH   1   2
BRANCH   1  16
ATOM     16  C   UNL     1       5.648   5.458  18.949  0.00  0.00    +0.000 C 
BRANCH  16  17
ATOM     17  O   UNL     1       6.711   4.509  18.998  0.00  0.00    +0.000 OA
ATOM     18  H   UNL     1       6.424   3.836  19.641  0.00  0.00    +0.000 HD
ENDBRANCH  16  17
ENDBRANCH   1  16
BRANCH   1  19
ATOM     19  O   UNL     1       3.816   5.999  17.517  0.00  0.00    +0.000 OA
BRANCH  19  20
ATOM     20  C   UNL     1       3.224   6.181  18.819  0.00  0.00    +0.000 C 
BRANCH  20  21
ATOM     21  C   UNL     1       2.457   7.486  18.922  0.00  0.00    +0.000 A 
ATOM     22  C   UNL     1       1.818   7.860  20.113  0.00  0.00    +0.000 A 
ATOM     23  C   UNL     1       1.107   9.060  20.193  0.00  0.00    +0.000 A 
ATOM     24  C   UNL     1       1.018   9.894  19.081  0.00  0.00    +0.000 A 
ATOM     25  C   UNL     1       1.639   9.532  17.887  0.00  0.00    +0.000 A 
ATOM     26  C   UNL     1       2.352   8.335  17.807  0.00  0.00    +0.000 A 
ENDBRANCH  20  21
BRANCH  20  27
ATOM     27  C   UNL     1       2.382   4.960  19.178  0.00  0.00    +0.000 A 
ATOM     28  C   UNL     1       1.793   4.193  18.155  0.00  0.00    +0.000 A 
ATOM     29  C   UNL     1       0.963   3.114  18.457  0.00  0.00    +0.000 A 
ATOM     30  C   UNL     1       0.720   2.775  19.787  0.00  0.00    +0.000 A 
ATOM     31  C   UNL     1       1.326   3.500  20.811  0.00  0.00    +0.000 A 
ATOM     32  C   UNL     1       2.155   4.582  20.510  0.00  0.00    +0.000 A 
ENDBRANCH  20  27
ENDBRANCH  19  20
ENDBRANCH   1  19
TORSDOF 13
ENDMDL
MODEL 3
REMARK VINA RESULT:      -7.7      0.565      3.468
REMARK  Name = 
REMARK  14 active torsions:
REMARK  status: ('A' for Active; 'I' for Inactive)
REMARK    1  A    between atoms: C_1  and  O_2
REMARK    2  A    between atoms: O_2  and  C_3
REMARK    3  A    between atoms: C_8  and  O_9
REMARK    4  A    between atoms: O_9  and  C_10
REMARK    5  A    between atoms: C_10  and  C_11
REMARK    6  A    between atoms: C_11  and  N_12
REMARK    7  A    between atoms: N_12  and  C_13
REMARK    8  A    between atoms: C_13  and  C_14
REMARK    9  A    between atoms: C_14  and  C_15
REMARK   10  A    between atoms: C_14  and  O_17
REMARK   11  A    between atoms: C_15  and  O_16
REMARK   12  A    between atoms: O_17  and  C_18
REMARK   13  A    between atoms: C_18  and  C_19
REMARK   14  A    between atoms: C_18  and  C_25
REMARK                            x       y       z     vdW  Elec       q    Type
REMARK                         _______ _______ _______ _____ _____    ______ ____
ROOT
ATOM      1  C   UNL     1       5.546   6.072  16.747  0.00  0.00    +0.000 C 
ENDROOT
BRANCH   1   2
ATOM      2  C   UNL     1       7.069   6.002  17.000  0.00  0.00    +0.000 C 
BRANCH   2   3
ATOM      3  N   UNL     1       7.606   6.859  18.069  0.00  0.00    +0.000 NA
ATOM      4  H   UNL     1       6.988   6.845  18.881  0.00  0.00    +0.000 HD
BRANCH   3   5
ATOM      5  C   UNL     1       7.742   8.263  17.619  0.00  0.00    +0.000 C 
BRANCH   5   6
ATOM      6  C   UNL     1       8.756   9.041  18.470  0.00  0.00    +0.000 C 
BRANCH   6   7
ATOM      7  O   UNL     1       8.673  10.446  18.305  0.00  0.00    +0.000 OA
BRANCH   7  13
ATOM      8  C   UNL     1      10.048  11.492  20.140  0.00  0.00    +0.000 A 
ATOM      9  C   UNL     1      11.260  12.128  20.441  0.00  0.00    +0.000 A 
ATOM     10  C   UNL     1      12.121  12.528  19.422  0.00  0.00    +0.000 A 
ATOM     11  C   UNL     1      11.795  12.263  18.097  0.00  0.00    +0.000 A 
ATOM     12  C   UNL     1      10.627  11.566  17.792  0.00  0.00    +0.000 A 
ATOM     13  C   UNL     1       9.749  11.153  18.804  0.00  0.00    +0.000 A 
BRANCH   8  15
ATOM     14  C   UNL     1       8.772  12.210  22.016  0.00  0.00    +0.000 C 
ATOM     15  O   UNL     1       9.201  11.143  21.167  0.00  0.00    +0.000 OA
ENDBRANCH   8  15
ENDBRANCH   7  13
ENDBRANCH   6   7
ENDBRANCH   5   6
ENDBRANCH   3   5
ENDBRANCH   2   3
ENDBRANCH   1   2
BRANCH   1  16
ATOM     16  C   UNL     1       5.129   4.956  15.767  0.00  0.00    +0.000 C 
BRANCH  16  17
ATOM     17  O   UNL     1       6.134   4.728  14.782  0.00  0.00    +0.000 OA
ATOM     18  H   UNL     1       6.942   5.138  15.141  0.00  0.00    +0.000 HD
ENDBRANCH  16  17
ENDBRANCH   1  16
BRANCH   1  19
ATOM     19  O   UNL     1       4.788   5.832  17.961  0.00  0.00    +0.000 OA
BRANCH  19  20
ATOM     20  C   UNL     1       3.357   5.737  17.806  0.00  0.00    +0.000 C 
BRANCH  20  21
ATOM     21  C   UNL     1       2.798   4.465  18.416  0.00  0.00    +0.000 A 
ATOM     22  C   UNL     1       3.527   3.735  19.366  0.00  0.00    +0.000 A 
ATOM     23  C   UNL     1       3.007   2.560  19.913  0.00  0.00    +0.000 A 
ATOM     24  C   UNL     1       1.756   2.096  19.511  0.00  0.00    +0.000 A 
ATOM     25  C   UNL     1       1.023   2.805  18.560  0.00  0.00    +0.000 A 
ATOM     26  C   UNL     1       1.542   3.981  18.015  0.00  0.00    +0.000 A 
ENDBRANCH  20  21
BRANCH  20  27
ATOM     27  C   UNL     1       2.695   7.001  18.344  0.00  0.00    +0.000 A 
ATOM     28  C   UNL     1       2.302   7.062  19.695  0.00  0.00    +0.000 A 
ATOM     29  C   UNL     1       1.632   8.179  20.195  0.00  0.00    +0.000 A 
ATOM     30  C   UNL     1       1.358   9.258  19.358  0.00  0.00    +0.000 A 
ATOM     31  C   UNL     1       1.774   9.230  18.028  0.00  0.00    +0.000 A 
ATOM     32  C   UNL     1       2.442   8.112  17.525  0.00  0.00    +0.000 A 
ENDBRANCH  20  27
ENDBRANCH  19  20
ENDBRANCH   1  19
TORSDOF 13
ENDMDL
MODEL 4
REMARK VINA RESULT:      -7.6      0.954      3.410
REMARK  Name = 
REMARK  14 active torsions:
REMARK  status: ('A' for Active; 'I' for Inactive)
REMARK    1  A    between atoms: C_1  and  O_2
REMARK    2  A    between atoms: O_2  and  C_3
REMARK    3  A    between atoms: C_8  and  O_9
REMARK    4  A    between atoms: O_9  and  C_10
REMARK    5  A    between atoms: C_10  and  C_11
REMARK    6  A    between atoms: C_11  and  N_12
REMARK    7  A    between atoms: N_12  and  C_13
REMARK    8  A    between atoms: C_13  and  C_14
REMARK    9  A    between atoms: C_14  and  C_15
REMARK   10  A    between atoms: C_14  and  O_17
REMARK   11  A    between atoms: C_15  and  O_16
REMARK   12  A    between atoms: O_17  and  C_18
REMARK   13  A    between atoms: C_18  and  C_19
REMARK   14  A    between atoms: C_18  and  C_25
REMARK                            x       y       z     vdW  Elec       q    Type
REMARK                         _______ _______ _______ _____ _____    ______ ____
ROOT
ATOM      1  C   UNL     1       5.355   6.486  17.811  0.00  0.00    +0.000 C 
ENDROOT
BRANCH   1   2
ATOM      2  C   UNL     1       6.781   5.966  18.102  0.00  0.00    +0.000 C 
BRANCH   2   3
ATOM      3  N   UNL     1       7.894   6.685  17.463  0.00  0.00    +0.000 NA
ATOM      4  H   UNL     1       8.770   6.491  17.949  0.00  0.00    +0.000 HD
BRANCH   3   5
ATOM      5  C   UNL     1       7.673   8.149  17.481  0.00  0.00    +0.000 C 
BRANCH   5   6
ATOM      6  C   UNL     1       8.631   8.861  18.447  0.00  0.00    +0.000 C 
BRANCH   6   7
ATOM      7  O   UNL     1       8.460  10.268  18.479  0.00  0.00    +0.000 OA
BRANCH   7  13
ATOM      8  C   UNL     1       9.999  11.375  20.140  0.00  0.00    +0.000 A 
ATOM      9  C   UNL     1      11.240  12.005  20.306  0.00  0.00    +0.000 A 
ATOM     10  C   UNL     1      12.015  12.344  19.200  0.00  0.00    +0.000 A 
ATOM     11  C   UNL     1      11.574  12.024  17.921  0.00  0.00    +0.000 A 
ATOM     12  C   UNL     1      10.376  11.332  17.750  0.00  0.00    +0.000 A 
ATOM     13  C   UNL     1       9.584  10.979  18.851  0.00  0.00    +0.000 A 
BRANCH   8  15
ATOM     14  C   UNL     1       8.717  12.210  21.962  0.00  0.00    +0.000 C 
ATOM     15  O   UNL     1       9.239  11.086  21.250  0.00  0.00    +0.000 OA
ENDBRANCH   8  15
ENDBRANCH   7  13
ENDBRANCH   6   7
ENDBRANCH   5   6
ENDBRANCH   3   5
ENDBRANCH   2   3
ENDBRANCH   1   2
BRANCH   1  16
ATOM     16  C   UNL     1       4.793   5.788  16.555  0.00  0.00    +0.000 C 
BRANCH  16  17
ATOM     17  O   UNL     1       5.841   5.324  15.706  0.00  0.00    +0.000 OA
ATOM     18  H   UNL     1       5.706   5.785  14.858  0.00  0.00    +0.000 HD
ENDBRANCH  16  17
ENDBRANCH   1  16
BRANCH   1  19
ATOM     19  O   UNL     1       4.435   6.162  18.885  0.00  0.00    +0.000 OA
BRANCH  19  20
ATOM     20  C   UNL     1       3.047   6.038  18.514  0.00  0.00    +0.000 C 
BRANCH  20  21
ATOM     21  C   UNL     1       2.375   4.862  19.196  0.00  0.00    +0.000 A 
ATOM     22  C   UNL     1       1.531   3.996  18.485  0.00  0.00    +0.000 A 
ATOM     23  C   UNL     1       0.910   2.921  19.126  0.00  0.00    +0.000 A 
ATOM     24  C   UNL     1       1.118   2.705  20.486  0.00  0.00    +0.000 A 
ATOM     25  C   UNL     1       1.947   3.562  21.210  0.00  0.00    +0.000 A 
ATOM     26  C   UNL     1       2.569   4.634  20.569  0.00  0.00    +0.000 A 
ENDBRANCH  20  21
BRANCH  20  27
ATOM     27  C   UNL     1       2.328   7.362  18.754  0.00  0.00    +0.000 A 
ATOM     28  C   UNL     1       2.148   8.262  17.686  0.00  0.00    +0.000 A 
ATOM     29  C   UNL     1       1.556   9.508  17.892  0.00  0.00    +0.000 A 
ATOM     30  C   UNL     1       1.122   9.869  19.166  0.00  0.00    +0.000 A 
ATOM     31  C   UNL     1       1.257   8.975  20.226  0.00  0.00    +0.000 A 
ATOM     32  C   UNL     1       1.851   7.728  20.022  0.00  0.00    +0.000 A 
ENDBRANCH  20  27
ENDBRANCH  19  20
ENDBRANCH   1  19
TORSDOF 13
ENDMDL
MODEL 5
REMARK VINA RESULT:      -7.6      1.282      3.650
REMARK  Name = 
REMARK  14 active torsions:
REMARK  status: ('A' for Active; 'I' for Inactive)
REMARK    1  A    between atoms: C_1  and  O_2
REMARK    2  A    between atoms: O_2  and  C_3
REMARK    3  A    between atoms: C_8  and  O_9
REMARK    4  A    between atoms: O_9  and  C_10
REMARK    5  A    between atoms: C_10  and  C_11
REMARK    6  A    between atoms: C_11  and  N_12
REMARK    7  A    between atoms: N_12  and  C_13
REMARK    8  A    between atoms: C_13  and  C_14
REMARK    9  A    between atoms: C_14  and  C_15
REMARK   10  A    between atoms: C_14  and  O_17
REMARK   11  A    between atoms: C_15  and  O_16
REMARK   12  A    between atoms: O_17  and  C_18
REMARK   13  A    between atoms: C_18  and  C_19
REMARK   14  A    between atoms: C_18  and  C_25
REMARK                            x       y       z     vdW  Elec       q    Type
REMARK                         _______ _______ _______ _____ _____    ______ ____
ROOT
ATOM      1  C   UNL     1       5.175   5.489  17.825  0.00  0.00    +0.000 C 
ENDROOT
BRANCH   1   2
ATOM      2  C   UNL     1       5.918   6.509  16.933  0.00  0.00    +0.000 C 
BRANCH   2   3
ATOM      3  N   UNL     1       6.434   7.719  17.594  0.00  0.00    +0.000 NA
ATOM      4  H   UNL     1       6.014   8.554  17.186  0.00  0.00    +0.000 HD
BRANCH   3   5
ATOM      5  C   UNL     1       7.904   7.827  17.452  0.00  0.00    +0.000 C 
BRANCH   5   6
ATOM      6  C   UNL     1       8.521   8.710  18.546  0.00  0.00    +0.000 C 
BRANCH   6   7
ATOM      7  O   UNL     1       8.453  10.096  18.261  0.00  0.00    +0.000 OA
BRANCH   7  13
ATOM      8  C   UNL     1       9.709  11.292  20.089  0.00  0.00    +0.000 A 
ATOM      9  C   UNL     1      10.900  11.955  20.414  0.00  0.00    +0.000 A 
ATOM     10  C   UNL     1      11.824  12.274  19.424  0.00  0.00    +0.000 A 
ATOM     11  C   UNL     1      11.585  11.903  18.106  0.00  0.00    +0.000 A 
ATOM     12  C   UNL     1      10.437  11.178  17.784  0.00  0.00    +0.000 A 
ATOM     13  C   UNL     1       9.496  10.845  18.768  0.00  0.00    +0.000 A 
BRANCH   8  15
ATOM     14  C   UNL     1       8.857  11.870  22.234  0.00  0.00    +0.000 C 
ATOM     15  O   UNL     1       8.797  11.023  21.084  0.00  0.00    +0.000 OA
ENDBRANCH   8  15
ENDBRANCH   7  13
ENDBRANCH   6   7
ENDBRANCH   5   6
ENDBRANCH   3   5
ENDBRANCH   2   3
ENDBRANCH   1   2
BRANCH   1  16
ATOM     16  C   UNL     1       6.197   4.652  18.622  0.00  0.00    +0.000 C 
BRANCH  16  17
ATOM     17  O   UNL     1       5.632   3.415  19.051  0.00  0.00    +0.000 OA
ATOM     18  H   UNL     1       5.095   3.637  19.834  0.00  0.00    +0.000 HD
ENDBRANCH  16  17
ENDBRANCH   1  16
BRANCH   1  19
ATOM     19  O   UNL     1       4.346   6.146  18.818  0.00  0.00    +0.000 OA
BRANCH  19  20
ATOM     20  C   UNL     1       2.921   6.052  18.617  0.00  0.00    +0.000 C 
BRANCH  20  21
ATOM     21  C   UNL     1       2.302   4.925  19.423  0.00  0.00    +0.000 A 
ATOM     22  C   UNL     1       2.648   4.720  20.766  0.00  0.00    +0.000 A 
ATOM     23  C   UNL     1       2.079   3.673  21.496  0.00  0.00    +0.000 A 
ATOM     24  C   UNL     1       1.166   2.814  20.889  0.00  0.00    +0.000 A 
ATOM     25  C   UNL     1       0.819   2.999  19.550  0.00  0.00    +0.000 A 
ATOM     26  C   UNL     1       1.385   4.047  18.822  0.00  0.00    +0.000 A 
ENDBRANCH  20  21
BRANCH  20  27
ATOM     27  C   UNL     1       2.271   7.406  18.883  0.00  0.00    +0.000 A 
ATOM     28  C   UNL     1       1.802   7.714  20.174  0.00  0.00    +0.000 A 
ATOM     29  C   UNL     1       1.143   8.917  20.428  0.00  0.00    +0.000 A 
ATOM     30  C   UNL     1       0.954   9.837  19.399  0.00  0.00    +0.000 A 
ATOM     31  C   UNL     1       1.446   9.565  18.124  0.00  0.00    +0.000 A 
ATOM     32  C   UNL     1       2.104   8.361  17.867  0.00  0.00    +0.000 A 
ENDBRANCH  20  27
ENDBRANCH  19  20
ENDBRANCH   1  19
TORSDOF 13
ENDMDL
MODEL 6
REMARK VINA RESULT:      -7.6      1.341      4.009
REMARK  Name = 
REMARK  14 active torsions:
REMARK  status: ('A' for Active; 'I' for Inactive)
REMARK    1  A    between atoms: C_1  and  O_2
REMARK    2  A    between atoms: O_2  and  C_3
REMARK    3  A    between atoms: C_8  and  O_9
REMARK    4  A    between atoms: O_9  and  C_10
REMARK    5  A    between atoms: C_10  and  C_11
REMARK    6  A    between atoms: C_11  and  N_12
REMARK    7  A    between atoms: N_12  and  C_13
REMARK    8  A    between atoms: C_13  and  C_14
REMARK    9  A    between atoms: C_14  and  C_15
REMARK   10  A    between atoms: C_14  and  O_17
REMARK   11  A    between atoms: C_15  and  O_16
REMARK   12  A    between atoms: O_17  and  C_18
REMARK   13  A    between atoms: C_18  and  C_19
REMARK   14  A    between atoms: C_18  and  C_25
REMARK                            x       y       z     vdW  Elec       q    Type
REMARK                         _______ _______ _______ _____ _____    ______ ____
ROOT
ATOM      1  C   UNL     1       5.991   5.750  17.803  0.00  0.00    +0.000 C 
ENDROOT
BRANCH   1   2
ATOM      2  C   UNL     1       6.293   7.059  17.038  0.00  0.00    +0.000 C 
BRANCH   2   3
ATOM      3  N   UNL     1       7.630   7.644  17.225  0.00  0.00    +0.000 NA
ATOM      4  H   UNL     1       8.161   7.109  17.912  0.00  0.00    +0.000 HD
BRANCH   3   5
ATOM      5  C   UNL     1       7.544   9.044  17.701  0.00  0.00    +0.000 C 
BRANCH   5   6
ATOM      6  C   UNL     1       8.752   9.429  18.568  0.00  0.00    +0.000 C 
BRANCH   6   7
ATOM      7  O   UNL     1       9.564  10.438  17.992  0.00  0.00    +0.000 OA
BRANCH   7  13
ATOM      8  C   UNL     1      10.831  12.518  18.636  0.00  0.00    +0.000 A 
ATOM      9  C   UNL     1      11.039  13.465  19.649  0.00  0.00    +0.000 A 
ATOM     10  C   UNL     1      10.499  13.271  20.918  0.00  0.00    +0.000 A 
ATOM     11  C   UNL     1       9.719  12.151  21.176  0.00  0.00    +0.000 A 
ATOM     12  C   UNL     1       9.446  11.241  20.155  0.00  0.00    +0.000 A 
ATOM     13  C   UNL     1       9.978  11.420  18.870  0.00  0.00    +0.000 A 
BRANCH   8  15
ATOM     14  C   UNL     1      12.280  13.846  17.295  0.00  0.00    +0.000 C 
ATOM     15  O   UNL     1      11.409  12.718  17.403  0.00  0.00    +0.000 OA
ENDBRANCH   8  15
ENDBRANCH   7  13
ENDBRANCH   6   7
ENDBRANCH   5   6
ENDBRANCH   3   5
ENDBRANCH   2   3
ENDBRANCH   1   2
BRANCH   1  16
ATOM     16  C   UNL     1       7.231   5.322  18.614  0.00  0.00    +0.000 C 
BRANCH  16  17
ATOM     17  O   UNL     1       6.950   5.281  20.011  0.00  0.00    +0.000 OA
ATOM     18  H   UNL     1       7.769   5.578  20.446  0.00  0.00    +0.000 HD
ENDBRANCH  16  17
ENDBRANCH   1  16
BRANCH   1  19
ATOM     19  O   UNL     1       4.928   5.929  18.775  0.00  0.00    +0.000 OA
BRANCH  19  20
ATOM     20  C   UNL     1       3.582   5.823  18.269  0.00  0.00    +0.000 C 
BRANCH  20  21
ATOM     21  C   UNL     1       2.881   4.572  18.764  0.00  0.00    +0.000 A 
ATOM     22  C   UNL     1       3.361   3.863  19.875  0.00  0.00    +0.000 A 
ATOM     23  C   UNL     1       2.713   2.707  20.316  0.00  0.00    +0.000 A 
ATOM     24  C   UNL     1       1.583   2.241  19.646  0.00  0.00    +0.000 A 
ATOM     25  C   UNL     1       1.099   2.929  18.534  0.00  0.00    +0.000 A 
ATOM     26  C   UNL     1       1.745   4.086  18.095  0.00  0.00    +0.000 A 
ENDBRANCH  20  21
BRANCH  20  27
ATOM     27  C   UNL     1       2.812   7.104  18.577  0.00  0.00    +0.000 A 
ATOM     28  C   UNL     1       2.225   7.276  19.845  0.00  0.00    +0.000 A 
ATOM     29  C   UNL     1       1.458   8.406  20.131  0.00  0.00    +0.000 A 
ATOM     30  C   UNL     1       1.278   9.388  19.158  0.00  0.00    +0.000 A 
ATOM     31  C   UNL     1       1.885   9.251  17.911  0.00  0.00    +0.000 A 
ATOM     32  C   UNL     1       2.650   8.119  17.623  0.00  0.00    +0.000 A 
ENDBRANCH  20  27
ENDBRANCH  19  20
ENDBRANCH   1  19
TORSDOF 13
ENDMDL
MODEL 7
REMARK VINA RESULT:      -7.6      1.099      2.235
REMARK  Name = 
REMARK  14 active torsions:
REMARK  status: ('A' for Active; 'I' for Inactive)
REMARK    1  A    between atoms: C_1  and  O_2
REMARK    2  A    between atoms: O_2  and  C_3
REMARK    3  A    between atoms: C_8  and  O_9
REMARK    4  A    between atoms: O_9  and  C_10
REMARK    5  A    between atoms: C_10  and  C_11
REMARK    6  A    between atoms: C_11  and  N_12
REMARK    7  A    between atoms: N_12  and  C_13
REMARK    8  A    between atoms: C_13  and  C_14
REMARK    9  A    between atoms: C_14  and  C_15
REMARK   10  A    between atoms: C_14  and  O_17
REMARK   11  A    between atoms: C_15  and  O_16
REMARK   12  A    between atoms: O_17  and  C_18
REMARK   13  A    between atoms: C_18  and  C_19
REMARK   14  A    between atoms: C_18  and  C_25
REMARK                            x       y       z     vdW  Elec       q    Type
REMARK                         _______ _______ _______ _____ _____    ______ ____
ROOT
ATOM      1  C   UNL     1       6.246   6.246  16.767  0.00  0.00    +0.000 C 
ENDROOT
BRANCH   1   2
ATOM      2  C   UNL     1       6.907   6.095  18.156  0.00  0.00    +0.000 C 
BRANCH   2   3
ATOM      3  N   UNL     1       8.111   6.901  18.410  0.00  0.00    +0.000 NA
ATOM      4  H   UNL     1       8.296   6.961  19.412  0.00  0.00    +0.000 HD
BRANCH   3   5
ATOM      5  C   UNL     1       7.960   8.279  17.888  0.00  0.00    +0.000 C 
BRANCH   5   6
ATOM      6  C   UNL     1       8.794   9.290  18.687  0.00  0.00    +0.000 C 
BRANCH   6   7
ATOM      7  O   UNL     1       8.847  10.575  18.094  0.00  0.00    +0.000 OA
BRANCH   7  13
ATOM      8  C   UNL     1      10.061  12.751  18.471  0.00  0.00    +0.000 A 
ATOM      9  C   UNL     1      10.512  13.657  19.441  0.00  0.00    +0.000 A 
ATOM     10  C   UNL     1      10.457  13.330  20.793  0.00  0.00    +0.000 A 
ATOM     11  C   UNL     1       9.918  12.112  21.190  0.00  0.00    +0.000 A 
ATOM     12  C   UNL     1       9.399  11.236  20.237  0.00  0.00    +0.000 A 
ATOM     13  C   UNL     1       9.443  11.548  18.872  0.00  0.00    +0.000 A 
BRANCH   8  15
ATOM     14  C   UNL     1      11.482  13.364  16.663  0.00  0.00    +0.000 C 
ATOM     15  O   UNL     1      10.163  13.087  17.140  0.00  0.00    +0.000 OA
ENDBRANCH   8  15
ENDBRANCH   7  13
ENDBRANCH   6   7
ENDBRANCH   5   6
ENDBRANCH   3   5
ENDBRANCH   2   3
ENDBRANCH   1   2
BRANCH   1  16
ATOM     16  C   UNL     1       6.695   5.091  15.848  0.00  0.00    +0.000 C 
BRANCH  16  17
ATOM     17  O   UNL     1       7.614   5.544  14.857  0.00  0.00    +0.000 OA
ATOM     18  H   UNL     1       7.101   6.146  14.288  0.00  0.00    +0.000 HD
ENDBRANCH  16  17
ENDBRANCH   1  16
BRANCH   1  19
ATOM     19  O   UNL     1       4.800   6.146  16.846  0.00  0.00    +0.000 OA
BRANCH  19  20
ATOM     20  C   UNL     1       4.250   5.937  18.163  0.00  0.00    +0.000 C 
BRANCH  20  21
ATOM     21  C   UNL     1       3.223   6.991  18.529  0.00  0.00    +0.000 A 
ATOM     22  C   UNL     1       2.555   6.956  19.762  0.00  0.00    +0.000 A 
ATOM     23  C   UNL     1       1.604   7.926  20.084  0.00  0.00    +0.000 A 
ATOM     24  C   UNL     1       1.302   8.938  19.175  0.00  0.00    +0.000 A 
ATOM     25  C   UNL     1       1.951   8.981  17.941  0.00  0.00    +0.000 A 
ATOM     26  C   UNL     1       2.903   8.013  17.620  0.00  0.00    +0.000 A 
ENDBRANCH  20  21
BRANCH  20  27
ATOM     27  C   UNL     1       3.716   4.512  18.278  0.00  0.00    +0.000 A 
ATOM     28  C   UNL     1       4.282   3.629  19.218  0.00  0.00    +0.000 A 
ATOM     29  C   UNL     1       3.859   2.302  19.296  0.00  0.00    +0.000 A 
ATOM     30  C   UNL     1       2.856   1.840  18.447  0.00  0.00    +0.000 A 
ATOM     31  C   UNL     1       2.259   2.711  17.538  0.00  0.00    +0.000 A 
ATOM     32  C   UNL     1       2.682   4.039  17.456  0.00  0.00    +0.000 A 
ENDBRANCH  20  27
ENDBRANCH  19  20
ENDBRANCH   1  19
TORSDOF 13
ENDMDL
MODEL 8
REMARK VINA RESULT:      -7.5      1.449      2.419
REMARK  Name = 
REMARK  14 active torsions:
REMARK  status: ('A' for Active; 'I' for Inactive)
REMARK    1  A    between atoms: C_1  and  O_2
REMARK    2  A    between atoms: O_2  and  C_3
REMARK    3  A    between atoms: C_8  and  O_9
REMARK    4  A    between atoms: O_9  and  C_10
REMARK    5  A    between atoms: C_10  and  C_11
REMARK    6  A    between atoms: C_11  and  N_12
REMARK    7  A    between atoms: N_12  and  C_13
REMARK    8  A    between atoms: C_13  and  C_14
REMARK    9  A    between atoms: C_14  and  C_15
REMARK   10  A    between atoms: C_14  and  O_17
REMARK   11  A    between atoms: C_15  and  O_16
REMARK   12  A    between atoms: O_17  and  C_18
REMARK   13  A    between atoms: C_18  and  C_19
REMARK   14  A    between atoms: C_18  and  C_25
REMARK                            x       y       z     vdW  Elec       q    Type
REMARK                         _______ _______ _______ _____ _____    ______ ____
ROOT
ATOM      1  C   UNL     1       5.132   5.723  17.426  0.00  0.00    +0.000 C 
ENDROOT
BRANCH   1   2
ATOM      2  C   UNL     1       5.859   6.991  17.927  0.00  0.00    +0.000 C 
BRANCH   2   3
ATOM      3  N   UNL     1       6.987   7.475  17.116  0.00  0.00    +0.000 NA
ATOM      4  H   UNL     1       7.349   6.726  16.525  0.00  0.00    +0.000 HD
BRANCH   3   5
ATOM      5  C   UNL     1       8.095   7.964  17.968  0.00  0.00    +0.000 C 
BRANCH   5   6
ATOM      6  C   UNL     1       8.093   9.495  18.086  0.00  0.00    +0.000 C 
BRANCH   6   7
ATOM      7  O   UNL     1       9.375  10.077  17.928  0.00  0.00    +0.000 OA
BRANCH   7  13
ATOM      8  C   UNL     1      10.055  12.447  18.453  0.00  0.00    +0.000 A 
ATOM      9  C   UNL     1      10.164  13.408  19.467  0.00  0.00    +0.000 A 
ATOM     10  C   UNL     1       9.974  13.053  20.800  0.00  0.00    +0.000 A 
ATOM     11  C   UNL     1       9.638  11.745  21.129  0.00  0.00    +0.000 A 
ATOM     12  C   UNL     1       9.456  10.799  20.121  0.00  0.00    +0.000 A 
ATOM     13  C   UNL     1       9.639  11.137  18.773  0.00  0.00    +0.000 A 
BRANCH   8  15
ATOM     14  C   UNL     1      11.511  13.510  16.901  0.00  0.00    +0.000 C 
ATOM     15  O   UNL     1      10.285  12.819  17.148  0.00  0.00    +0.000 OA
ENDBRANCH   8  15
ENDBRANCH   7  13
ENDBRANCH   6   7
ENDBRANCH   5   6
ENDBRANCH   3   5
ENDBRANCH   2   3
ENDBRANCH   1   2
BRANCH   1  16
ATOM     16  C   UNL     1       5.548   4.510  18.283  0.00  0.00    +0.000 C 
BRANCH  16  17
ATOM     17  O   UNL     1       6.540   4.868  19.243  0.00  0.00    +0.000 OA
ATOM     18  H   UNL     1       6.467   4.201  19.948  0.00  0.00    +0.000 HD
ENDBRANCH  16  17
ENDBRANCH   1  16
BRANCH   1  19
ATOM     19  O   UNL     1       3.693   5.834  17.574  0.00  0.00    +0.000 OA
BRANCH  19  20
ATOM     20  C   UNL     1       3.213   6.125  18.903  0.00  0.00    +0.000 C 
BRANCH  20  21
ATOM     21  C   UNL     1       2.440   7.429  18.961  0.00  0.00    +0.000 A 
ATOM     22  C   UNL     1       1.810   7.846  20.142  0.00  0.00    +0.000 A 
ATOM     23  C   UNL     1       1.093   9.045  20.181  0.00  0.00    +0.000 A 
ATOM     24  C   UNL     1       0.990   9.834  19.038  0.00  0.00    +0.000 A 
ATOM     25  C   UNL     1       1.603   9.428  17.853  0.00  0.00    +0.000 A 
ATOM     26  C   UNL     1       2.322   8.232  17.814  0.00  0.00    +0.000 A 
ENDBRANCH  20  21
BRANCH  20  27
ATOM     27  C   UNL     1       2.423   4.934  19.438  0.00  0.00    +0.000 A 
ATOM     28  C   UNL     1       2.489   4.612  20.807  0.00  0.00    +0.000 A 
ATOM     29  C   UNL     1       1.832   3.489  21.310  0.00  0.00    +0.000 A 
ATOM     30  C   UNL     1       1.088   2.678  20.456  0.00  0.00    +0.000 A 
ATOM     31  C   UNL     1       0.981   3.004  19.105  0.00  0.00    +0.000 A 
ATOM     32  C   UNL     1       1.640   4.126  18.600  0.00  0.00    +0.000 A 
ENDBRANCH  20  27
ENDBRANCH  19  20
ENDBRANCH   1  19
TORSDOF 13
ENDMDL
MODEL 9
REMARK VINA RESULT:      -7.5      0.969      3.499
REMARK  Name = 
REMARK  14 active torsions:
REMARK  status: ('A' for Active; 'I' for Inactive)
REMARK    1  A    between atoms: C_1  and  O_2
REMARK    2  A    between atoms: O_2  and  C_3
REMARK    3  A    between atoms: C_8  and  O_9
REMARK    4  A    between atoms: O_9  and  C_10
REMARK    5  A    between atoms: C_10  and  C_11
REMARK    6  A    between atoms: C_11  and  N_12
REMARK    7  A    between atoms: N_12  and  C_13
REMARK    8  A    between atoms: C_13  and  C_14
REMARK    9  A    between atoms: C_14  and  C_15
REMARK   10  A    between atoms: C_14  and  O_17
REMARK   11  A    between atoms: C_15  and  O_16
REMARK   12  A    between atoms: O_17  and  C_18
REMARK   13  A    between atoms: C_18  and  C_19
REMARK   14  A    between atoms: C_18  and  C_25
REMARK                            x       y       z     vdW  Elec       q    Type
REMARK                         _______ _______ _______ _____ _____    ______ ____
ROOT
ATOM      1  C   UNL     1       5.828   5.644  18.220  0.00  0.00    +0.000 C 
ENDROOT
BRANCH   1   2
ATOM      2  C   UNL     1       6.155   6.712  17.153  0.00  0.00    +0.000 C 
BRANCH   2   3
ATOM      3  N   UNL     1       7.450   7.400  17.276  0.00  0.00    +0.000 NA
ATOM      4  H   UNL     1       8.026   6.951  17.988  0.00  0.00    +0.000 HD
BRANCH   3   5
ATOM      5  C   UNL     1       7.274   8.820  17.654  0.00  0.00    +0.000 C 
BRANCH   5   6
ATOM      6  C   UNL     1       8.619   9.547  17.796  0.00  0.00    +0.000 C 
BRANCH   6   7
ATOM      7  O   UNL     1       8.908   9.950  19.123  0.00  0.00    +0.000 OA
BRANCH   7  13
ATOM      8  C   UNL     1      10.185  11.740  20.355  0.00  0.00    +0.000 A 
ATOM      9  C   UNL     1      11.252  12.645  20.276  0.00  0.00    +0.000 A 
ATOM     10  C   UNL     1      11.908  12.860  19.066  0.00  0.00    +0.000 A 
ATOM     11  C   UNL     1      11.528  12.146  17.936  0.00  0.00    +0.000 A 
ATOM     12  C   UNL     1      10.516  11.190  18.022  0.00  0.00    +0.000 A 
ATOM     13  C   UNL     1       9.846  10.957  19.231  0.00  0.00    +0.000 A 
BRANCH   8  15
ATOM     14  C   UNL     1       8.526  12.546  21.858  0.00  0.00    +0.000 C 
ATOM     15  O   UNL     1       9.531  11.577  21.556  0.00  0.00    +0.000 OA
ENDBRANCH   8  15
ENDBRANCH   7  13
ENDBRANCH   6   7
ENDBRANCH   5   6
ENDBRANCH   3   5
ENDBRANCH   2   3
ENDBRANCH   1   2
BRANCH   1  16
ATOM     16  C   UNL     1       7.022   5.487  19.185  0.00  0.00    +0.000 C 
BRANCH  16  17
ATOM     17  O   UNL     1       8.039   4.663  18.621  0.00  0.00    +0.000 OA
ATOM     18  H   UNL     1       8.542   4.320  19.382  0.00  0.00    +0.000 HD
ENDBRANCH  16  17
ENDBRANCH   1  16
BRANCH   1  19
ATOM     19  O   UNL     1       4.702   6.037  19.048  0.00  0.00    +0.000 OA
BRANCH  19  20
ATOM     20  C   UNL     1       3.399   5.918  18.443  0.00  0.00    +0.000 C 
BRANCH  20  21
ATOM     21  C   UNL     1       2.680   4.654  18.874  0.00  0.00    +0.000 A 
ATOM     22  C   UNL     1       1.601   4.146  18.136  0.00  0.00    +0.000 A 
ATOM     23  C   UNL     1       0.941   2.985  18.548  0.00  0.00    +0.000 A 
ATOM     24  C   UNL     1       1.345   2.325  19.706  0.00  0.00    +0.000 A 
ATOM     25  C   UNL     1       2.411   2.823  20.456  0.00  0.00    +0.000 A 
ATOM     26  C   UNL     1       3.072   3.981  20.043  0.00  0.00    +0.000 A 
ENDBRANCH  20  21
BRANCH  20  27
ATOM     27  C   UNL     1       2.591   7.186  18.705  0.00  0.00    +0.000 A 
ATOM     28  C   UNL     1       2.426   8.133  17.675  0.00  0.00    +0.000 A 
ATOM     29  C   UNL     1       1.752   9.332  17.907  0.00  0.00    +0.000 A 
ATOM     30  C   UNL     1       1.220   9.598  19.167  0.00  0.00    +0.000 A 
ATOM     31  C   UNL     1       1.341   8.655  20.186  0.00  0.00    +0.000 A 
ATOM     32  C   UNL     1       2.018   7.456  19.957  0.00  0.00    +0.000 A 
ENDBRANCH  20  27
ENDBRANCH  19  20
ENDBRANCH   1  19
TORSDOF 13
ENDMDL
