MODEL 1
REMARK VINA RESULT:      -5.2      0.000      0.000
REMARK  Name = 
REMARK  2 active torsions:
REMARK  status: ('A' for Active; 'I' for Inactive)
REMARK    1  A    between atoms: C_2  and  C_5
REMARK    2  A    between atoms: C_5  and  C_6
REMARK                            x       y       z     vdW  Elec       q    Type
REMARK                         _______ _______ _______ _____ _____    ______ ____
ROOT
ATOM      1  C   UNL     1       3.322   3.579  18.252  0.00  0.00    +0.000 C 
ATOM      2  C   UNL     1       4.329   4.011  19.343  0.00  0.00    +0.000 C 
ATOM      3  N   UNL     1       5.728   3.800  18.917  0.00  0.00    +0.000 NA
ATOM      4  C   UNL     1       5.940   4.497  17.635  0.00  0.00    +0.000 C 
ATOM      5  C   UNL     1       4.916   4.082  16.572  0.00  0.00    +0.000 C 
ATOM      6  O   UNL     1       3.574   4.301  17.028  0.00  0.00    +0.000 OA
ATOM      7  H   UNL     1       5.873   2.799  18.767  0.00  0.00    +0.000 HD
ENDROOT
BRANCH   1   8
ATOM      8  C   UNL     1       1.866   3.843  18.617  0.00  0.00    +0.000 C 
BRANCH   8  10
ATOM      9  F   UNL     1       0.146   2.204  18.551  0.00  0.00    +0.000 F 
ATOM     10  C   UNL     1       1.186   2.670  19.272  0.00  0.00    +0.000 C 
ATOM     11  F   UNL     1       0.709   3.016  20.490  0.00  0.00    +0.000 F 
ATOM     12  F   UNL     1       2.053   1.649  19.454  0.00  0.00    +0.000 F 
ENDBRANCH   8  10
ENDBRANCH   1   8
TORSDOF 2
ENDMDL
MODEL 2
REMARK VINA RESULT:      -5.2      0.276      1.141
REMARK  Name = 
REMARK  2 active torsions:
REMARK  status: ('A' for Active; 'I' for Inactive)
REMARK    1  A    between atoms: C_2  and  C_5
REMARK    2  A    between atoms: C_5  and  C_6
REMARK                            x       y       z     vdW  Elec       q    Type
REMARK                         _______ _______ _______ _____ _____    ______ ____
ROOT
ATOM      1  C   UNL     1       3.415   3.445  18.003  0.00  0.00    +0.000 C 
ATOM      2  C   UNL     1       4.239   3.949  19.210  0.00  0.00    +0.000 C 
ATOM      3  N   UNL     1       5.692   3.806  18.984  0.00  0.00    +0.000 NA
ATOM      4  C   UNL     1       6.042   4.492  17.727  0.00  0.00    +0.000 C 
ATOM      5  C   UNL     1       5.197   4.005  16.544  0.00  0.00    +0.000 C 
ATOM      6  O   UNL     1       3.796   4.159  16.807  0.00  0.00    +0.000 OA
ATOM      7  H   UNL     1       5.907   2.812  18.879  0.00  0.00    +0.000 HD
ENDROOT
BRANCH   1   8
ATOM      8  C   UNL     1       1.910   3.637  18.159  0.00  0.00    +0.000 C 
BRANCH   8  10
ATOM      9  F   UNL     1       2.050   1.544  19.277  0.00  0.00    +0.000 F 
ATOM     10  C   UNL     1       1.264   2.618  19.060  0.00  0.00    +0.000 C 
ATOM     11  F   UNL     1       0.109   2.168  18.517  0.00  0.00    +0.000 F 
ATOM     12  F   UNL     1       0.962   3.158  20.261  0.00  0.00    +0.000 F 
ENDBRANCH   8  10
ENDBRANCH   1   8
TORSDOF 2
ENDMDL
MODEL 3
REMARK VINA RESULT:      -5.2      0.106      1.159
REMARK  Name = 
REMARK  2 active torsions:
REMARK  status: ('A' for Active; 'I' for Inactive)
REMARK    1  A    between atoms: C_2  and  C_5
REMARK    2  A    between atoms: C_5  and  C_6
REMARK                            x       y       z     vdW  Elec       q    Type
REMARK                         _______ _______ _______ _____ _____    ______ ____
ROOT
ATOM      1  C   UNL     1       3.333   3.505  18.213  0.00  0.00    +0.000 C 
ATOM      2  C   UNL     1       4.271   3.977  19.347  0.00  0.00    +0.000 C 
ATOM      3  N   UNL     1       5.695   3.791  19.000  0.00  0.00    +0.000 NA
ATOM      4  C   UNL     1       5.959   4.471  17.719  0.00  0.00    +0.000 C 
ATOM      5  C   UNL     1       5.003   4.015  16.611  0.00  0.00    +0.000 C 
ATOM      6  O   UNL     1       3.634   4.212  16.991  0.00  0.00    +0.000 OA
ATOM      7  H   UNL     1       5.869   2.791  18.876  0.00  0.00    +0.000 HD
ENDROOT
BRANCH   1   8
ATOM      8  C   UNL     1       1.854   3.742  18.496  0.00  0.00    +0.000 C 
BRANCH   8  10
ATOM      9  F   UNL     1       0.783   2.938  20.459  0.00  0.00    +0.000 F 
ATOM     10  C   UNL     1       1.188   2.601  19.218  0.00  0.00    +0.000 C 
ATOM     11  F   UNL     1       2.038   1.556  19.343  0.00  0.00    +0.000 F 
ATOM     12  F   UNL     1       0.107   2.162  18.536  0.00  0.00    +0.000 F 
ENDBRANCH   8  10
ENDBRANCH   1   8
TORSDOF 2
ENDMDL
MODEL 4
REMARK VINA RESULT:      -5.1      1.633      2.084
REMARK  Name = 
REMARK  2 active torsions:
REMARK  status: ('A' for Active; 'I' for Inactive)
REMARK    1  A    between atoms: C_2  and  C_5
REMARK    2  A    between atoms: C_5  and  C_6
REMARK                            x       y       z     vdW  Elec       q    Type
REMARK                         _______ _______ _______ _____ _____    ______ ____
ROOT
ATOM      1  C   UNL     1       4.341   4.295  17.887  0.00  0.00    +0.000 C 
ATOM      2  C   UNL     1       5.482   4.732  18.834  0.00  0.00    +0.000 C 
ATOM      3  N   UNL     1       6.789   4.189  18.411  0.00  0.00    +0.000 NA
ATOM      4  C   UNL     1       7.029   4.579  17.010  0.00  0.00    +0.000 C 
ATOM      5  C   UNL     1       5.878   4.165  16.087  0.00  0.00    +0.000 C 
ATOM      6  O   UNL     1       4.629   4.710  16.535  0.00  0.00    +0.000 OA
ATOM      7  H   UNL     1       6.746   3.169  18.460  0.00  0.00    +0.000 HD
ENDROOT
BRANCH   1   8
ATOM      8  C   UNL     1       2.982   4.888  18.240  0.00  0.00    +0.000 C 
BRANCH   8  10
ATOM      9  F   UNL     1       1.183   3.534  19.002  0.00  0.00    +0.000 F 
ATOM     10  C   UNL     1       1.825   3.984  17.905  0.00  0.00    +0.000 C 
ATOM     11  F   UNL     1       2.251   2.901  17.216  0.00  0.00    +0.000 F 
ATOM     12  F   UNL     1       0.920   4.624  17.132  0.00  0.00    +0.000 F 
ENDBRANCH   8  10
ENDBRANCH   1   8
TORSDOF 2
ENDMDL
MODEL 5
REMARK VINA RESULT:      -5.1      1.550      1.883
REMARK  Name = 
REMARK  2 active torsions:
REMARK  status: ('A' for Active; 'I' for Inactive)
REMARK    1  A    between atoms: C_2  and  C_5
REMARK    2  A    between atoms: C_5  and  C_6
REMARK                            x       y       z     vdW  Elec       q    Type
REMARK                         _______ _______ _______ _____ _____    ______ ____
ROOT
ATOM      1  C   UNL     1       4.256   4.283  17.976  0.00  0.00    +0.000 C 
ATOM      2  C   UNL     1       5.451   4.750  18.839  0.00  0.00    +0.000 C 
ATOM      3  N   UNL     1       6.732   4.197  18.354  0.00  0.00    +0.000 NA
ATOM      4  C   UNL     1       6.885   4.546  16.929  0.00  0.00    +0.000 C 
ATOM      5  C   UNL     1       5.681   4.103  16.090  0.00  0.00    +0.000 C 
ATOM      6  O   UNL     1       4.460   4.659  16.597  0.00  0.00    +0.000 OA
ATOM      7  H   UNL     1       6.696   3.179  18.435  0.00  0.00    +0.000 HD
ENDROOT
BRANCH   1   8
ATOM      8  C   UNL     1       2.919   4.883  18.394  0.00  0.00    +0.000 C 
BRANCH   8  10
ATOM      9  F   UNL     1       2.097   2.838  17.506  0.00  0.00    +0.000 F 
ATOM     10  C   UNL     1       1.736   4.019  18.047  0.00  0.00    +0.000 C 
ATOM     11  F   UNL     1       0.937   4.644  17.151  0.00  0.00    +0.000 F 
ATOM     12  F   UNL     1       0.988   3.760  19.142  0.00  0.00    +0.000 F 
ENDBRANCH   8  10
ENDBRANCH   1   8
TORSDOF 2
ENDMDL
MODEL 6
REMARK VINA RESULT:      -5.1      1.608      1.736
REMARK  Name = 
REMARK  2 active torsions:
REMARK  status: ('A' for Active; 'I' for Inactive)
REMARK    1  A    between atoms: C_2  and  C_5
REMARK    2  A    between atoms: C_5  and  C_6
REMARK                            x       y       z     vdW  Elec       q    Type
REMARK                         _______ _______ _______ _____ _____    ______ ____
ROOT
ATOM      1  C   UNL     1       4.312   4.382  17.886  0.00  0.00    +0.000 C 
ATOM      2  C   UNL     1       5.472   4.823  18.807  0.00  0.00    +0.000 C 
ATOM      3  N   UNL     1       6.762   4.235  18.391  0.00  0.00    +0.000 NA
ATOM      4  C   UNL     1       6.997   4.571  16.975  0.00  0.00    +0.000 C 
ATOM      5  C   UNL     1       5.826   4.154  16.077  0.00  0.00    +0.000 C 
ATOM      6  O   UNL     1       4.596   4.745  16.518  0.00  0.00    +0.000 OA
ATOM      7  H   UNL     1       6.695   3.218  18.474  0.00  0.00    +0.000 HD
ENDROOT
BRANCH   1   8
ATOM      8  C   UNL     1       2.971   5.019  18.232  0.00  0.00    +0.000 C 
BRANCH   8  10
ATOM      9  F   UNL     1       0.883   4.645  17.160  0.00  0.00    +0.000 F 
ATOM     10  C   UNL     1       1.793   4.109  17.999  0.00  0.00    +0.000 C 
ATOM     11  F   UNL     1       1.160   3.843  19.164  0.00  0.00    +0.000 F 
ATOM     12  F   UNL     1       2.191   2.928  17.476  0.00  0.00    +0.000 F 
ENDBRANCH   8  10
ENDBRANCH   1   8
TORSDOF 2
ENDMDL
MODEL 7
REMARK VINA RESULT:      -5.0      4.992      5.673
REMARK  Name = 
REMARK  2 active torsions:
REMARK  status: ('A' for Active; 'I' for Inactive)
REMARK    1  A    between atoms: C_2  and  C_5
REMARK    2  A    between atoms: C_5  and  C_6
REMARK                            x       y       z     vdW  Elec       q    Type
REMARK                         _______ _______ _______ _____ _____    ______ ____
ROOT
ATOM      1  C   UNL     1       6.760   5.531  16.231  0.00  0.00    +0.000 C 
ATOM      2  C   UNL     1       6.746   4.533  17.411  0.00  0.00    +0.000 C 
ATOM      3  N   UNL     1       7.815   4.819  18.390  0.00  0.00    +0.000 NA
ATOM      4  C   UNL     1       7.689   6.222  18.826  0.00  0.00    +0.000 C 
ATOM      5  C   UNL     1       7.676   7.198  17.645  0.00  0.00    +0.000 C 
ATOM      6  O   UNL     1       6.626   6.882  16.720  0.00  0.00    +0.000 OA
ATOM      7  H   UNL     1       8.718   4.705  17.924  0.00  0.00    +0.000 HD
ENDROOT
BRANCH   1   8
ATOM      8  C   UNL     1       5.631   5.320  15.229  0.00  0.00    +0.000 C 
BRANCH   8  10
ATOM      9  F   UNL     1       6.288   3.102  14.681  0.00  0.00    +0.000 F 
ATOM     10  C   UNL     1       5.951   4.302  14.166  0.00  0.00    +0.000 C 
ATOM     11  F   UNL     1       6.989   4.720  13.405  0.00  0.00    +0.000 F 
ATOM     12  F   UNL     1       4.896   4.116  13.342  0.00  0.00    +0.000 F 
ENDBRANCH   8  10
ENDBRANCH   1   8
TORSDOF 2
ENDMDL
MODEL 8
REMARK VINA RESULT:      -5.0      1.252      1.858
REMARK  Name = 
REMARK  2 active torsions:
REMARK  status: ('A' for Active; 'I' for Inactive)
REMARK    1  A    between atoms: C_2  and  C_5
REMARK    2  A    between atoms: C_5  and  C_6
REMARK                            x       y       z     vdW  Elec       q    Type
REMARK                         _______ _______ _______ _____ _____    ______ ____
ROOT
ATOM      1  C   UNL     1       4.432   3.742  17.818  0.00  0.00    +0.000 C 
ATOM      2  C   UNL     1       5.498   4.464  18.673  0.00  0.00    +0.000 C 
ATOM      3  N   UNL     1       6.866   4.222  18.171  0.00  0.00    +0.000 NA
ATOM      4  C   UNL     1       6.919   4.606  16.749  0.00  0.00    +0.000 C 
ATOM      5  C   UNL     1       5.839   3.905  15.917  0.00  0.00    +0.000 C 
ATOM      6  O   UNL     1       4.529   4.165  16.441  0.00  0.00    +0.000 OA
ATOM      7  H   UNL     1       7.064   3.221  18.243  0.00  0.00    +0.000 HD
ENDROOT
BRANCH   1   8
ATOM      8  C   UNL     1       2.998   4.019  18.254  0.00  0.00    +0.000 C 
BRANCH   8  10
ATOM      9  F   UNL     1       2.286   2.121  19.494  0.00  0.00    +0.000 F 
ATOM     10  C   UNL     1       2.141   2.783  18.328  0.00  0.00    +0.000 C 
ATOM     11  F   UNL     1       2.461   1.922  17.334  0.00  0.00    +0.000 F 
ATOM     12  F   UNL     1       0.833   3.092  18.188  0.00  0.00    +0.000 F 
ENDBRANCH   8  10
ENDBRANCH   1   8
TORSDOF 2
ENDMDL
MODEL 9
REMARK VINA RESULT:      -5.0      0.946      1.092
REMARK  Name = 
REMARK  2 active torsions:
REMARK  status: ('A' for Active; 'I' for Inactive)
REMARK    1  A    between atoms: C_2  and  C_5
REMARK    2  A    between atoms: C_5  and  C_6
REMARK                            x       y       z     vdW  Elec       q    Type
REMARK                         _______ _______ _______ _____ _____    ______ ____
ROOT
ATOM      1  C   UNL     1       3.529   4.027  18.030  0.00  0.00    +0.000 C 
ATOM      2  C   UNL     1       4.621   3.768  19.093  0.00  0.00    +0.000 C 
ATOM      3  N   UNL     1       5.979   3.990  18.555  0.00  0.00    +0.000 NA
ATOM      4  C   UNL     1       6.044   5.350  17.989  0.00  0.00    +0.000 C 
ATOM      5  C   UNL     1       4.939   5.603  16.958  0.00  0.00    +0.000 C 
ATOM      6  O   UNL     1       3.640   5.373  17.521  0.00  0.00    +0.000 OA
ATOM      7  H   UNL     1       6.142   3.318  17.802  0.00  0.00    +0.000 HD
ENDROOT
BRANCH   1   8
ATOM      8  C   UNL     1       2.107   3.880  18.557  0.00  0.00    +0.000 C 
BRANCH   8  10
ATOM      9  F   UNL     1       0.284   2.356  18.489  0.00  0.00    +0.000 F 
ATOM     10  C   UNL     1       1.625   2.454  18.601  0.00  0.00    +0.000 C 
ATOM     11  F   UNL     1       1.975   1.870  19.770  0.00  0.00    +0.000 F 
ATOM     12  F   UNL     1       2.176   1.726  17.605  0.00  0.00    +0.000 F 
ENDBRANCH   8  10
ENDBRANCH   1   8
TORSDOF 2
ENDMDL
