MODEL 1
REMARK VINA RESULT:      -7.3      0.000      0.000
REMARK  Name = 
REMARK  2 active torsions:
REMARK  status: ('A' for Active; 'I' for Inactive)
REMARK    1  A    between atoms: C_9  and  C_10
REMARK    2  A    between atoms: C_10  and  C_11
REMARK                            x       y       z     vdW  Elec       q    Type
REMARK                         _______ _______ _______ _____ _____    ______ ____
ROOT
ATOM      1  O   UNL     1       2.066   5.517  18.091  0.00  0.00    +0.000 OA
ATOM      2  C   UNL     1       2.242   4.501  18.762  0.00  0.00    +0.000 C 
ATOM      3  C   UNL     1       1.093   3.628  19.237  0.00  0.00    +0.000 C 
ATOM      4  C   UNL     1       1.339   2.243  18.638  0.00  0.00    +0.000 C 
ATOM      5  C   UNL     1       2.707   1.717  19.098  0.00  0.00    +0.000 C 
ATOM      6  N   UNL     1       3.418   2.700  19.943  0.00  0.00    +0.000 NA
ATOM      7  C   UNL     1       2.587   2.967  21.143  0.00  0.00    +0.000 C 
ATOM      8  C   UNL     1       1.219   3.555  20.764  0.00  0.00    +0.000 C 
ATOM      9  C   UNL     1       3.626   3.997  19.205  0.00  0.00    +0.000 C 
ENDROOT
BRANCH   9  10
ATOM     10  C   UNL     1       4.587   3.936  17.992  0.00  0.00    +0.000 C 
BRANCH  10  11
ATOM     11  C   UNL     1       5.564   5.091  17.908  0.00  0.00    +0.000 A 
ATOM     12  C   UNL     1       6.756   5.083  18.647  0.00  0.00    +0.000 A 
ATOM     13  C   UNL     1       7.625   6.176  18.613  0.00  0.00    +0.000 A 
ATOM     14  C   UNL     1       7.322   7.274  17.822  0.00  0.00    +0.000 A 
ATOM     15 CL   UNL     1       8.371   8.637  17.809  0.00  0.00    +0.000 Cl
ATOM     16  C   UNL     1       6.168   7.281  17.038  0.00  0.00    +0.000 A 
ATOM     17  C   UNL     1       5.295   6.191  17.080  0.00  0.00    +0.000 A 
ENDBRANCH  10  11
ENDBRANCH   9  10
TORSDOF 2
ENDMDL
MODEL 2
REMARK VINA RESULT:      -7.2      0.427      1.246
REMARK  Name = 
REMARK  2 active torsions:
REMARK  status: ('A' for Active; 'I' for Inactive)
REMARK    1  A    between atoms: C_9  and  C_10
REMARK    2  A    between atoms: C_10  and  C_11
REMARK                            x       y       z     vdW  Elec       q    Type
REMARK                         _______ _______ _______ _____ _____    ______ ____
ROOT
ATOM      1  O   UNL     1       2.138   5.757  18.912  0.00  0.00    +0.000 OA
ATOM      2  C   UNL     1       2.237   4.602  19.326  0.00  0.00    +0.000 C 
ATOM      3  C   UNL     1       1.037   3.800  19.799  0.00  0.00    +0.000 C 
ATOM      4  C   UNL     1       0.972   2.565  18.901  0.00  0.00    +0.000 C 
ATOM      5  C   UNL     1       2.287   1.778  19.010  0.00  0.00    +0.000 C 
ATOM      6  N   UNL     1       3.255   2.446  19.906  0.00  0.00    +0.000 NA
ATOM      7  C   UNL     1       2.648   2.542  21.256  0.00  0.00    +0.000 C 
ATOM      8  C   UNL     1       1.354   3.371  21.237  0.00  0.00    +0.000 C 
ATOM      9  C   UNL     1       3.569   3.838  19.420  0.00  0.00    +0.000 C 
ENDROOT
BRANCH   9  10
ATOM     10  C   UNL     1       4.334   3.927  18.077  0.00  0.00    +0.000 C 
BRANCH  10  11
ATOM     11  C   UNL     1       5.300   5.090  17.982  0.00  0.00    +0.000 A 
ATOM     12  C   UNL     1       5.032   6.186  17.150  0.00  0.00    +0.000 A 
ATOM     13  C   UNL     1       5.954   7.228  17.020  0.00  0.00    +0.000 A 
ATOM     14  C   UNL     1       7.139   7.194  17.740  0.00  0.00    +0.000 A 
ATOM     15 CL   UNL     1       8.292   8.456  17.551  0.00  0.00    +0.000 Cl
ATOM     16  C   UNL     1       7.403   6.139  18.613  0.00  0.00    +0.000 A 
ATOM     17  C   UNL     1       6.484   5.093  18.735  0.00  0.00    +0.000 A 
ENDBRANCH  10  11
ENDBRANCH   9  10
TORSDOF 2
ENDMDL
MODEL 3
REMARK VINA RESULT:      -7.1      2.013      2.470
REMARK  Name = 
REMARK  2 active torsions:
REMARK  status: ('A' for Active; 'I' for Inactive)
REMARK    1  A    between atoms: C_9  and  C_10
REMARK    2  A    between atoms: C_10  and  C_11
REMARK                            x       y       z     vdW  Elec       q    Type
REMARK                         _______ _______ _______ _____ _____    ______ ____
ROOT
ATOM      1  O   UNL     1       1.559   5.957  20.726  0.00  0.00    +0.000 OA
ATOM      2  C   UNL     1       1.930   4.827  20.410  0.00  0.00    +0.000 C 
ATOM      3  C   UNL     1       1.275   3.571  20.960  0.00  0.00    +0.000 C 
ATOM      4  C   UNL     1       0.742   2.807  19.748  0.00  0.00    +0.000 C 
ATOM      5  C   UNL     1       1.898   2.495  18.785  0.00  0.00    +0.000 C 
ATOM      6  N   UNL     1       3.180   3.052  19.267  0.00  0.00    +0.000 NA
ATOM      7  C   UNL     1       3.485   2.441  20.585  0.00  0.00    +0.000 C 
ATOM      8  C   UNL     1       2.398   2.763  21.622  0.00  0.00    +0.000 C 
ATOM      9  C   UNL     1       3.089   4.546  19.440  0.00  0.00    +0.000 C 
ENDROOT
BRANCH   9  10
ATOM     10  C   UNL     1       2.908   5.366  18.138  0.00  0.00    +0.000 C 
BRANCH  10  11
ATOM     11  C   UNL     1       4.078   5.284  17.179  0.00  0.00    +0.000 A 
ATOM     12  C   UNL     1       4.969   6.357  17.033  0.00  0.00    +0.000 A 
ATOM     13  C   UNL     1       6.011   6.302  16.104  0.00  0.00    +0.000 A 
ATOM     14  C   UNL     1       6.186   5.162  15.332  0.00  0.00    +0.000 A 
ATOM     15 CL   UNL     1       7.444   5.106  14.161  0.00  0.00    +0.000 Cl
ATOM     16  C   UNL     1       5.344   4.062  15.498  0.00  0.00    +0.000 A 
ATOM     17  C   UNL     1       4.297   4.124  16.421  0.00  0.00    +0.000 A 
ENDBRANCH  10  11
ENDBRANCH   9  10
TORSDOF 2
ENDMDL
MODEL 4
REMARK VINA RESULT:      -7.1      3.476      4.210
REMARK  Name = 
REMARK  2 active torsions:
REMARK  status: ('A' for Active; 'I' for Inactive)
REMARK    1  A    between atoms: C_9  and  C_10
REMARK    2  A    between atoms: C_10  and  C_11
REMARK                            x       y       z     vdW  Elec       q    Type
REMARK                         _______ _______ _______ _____ _____    ______ ____
ROOT
ATOM      1  O   UNL     1       0.963   4.314  17.130  0.00  0.00    +0.000 OA
ATOM      2  C   UNL     1       1.753   3.910  17.983  0.00  0.00    +0.000 C 
ATOM      3  C   UNL     1       2.166   2.452  18.088  0.00  0.00    +0.000 C 
ATOM      4  C   UNL     1       3.683   2.427  17.901  0.00  0.00    +0.000 C 
ATOM      5  C   UNL     1       4.349   3.306  18.970  0.00  0.00    +0.000 C 
ATOM      6  N   UNL     1       3.351   3.960  19.844  0.00  0.00    +0.000 NA
ATOM      7  C   UNL     1       2.566   2.901  20.525  0.00  0.00    +0.000 C 
ATOM      8  C   UNL     1       1.819   2.014  19.516  0.00  0.00    +0.000 C 
ATOM      9  C   UNL     1       2.407   4.816  19.040  0.00  0.00    +0.000 C 
ENDROOT
BRANCH   9  10
ATOM     10  C   UNL     1       3.035   6.060  18.364  0.00  0.00    +0.000 C 
BRANCH  10  11
ATOM     11  C   UNL     1       2.372   7.372  18.729  0.00  0.00    +0.000 A 
ATOM     12  C   UNL     1       1.894   7.604  20.027  0.00  0.00    +0.000 A 
ATOM     13  C   UNL     1       1.229   8.791  20.344  0.00  0.00    +0.000 A 
ATOM     14  C   UNL     1       1.059   9.766  19.372  0.00  0.00    +0.000 A 
ATOM     15 CL   UNL     1       0.206  11.211  19.750  0.00  0.00    +0.000 Cl
ATOM     16  C   UNL     1       1.572   9.579  18.088  0.00  0.00    +0.000 A 
ATOM     17  C   UNL     1       2.228   8.387  17.771  0.00  0.00    +0.000 A 
ENDBRANCH  10  11
ENDBRANCH   9  10
TORSDOF 2
ENDMDL
MODEL 5
REMARK VINA RESULT:      -7.0      2.288      3.064
REMARK  Name = 
REMARK  2 active torsions:
REMARK  status: ('A' for Active; 'I' for Inactive)
REMARK    1  A    between atoms: C_9  and  C_10
REMARK    2  A    between atoms: C_10  and  C_11
REMARK                            x       y       z     vdW  Elec       q    Type
REMARK                         _______ _______ _______ _____ _____    ______ ____
ROOT
ATOM      1  O   UNL     1       4.836   2.529  20.026  0.00  0.00    +0.000 OA
ATOM      2  C   UNL     1       3.734   3.072  19.961  0.00  0.00    +0.000 C 
ATOM      3  C   UNL     1       2.612   2.761  20.937  0.00  0.00    +0.000 C 
ATOM      4  C   UNL     1       2.272   4.083  21.626  0.00  0.00    +0.000 C 
ATOM      5  C   UNL     1       1.864   5.124  20.572  0.00  0.00    +0.000 C 
ATOM      6  N   UNL     1       1.957   4.582  19.199  0.00  0.00    +0.000 NA
ATOM      7  C   UNL     1       1.038   3.421  19.097  0.00  0.00    +0.000 C 
ATOM      8  C   UNL     1       1.422   2.308  20.083  0.00  0.00    +0.000 C 
ATOM      9  C   UNL     1       3.357   4.115  18.895  0.00  0.00    +0.000 C 
ENDROOT
BRANCH   9  10
ATOM     10  C   UNL     1       4.436   5.223  18.824  0.00  0.00    +0.000 C 
BRANCH  10  11
ATOM     11  C   UNL     1       5.234   5.238  17.536  0.00  0.00    +0.000 A 
ATOM     12  C   UNL     1       4.793   5.968  16.422  0.00  0.00    +0.000 A 
ATOM     13  C   UNL     1       5.499   5.931  15.217  0.00  0.00    +0.000 A 
ATOM     14  C   UNL     1       6.664   5.184  15.124  0.00  0.00    +0.000 A 
ATOM     15 CL   UNL     1       7.513   5.106  13.630  0.00  0.00    +0.000 Cl
ATOM     16  C   UNL     1       7.149   4.493  16.234  0.00  0.00    +0.000 A 
ATOM     17  C   UNL     1       6.436   4.524  17.435  0.00  0.00    +0.000 A 
ENDBRANCH  10  11
ENDBRANCH   9  10
TORSDOF 2
ENDMDL
MODEL 6
REMARK VINA RESULT:      -7.0      3.463      4.314
REMARK  Name = 
REMARK  2 active torsions:
REMARK  status: ('A' for Active; 'I' for Inactive)
REMARK    1  A    between atoms: C_9  and  C_10
REMARK    2  A    between atoms: C_10  and  C_11
REMARK                            x       y       z     vdW  Elec       q    Type
REMARK                         _______ _______ _______ _____ _____    ______ ____
ROOT
ATOM      1  O   UNL     1       1.007   4.373  17.178  0.00  0.00    +0.000 OA
ATOM      2  C   UNL     1       1.787   3.934  18.023  0.00  0.00    +0.000 C 
ATOM      3  C   UNL     1       2.187   2.470  18.081  0.00  0.00    +0.000 C 
ATOM      4  C   UNL     1       3.705   2.439  17.905  0.00  0.00    +0.000 C 
ATOM      5  C   UNL     1       4.369   3.275  19.009  0.00  0.00    +0.000 C 
ATOM      6  N   UNL     1       3.370   3.908  19.897  0.00  0.00    +0.000 NA
ATOM      7  C   UNL     1       2.571   2.832  20.535  0.00  0.00    +0.000 C 
ATOM      8  C   UNL     1       1.824   1.987  19.491  0.00  0.00    +0.000 C 
ATOM      9  C   UNL     1       2.439   4.798  19.115  0.00  0.00    +0.000 C 
ENDROOT
BRANCH   9  10
ATOM     10  C   UNL     1       3.083   6.060  18.487  0.00  0.00    +0.000 C 
BRANCH  10  11
ATOM     11  C   UNL     1       2.347   7.350  18.782  0.00  0.00    +0.000 A 
ATOM     12  C   UNL     1       2.122   8.300  17.775  0.00  0.00    +0.000 A 
ATOM     13  C   UNL     1       1.496   9.515  18.063  0.00  0.00    +0.000 A 
ATOM     14  C   UNL     1       1.068   9.780  19.357  0.00  0.00    +0.000 A 
ATOM     15 CL   UNL     1       0.333  11.291  19.723  0.00  0.00    +0.000 Cl
ATOM     16  C   UNL     1       1.235   8.829  20.363  0.00  0.00    +0.000 A 
ATOM     17  C   UNL     1       1.870   7.618  20.074  0.00  0.00    +0.000 A 
ENDBRANCH  10  11
ENDBRANCH   9  10
TORSDOF 2
ENDMDL
MODEL 7
REMARK VINA RESULT:      -7.0      2.010      2.439
REMARK  Name = 
REMARK  2 active torsions:
REMARK  status: ('A' for Active; 'I' for Inactive)
REMARK    1  A    between atoms: C_9  and  C_10
REMARK    2  A    between atoms: C_10  and  C_11
REMARK                            x       y       z     vdW  Elec       q    Type
REMARK                         _______ _______ _______ _____ _____    ______ ____
ROOT
ATOM      1  O   UNL     1       1.526   6.006  20.855  0.00  0.00    +0.000 OA
ATOM      2  C   UNL     1       1.898   4.887  20.503  0.00  0.00    +0.000 C 
ATOM      3  C   UNL     1       1.252   3.613  21.020  0.00  0.00    +0.000 C 
ATOM      4  C   UNL     1       0.712   2.884  19.790  0.00  0.00    +0.000 C 
ATOM      5  C   UNL     1       1.862   2.604  18.810  0.00  0.00    +0.000 C 
ATOM      6  N   UNL     1       3.146   3.152  19.299  0.00  0.00    +0.000 NA
ATOM      7  C   UNL     1       3.462   2.503  20.596  0.00  0.00    +0.000 C 
ATOM      8  C   UNL     1       2.381   2.789  21.650  0.00  0.00    +0.000 C 
ATOM      9  C   UNL     1       3.052   4.640  19.517  0.00  0.00    +0.000 C 
ENDROOT
BRANCH   9  10
ATOM     10  C   UNL     1       2.859   5.497  18.241  0.00  0.00    +0.000 C 
BRANCH  10  11
ATOM     11  C   UNL     1       3.997   5.402  17.246  0.00  0.00    +0.000 A 
ATOM     12  C   UNL     1       4.191   4.244  16.478  0.00  0.00    +0.000 A 
ATOM     13  C   UNL     1       5.276   4.138  15.605  0.00  0.00    +0.000 A 
ATOM     14  C   UNL     1       6.162   5.198  15.475  0.00  0.00    +0.000 A 
ATOM     15 CL   UNL     1       7.521   5.053  14.430  0.00  0.00    +0.000 Cl
ATOM     16  C   UNL     1       5.960   6.378  16.189  0.00  0.00    +0.000 A 
ATOM     17  C   UNL     1       4.878   6.479  17.069  0.00  0.00    +0.000 A 
ENDBRANCH  10  11
ENDBRANCH   9  10
TORSDOF 2
ENDMDL
MODEL 8
REMARK VINA RESULT:      -7.0      2.386      3.086
REMARK  Name = 
REMARK  2 active torsions:
REMARK  status: ('A' for Active; 'I' for Inactive)
REMARK    1  A    between atoms: C_9  and  C_10
REMARK    2  A    between atoms: C_10  and  C_11
REMARK                            x       y       z     vdW  Elec       q    Type
REMARK                         _______ _______ _______ _____ _____    ______ ____
ROOT
ATOM      1  O   UNL     1       4.088   2.127  20.794  0.00  0.00    +0.000 OA
ATOM      2  C   UNL     1       3.327   2.907  20.223  0.00  0.00    +0.000 C 
ATOM      3  C   UNL     1       1.980   3.304  20.804  0.00  0.00    +0.000 C 
ATOM      4  C   UNL     1       2.026   4.822  20.978  0.00  0.00    +0.000 C 
ATOM      5  C   UNL     1       2.303   5.490  19.623  0.00  0.00    +0.000 C 
ATOM      6  N   UNL     1       2.491   4.492  18.547  0.00  0.00    +0.000 NA
ATOM      7  C   UNL     1       1.247   3.692  18.435  0.00  0.00    +0.000 C 
ATOM      8  C   UNL     1       0.937   2.943  19.740  0.00  0.00    +0.000 C 
ATOM      9  C   UNL     1       3.634   3.563  18.866  0.00  0.00    +0.000 C 
ENDROOT
BRANCH   9  10
ATOM     10  C   UNL     1       5.042   4.208  18.889  0.00  0.00    +0.000 C 
BRANCH  10  11
ATOM     11  C   UNL     1       5.632   4.470  17.519  0.00  0.00    +0.000 A 
ATOM     12  C   UNL     1       5.134   3.820  16.381  0.00  0.00    +0.000 A 
ATOM     13  C   UNL     1       5.720   4.019  15.128  0.00  0.00    +0.000 A 
ATOM     14  C   UNL     1       6.793   4.889  15.000  0.00  0.00    +0.000 A 
ATOM     15 CL   UNL     1       7.541   5.105  13.466  0.00  0.00    +0.000 Cl
ATOM     16  C   UNL     1       7.271   5.586  16.109  0.00  0.00    +0.000 A 
ATOM     17  C   UNL     1       6.689   5.378  17.362  0.00  0.00    +0.000 A 
ENDBRANCH  10  11
ENDBRANCH   9  10
TORSDOF 2
ENDMDL
MODEL 9
REMARK VINA RESULT:      -6.9      2.349      2.991
REMARK  Name = 
REMARK  2 active torsions:
REMARK  status: ('A' for Active; 'I' for Inactive)
REMARK    1  A    between atoms: C_9  and  C_10
REMARK    2  A    between atoms: C_10  and  C_11
REMARK                            x       y       z     vdW  Elec       q    Type
REMARK                         _______ _______ _______ _____ _____    ______ ____
ROOT
ATOM      1  O   UNL     1       3.807   2.295  21.175  0.00  0.00    +0.000 OA
ATOM      2  C   UNL     1       3.122   3.026  20.461  0.00  0.00    +0.000 C 
ATOM      3  C   UNL     1       1.763   3.549  20.894  0.00  0.00    +0.000 C 
ATOM      4  C   UNL     1       1.874   5.074  20.882  0.00  0.00    +0.000 C 
ATOM      5  C   UNL     1       2.267   5.552  19.476  0.00  0.00    +0.000 C 
ATOM      6  N   UNL     1       2.473   4.419  18.548  0.00  0.00    +0.000 NA
ATOM      7  C   UNL     1       1.199   3.662  18.451  0.00  0.00    +0.000 C 
ATOM      8  C   UNL     1       0.771   3.099  19.815  0.00  0.00    +0.000 C 
ATOM      9  C   UNL     1       3.545   3.491  19.057  0.00  0.00    +0.000 C 
ENDROOT
BRANCH   9  10
ATOM     10  C   UNL     1       4.979   4.075  19.095  0.00  0.00    +0.000 C 
BRANCH  10  11
ATOM     11  C   UNL     1       5.610   4.276  17.733  0.00  0.00    +0.000 A 
ATOM     12  C   UNL     1       6.824   4.965  17.593  0.00  0.00    +0.000 A 
ATOM     13  C   UNL     1       7.372   5.201  16.330  0.00  0.00    +0.000 A 
ATOM     14  C   UNL     1       6.722   4.729  15.198  0.00  0.00    +0.000 A 
ATOM     15 CL   UNL     1       7.375   5.052  13.640  0.00  0.00    +0.000 Cl
ATOM     16  C   UNL     1       5.541   3.997  15.317  0.00  0.00    +0.000 A 
ATOM     17  C   UNL     1       4.990   3.770  16.581  0.00  0.00    +0.000 A 
ENDBRANCH  10  11
ENDBRANCH   9  10
TORSDOF 2
ENDMDL
