MODEL 1
REMARK VINA RESULT:      -9.0      0.000      0.000
REMARK  Name = 
REMARK  11 active torsions:
REMARK  status: ('A' for Active; 'I' for Inactive)
REMARK    1  A    between atoms: C_1  and  C_2
REMARK    2  A    between atoms: C_2  and  N_3
REMARK    3  A    between atoms: N_6  and  C_7
REMARK    4  A    between atoms: C_7  and  C_8
REMARK    5  A    between atoms: C_8  and  C_9
REMARK    6  A    between atoms: C_9  and  O_10
REMARK    7  A    between atoms: O_10  and  C_11
REMARK    8  A    between atoms: C_14  and  N_15
REMARK    9  A    between atoms: N_15  and  C_16
REMARK   10  A    between atoms: C_17  and  C_18
REMARK   11  A    between atoms: N_20  and  N_21
REMARK                            x       y       z     vdW  Elec       q    Type
REMARK                         _______ _______ _______ _____ _____    ______ ____
ROOT
ATOM      1  N   UNL     1       3.239   6.706  18.397  0.00  0.00    +0.000 N 
ATOM      2  H   UNL     1       2.901   6.401  17.471  0.00  0.00    +0.000 HD
ENDROOT
BRANCH   1   3
ATOM      3  C   UNL     1       3.648   5.413  19.068  0.00  0.00    +0.000 A 
ATOM      4  C   UNL     1       4.589   4.797  18.240  0.00  0.00    +0.000 A 
ATOM      5  C   UNL     1       4.049   4.051  17.207  0.00  0.00    +0.000 A 
ATOM      6  N   UNL     1       2.726   3.726  17.165  0.00  0.00    +0.000 NA
ATOM      7  C   UNL     1       2.082   3.787  18.343  0.00  0.00    +0.000 A 
ATOM      8  C   UNL     1       1.027   2.923  18.595  0.00  0.00    +0.000 A 
ATOM      9  C   UNL     1       0.746   2.506  19.904  0.00  0.00    +0.000 A 
ATOM     10  C   UNL     1       1.538   2.981  20.939  0.00  0.00    +0.000 A 
ATOM     11  F   UNL     1       1.452   2.415  22.150  0.00  0.00    +0.000 F 
ATOM     12  C   UNL     1       2.462   3.996  20.712  0.00  0.00    +0.000 A 
ATOM     13  C   UNL     1       2.644   4.505  19.408  0.00  0.00    +0.000 A 
BRANCH   4  14
ATOM     14  C   UNL     1       6.007   4.681  18.632  0.00  0.00    +0.000 C 
ATOM     15  O   UNL     1       6.401   5.183  19.681  0.00  0.00    +0.000 OA
ATOM     16  N   UNL     1       6.842   4.073  17.702  0.00  0.00    +0.000 N 
ATOM     17  H   UNL     1       6.459   3.539  16.922  0.00  0.00    +0.000 HD
BRANCH  16  18
ATOM     18  N   UNL     1       8.242   4.160  17.849  0.00  0.00    +0.000 NA
ATOM     19  H   UNL     1       8.457   5.120  18.152  0.00  0.00    +0.000 HD
ATOM     20  H   UNL     1       8.666   4.086  16.920  0.00  0.00    +0.000 HD
ENDBRANCH  16  18
ENDBRANCH   4  14
ENDBRANCH   1   3
BRANCH   1  24
ATOM     21  C   UNL     1       0.632   9.858  19.632  0.00  0.00    +0.000 A 
ATOM     22  C   UNL     1       1.000   9.738  18.284  0.00  0.00    +0.000 A 
ATOM     23  C   UNL     1       1.836   8.693  17.828  0.00  0.00    +0.000 A 
ATOM     24  C   UNL     1       2.342   7.761  18.720  0.00  0.00    +0.000 A 
ATOM     25  C   UNL     1       1.865   7.813  20.051  0.00  0.00    +0.000 A 
ATOM     26  C   UNL     1       1.046   8.859  20.509  0.00  0.00    +0.000 A 
BRANCH  21  27
ATOM     27  O   UNL     1      -0.072  10.904  20.192  0.00  0.00    +0.000 OA
BRANCH  27  28
ATOM     28  C   UNL     1       0.575  11.613  21.261  0.00  0.00    +0.000 C 
BRANCH  28  29
ATOM     29  C   UNL     1      -0.103  12.960  21.552  0.00  0.00    +0.000 C 
BRANCH  29  30
ATOM     30  C   UNL     1      -1.128  12.854  22.707  0.00  0.00    +0.000 C 
BRANCH  30  34
ATOM     31  N   UNL     1      -4.938  12.591  22.626  0.00  0.00    +0.000 NA
ATOM     32  C   UNL     1      -4.038  12.648  21.455  0.00  0.00    +0.000 C 
ATOM     33  C   UNL     1      -3.031  13.822  21.475  0.00  0.00    +0.000 C 
ATOM     34  N   UNL     1      -2.182  13.885  22.685  0.00  0.00    +0.000 NA
ATOM     35  C   UNL     1      -3.062  13.794  23.879  0.00  0.00    +0.000 C 
ATOM     36  C   UNL     1      -4.107  12.648  23.851  0.00  0.00    +0.000 C 
BRANCH  31  38
ATOM     37  C   UNL     1      -6.736  13.758  23.951  0.00  0.00    +0.000 C 
ATOM     38  C   UNL     1      -5.958  13.655  22.642  0.00  0.00    +0.000 C 
ENDBRANCH  31  38
ENDBRANCH  30  34
ENDBRANCH  29  30
ENDBRANCH  28  29
ENDBRANCH  27  28
ENDBRANCH  21  27
ENDBRANCH   1  24
TORSDOF 10
ENDMDL
MODEL 2
REMARK VINA RESULT:      -9.0      0.724      1.427
REMARK  Name = 
REMARK  11 active torsions:
REMARK  status: ('A' for Active; 'I' for Inactive)
REMARK    1  A    between atoms: C_1  and  C_2
REMARK    2  A    between atoms: C_2  and  N_3
REMARK    3  A    between atoms: N_6  and  C_7
REMARK    4  A    between atoms: C_7  and  C_8
REMARK    5  A    between atoms: C_8  and  C_9
REMARK    6  A    between atoms: C_9  and  O_10
REMARK    7  A    between atoms: O_10  and  C_11
REMARK    8  A    between atoms: C_14  and  N_15
REMARK    9  A    between atoms: N_15  and  C_16
REMARK   10  A    between atoms: C_17  and  C_18
REMARK   11  A    between atoms: N_20  and  N_21
REMARK                            x       y       z     vdW  Elec       q    Type
REMARK                         _______ _______ _______ _____ _____    ______ ____
ROOT
ATOM      1  N   UNL     1       3.212   6.755  18.580  0.00  0.00    +0.000 N 
ATOM      2  H   UNL     1       2.878   6.509  17.635  0.00  0.00    +0.000 HD
ENDROOT
BRANCH   1   3
ATOM      3  C   UNL     1       3.637   5.424  19.162  0.00  0.00    +0.000 A 
ATOM      4  C   UNL     1       4.568   4.867  18.283  0.00  0.00    +0.000 A 
ATOM      5  C   UNL     1       4.016   4.185  17.213  0.00  0.00    +0.000 A 
ATOM      6  N   UNL     1       2.693   3.856  17.170  0.00  0.00    +0.000 NA
ATOM      7  C   UNL     1       2.068   3.839  18.359  0.00  0.00    +0.000 A 
ATOM      8  C   UNL     1       1.020   2.955  18.571  0.00  0.00    +0.000 A 
ATOM      9  C   UNL     1       0.760   2.454  19.855  0.00  0.00    +0.000 A 
ATOM     10  C   UNL     1       1.566   2.867  20.907  0.00  0.00    +0.000 A 
ATOM     11  F   UNL     1       1.500   2.226  22.080  0.00  0.00    +0.000 F 
ATOM     12  C   UNL     1       2.482   3.900  20.730  0.00  0.00    +0.000 A 
ATOM     13  C   UNL     1       2.642   4.492  19.459  0.00  0.00    +0.000 A 
BRANCH   4  14
ATOM     14  C   UNL     1       5.992   4.734  18.646  0.00  0.00    +0.000 C 
ATOM     15  O   UNL     1       6.417   5.247  19.677  0.00  0.00    +0.000 OA
ATOM     16  N   UNL     1       6.797   4.098  17.708  0.00  0.00    +0.000 N 
ATOM     17  H   UNL     1       6.388   3.558  16.945  0.00  0.00    +0.000 HD
BRANCH  16  18
ATOM     18  N   UNL     1       8.200   4.165  17.823  0.00  0.00    +0.000 NA
ATOM     19  H   UNL     1       8.502   3.341  18.363  0.00  0.00    +0.000 HD
ATOM     20  H   UNL     1       8.434   4.961  18.423  0.00  0.00    +0.000 HD
ENDBRANCH  16  18
ENDBRANCH   4  14
ENDBRANCH   1   3
BRANCH   1  24
ATOM     21  C   UNL     1       0.389   9.829  19.500  0.00  0.00    +0.000 A 
ATOM     22  C   UNL     1       0.861   8.982  20.512  0.00  0.00    +0.000 A 
ATOM     23  C   UNL     1       1.818   7.972  20.257  0.00  0.00    +0.000 A 
ATOM     24  C   UNL     1       2.301   7.774  18.974  0.00  0.00    +0.000 A 
ATOM     25  C   UNL     1       1.918   8.710  17.986  0.00  0.00    +0.000 A 
ATOM     26  C   UNL     1       0.957   9.705  18.234  0.00  0.00    +0.000 A 
BRANCH  21  27
ATOM     27  O   UNL     1      -0.626  10.754  19.621  0.00  0.00    +0.000 OA
BRANCH  27  28
ATOM     28  C   UNL     1      -0.508  11.699  20.697  0.00  0.00    +0.000 C 
BRANCH  28  29
ATOM     29  C   UNL     1      -1.327  12.972  20.438  0.00  0.00    +0.000 C 
BRANCH  29  30
ATOM     30  C   UNL     1      -2.056  13.461  21.713  0.00  0.00    +0.000 C 
BRANCH  30  34
ATOM     31  N   UNL     1      -5.431  13.970  23.430  0.00  0.00    +0.000 NA
ATOM     32  C   UNL     1      -4.111  13.911  24.092  0.00  0.00    +0.000 C 
ATOM     33  C   UNL     1      -3.259  12.676  23.717  0.00  0.00    +0.000 C 
ATOM     34  N   UNL     1      -3.030  12.501  22.266  0.00  0.00    +0.000 NA
ATOM     35  C   UNL     1      -4.341  12.592  21.572  0.00  0.00    +0.000 C 
ATOM     36  C   UNL     1      -5.226  13.802  21.972  0.00  0.00    +0.000 C 
BRANCH  31  38
ATOM     37  C   UNL     1      -7.856  13.356  23.734  0.00  0.00    +0.000 C 
ATOM     38  C   UNL     1      -6.392  12.973  23.936  0.00  0.00    +0.000 C 
ENDBRANCH  31  38
ENDBRANCH  30  34
ENDBRANCH  29  30
ENDBRANCH  28  29
ENDBRANCH  27  28
ENDBRANCH  21  27
ENDBRANCH   1  24
TORSDOF 10
ENDMDL
MODEL 3
REMARK VINA RESULT:      -8.9      2.986      4.254
REMARK  Name = 
REMARK  11 active torsions:
REMARK  status: ('A' for Active; 'I' for Inactive)
REMARK    1  A    between atoms: C_1  and  C_2
REMARK    2  A    between atoms: C_2  and  N_3
REMARK    3  A    between atoms: N_6  and  C_7
REMARK    4  A    between atoms: C_7  and  C_8
REMARK    5  A    between atoms: C_8  and  C_9
REMARK    6  A    between atoms: C_9  and  O_10
REMARK    7  A    between atoms: O_10  and  C_11
REMARK    8  A    between atoms: C_14  and  N_15
REMARK    9  A    between atoms: N_15  and  C_16
REMARK   10  A    between atoms: C_17  and  C_18
REMARK   11  A    between atoms: N_20  and  N_21
REMARK                            x       y       z     vdW  Elec       q    Type
REMARK                         _______ _______ _______ _____ _____    ______ ____
ROOT
ATOM      1  N   UNL     1       3.233   6.801  18.647  0.00  0.00    +0.000 N 
ATOM      2  H   UNL     1       2.929   6.571  17.688  0.00  0.00    +0.000 HD
ENDROOT
BRANCH   1   3
ATOM      3  C   UNL     1       3.648   5.461  19.217  0.00  0.00    +0.000 A 
ATOM      4  C   UNL     1       4.564   4.899  18.325  0.00  0.00    +0.000 A 
ATOM      5  C   UNL     1       3.994   4.230  17.256  0.00  0.00    +0.000 A 
ATOM      6  N   UNL     1       2.668   3.917  17.223  0.00  0.00    +0.000 NA
ATOM      7  C   UNL     1       2.053   3.899  18.418  0.00  0.00    +0.000 A 
ATOM      8  C   UNL     1       0.998   3.026  18.634  0.00  0.00    +0.000 A 
ATOM      9  C   UNL     1       0.744   2.520  19.918  0.00  0.00    +0.000 A 
ATOM     10  C   UNL     1       1.564   2.916  20.964  0.00  0.00    +0.000 A 
ATOM     11  F   UNL     1       1.503   2.267  22.134  0.00  0.00    +0.000 F 
ATOM     12  C   UNL     1       2.491   3.939  20.786  0.00  0.00    +0.000 A 
ATOM     13  C   UNL     1       2.645   4.538  19.517  0.00  0.00    +0.000 A 
BRANCH   4  14
ATOM     14  C   UNL     1       5.990   4.747  18.673  0.00  0.00    +0.000 C 
ATOM     15  O   UNL     1       6.426   5.230  19.714  0.00  0.00    +0.000 OA
ATOM     16  N   UNL     1       6.783   4.130  17.713  0.00  0.00    +0.000 N 
ATOM     17  H   UNL     1       6.365   3.613  16.940  0.00  0.00    +0.000 HD
BRANCH  16  18
ATOM     18  N   UNL     1       8.188   4.184  17.819  0.00  0.00    +0.000 NA
ATOM     19  H   UNL     1       8.544   3.230  17.662  0.00  0.00    +0.000 HD
ATOM     20  H   UNL     1       8.428   4.387  18.794  0.00  0.00    +0.000 HD
ENDBRANCH  16  18
ENDBRANCH   4  14
ENDBRANCH   1   3
BRANCH   1  24
ATOM     21  C   UNL     1       0.363   9.837  19.543  0.00  0.00    +0.000 A 
ATOM     22  C   UNL     1       0.831   8.991  20.558  0.00  0.00    +0.000 A 
ATOM     23  C   UNL     1       1.802   7.994  20.311  0.00  0.00    +0.000 A 
ATOM     24  C   UNL     1       2.305   7.807  19.033  0.00  0.00    +0.000 A 
ATOM     25  C   UNL     1       1.925   8.743  18.045  0.00  0.00    +0.000 A 
ATOM     26  C   UNL     1       0.949   9.726  18.284  0.00  0.00    +0.000 A 
BRANCH  21  27
ATOM     27  O   UNL     1      -0.665  10.750  19.655  0.00  0.00    +0.000 OA
BRANCH  27  28
ATOM     28  C   UNL     1      -0.880  11.615  18.529  0.00  0.00    +0.000 C 
BRANCH  28  29
ATOM     29  C   UNL     1      -0.836  13.099  18.926  0.00  0.00    +0.000 C 
BRANCH  29  30
ATOM     30  C   UNL     1       0.501  13.767  18.522  0.00  0.00    +0.000 C 
BRANCH  30  34
ATOM     31  N   UNL     1       3.435  15.351  20.387  0.00  0.00    +0.000 NA
ATOM     32  C   UNL     1       3.355  15.096  18.933  0.00  0.00    +0.000 C 
ATOM     33  C   UNL     1       2.963  13.648  18.556  0.00  0.00    +0.000 C 
ATOM     34  N   UNL     1       1.695  13.176  19.154  0.00  0.00    +0.000 NA
ATOM     35  C   UNL     1       1.734  13.454  20.614  0.00  0.00    +0.000 C 
ATOM     36  C   UNL     1       2.170  14.891  21.008  0.00  0.00    +0.000 C 
BRANCH  31  38
ATOM     37  C   UNL     1       4.524  14.695  22.563  0.00  0.00    +0.000 C 
ATOM     38  C   UNL     1       4.594  14.714  21.038  0.00  0.00    +0.000 C 
ENDBRANCH  31  38
ENDBRANCH  30  34
ENDBRANCH  29  30
ENDBRANCH  28  29
ENDBRANCH  27  28
ENDBRANCH  21  27
ENDBRANCH   1  24
TORSDOF 10
ENDMDL
MODEL 4
REMARK VINA RESULT:      -8.9      3.221      5.035
REMARK  Name = 
REMARK  11 active torsions:
REMARK  status: ('A' for Active; 'I' for Inactive)
REMARK    1  A    between atoms: C_1  and  C_2
REMARK    2  A    between atoms: C_2  and  N_3
REMARK    3  A    between atoms: N_6  and  C_7
REMARK    4  A    between atoms: C_7  and  C_8
REMARK    5  A    between atoms: C_8  and  C_9
REMARK    6  A    between atoms: C_9  and  O_10
REMARK    7  A    between atoms: O_10  and  C_11
REMARK    8  A    between atoms: C_14  and  N_15
REMARK    9  A    between atoms: N_15  and  C_16
REMARK   10  A    between atoms: C_17  and  C_18
REMARK   11  A    between atoms: N_20  and  N_21
REMARK                            x       y       z     vdW  Elec       q    Type
REMARK                         _______ _______ _______ _____ _____    ______ ____
ROOT
ATOM      1  N   UNL     1       3.321   6.884  18.465  0.00  0.00    +0.000 N 
ATOM      2  H   UNL     1       3.135   6.627  17.483  0.00  0.00    +0.000 HD
ENDROOT
BRANCH   1   3
ATOM      3  C   UNL     1       3.689   5.566  19.112  0.00  0.00    +0.000 A 
ATOM      4  C   UNL     1       4.606   4.934  18.270  0.00  0.00    +0.000 A 
ATOM      5  C   UNL     1       4.038   4.225  17.226  0.00  0.00    +0.000 A 
ATOM      6  N   UNL     1       2.705   3.946  17.182  0.00  0.00    +0.000 NA
ATOM      7  C   UNL     1       2.067   4.007  18.364  0.00  0.00    +0.000 A 
ATOM      8  C   UNL     1       0.985   3.174  18.603  0.00  0.00    +0.000 A 
ATOM      9  C   UNL     1       0.693   2.743  19.906  0.00  0.00    +0.000 A 
ATOM     10  C   UNL     1       1.503   3.173  20.947  0.00  0.00    +0.000 A 
ATOM     11  F   UNL     1       1.402   2.589  22.148  0.00  0.00    +0.000 F 
ATOM     12  C   UNL     1       2.461   4.161  20.734  0.00  0.00    +0.000 A 
ATOM     13  C   UNL     1       2.655   4.687  19.439  0.00  0.00    +0.000 A 
BRANCH   4  14
ATOM     14  C   UNL     1       6.020   4.764  18.655  0.00  0.00    +0.000 C 
ATOM     15  O   UNL     1       6.439   5.253  19.700  0.00  0.00    +0.000 OA
ATOM     16  N   UNL     1       6.826   4.121  17.722  0.00  0.00    +0.000 N 
ATOM     17  H   UNL     1       6.418   3.601  16.945  0.00  0.00    +0.000 HD
BRANCH  16  18
ATOM     18  N   UNL     1       8.229   4.154  17.862  0.00  0.00    +0.000 NA
ATOM     19  H   UNL     1       8.527   3.218  18.169  0.00  0.00    +0.000 HD
ATOM     20  H   UNL     1       8.457   4.766  18.651  0.00  0.00    +0.000 HD
ENDBRANCH  16  18
ENDBRANCH   4  14
ENDBRANCH   1   3
BRANCH   1  24
ATOM     21  C   UNL     1       0.457   9.890  19.478  0.00  0.00    +0.000 A 
ATOM     22  C   UNL     1       0.837   9.702  18.142  0.00  0.00    +0.000 A 
ATOM     23  C   UNL     1       1.757   8.700  17.759  0.00  0.00    +0.000 A 
ATOM     24  C   UNL     1       2.338   7.881  18.715  0.00  0.00    +0.000 A 
ATOM     25  C   UNL     1       1.857   7.991  20.040  0.00  0.00    +0.000 A 
ATOM     26  C   UNL     1       0.952   8.996  20.424  0.00  0.00    +0.000 A 
BRANCH  21  27
ATOM     27  O   UNL     1      -0.332  10.911  19.964  0.00  0.00    +0.000 OA
BRANCH  27  28
ATOM     28  C   UNL     1       0.058  12.247  19.608  0.00  0.00    +0.000 C 
BRANCH  28  29
ATOM     29  C   UNL     1       1.244  12.745  20.447  0.00  0.00    +0.000 C 
BRANCH  29  30
ATOM     30  C   UNL     1       2.440  13.174  19.562  0.00  0.00    +0.000 C 
BRANCH  30  34
ATOM     31  N   UNL     1       5.462  15.476  19.160  0.00  0.00    +0.000 NA
ATOM     32  C   UNL     1       4.789  15.127  20.428  0.00  0.00    +0.000 C 
ATOM     33  C   UNL     1       3.256  15.336  20.421  0.00  0.00    +0.000 C 
ATOM     34  N   UNL     1       2.542  14.627  19.336  0.00  0.00    +0.000 NA
ATOM     35  C   UNL     1       3.223  14.934  18.050  0.00  0.00    +0.000 C 
ATOM     36  C   UNL     1       4.766  14.772  18.057  0.00  0.00    +0.000 C 
BRANCH  31  38
ATOM     37  C   UNL     1       5.999  17.761  20.079  0.00  0.00    +0.000 C 
ATOM     38  C   UNL     1       5.516  16.926  18.896  0.00  0.00    +0.000 C 
ENDBRANCH  31  38
ENDBRANCH  30  34
ENDBRANCH  29  30
ENDBRANCH  28  29
ENDBRANCH  27  28
ENDBRANCH  21  27
ENDBRANCH   1  24
TORSDOF 10
ENDMDL
MODEL 5
REMARK VINA RESULT:      -8.8      0.852      1.079
REMARK  Name = 
REMARK  11 active torsions:
REMARK  status: ('A' for Active; 'I' for Inactive)
REMARK    1  A    between atoms: C_1  and  C_2
REMARK    2  A    between atoms: C_2  and  N_3
REMARK    3  A    between atoms: N_6  and  C_7
REMARK    4  A    between atoms: C_7  and  C_8
REMARK    5  A    between atoms: C_8  and  C_9
REMARK    6  A    between atoms: C_9  and  O_10
REMARK    7  A    between atoms: O_10  and  C_11
REMARK    8  A    between atoms: C_14  and  N_15
REMARK    9  A    between atoms: N_15  and  C_16
REMARK   10  A    between atoms: C_17  and  C_18
REMARK   11  A    between atoms: N_20  and  N_21
REMARK                            x       y       z     vdW  Elec       q    Type
REMARK                         _______ _______ _______ _____ _____    ______ ____
ROOT
ATOM      1  N   UNL     1       3.278   6.726  18.471  0.00  0.00    +0.000 N 
ATOM      2  H   UNL     1       2.971   6.456  17.523  0.00  0.00    +0.000 HD
ENDROOT
BRANCH   1   3
ATOM      3  C   UNL     1       3.673   5.408  19.103  0.00  0.00    +0.000 A 
ATOM      4  C   UNL     1       4.601   4.803  18.253  0.00  0.00    +0.000 A 
ATOM      5  C   UNL     1       4.045   4.094  17.203  0.00  0.00    +0.000 A 
ATOM      6  N   UNL     1       2.717   3.789  17.158  0.00  0.00    +0.000 NA
ATOM      7  C   UNL     1       2.081   3.825  18.341  0.00  0.00    +0.000 A 
ATOM      8  C   UNL     1       1.015   2.969  18.574  0.00  0.00    +0.000 A 
ATOM      9  C   UNL     1       0.734   2.519  19.873  0.00  0.00    +0.000 A 
ATOM     10  C   UNL     1       1.538   2.954  20.916  0.00  0.00    +0.000 A 
ATOM     11  F   UNL     1       1.450   2.355  22.111  0.00  0.00    +0.000 F 
ATOM     12  C   UNL     1       2.475   3.962  20.713  0.00  0.00    +0.000 A 
ATOM     13  C   UNL     1       2.657   4.505  19.423  0.00  0.00    +0.000 A 
BRANCH   4  14
ATOM     14  C   UNL     1       6.019   4.657  18.634  0.00  0.00    +0.000 C 
ATOM     15  O   UNL     1       6.419   5.100  19.707  0.00  0.00    +0.000 OA
ATOM     16  N   UNL     1       6.847   4.093  17.670  0.00  0.00    +0.000 N 
ATOM     17  H   UNL     1       6.458   3.604  16.864  0.00  0.00    +0.000 HD
BRANCH  16  18
ATOM     18  N   UNL     1       8.248   4.162  17.818  0.00  0.00    +0.000 NA
ATOM     19  H   UNL     1       8.617   3.211  17.679  0.00  0.00    +0.000 HD
ATOM     20  H   UNL     1       8.456   4.375  18.798  0.00  0.00    +0.000 HD
ENDBRANCH  16  18
ENDBRANCH   4  14
ENDBRANCH   1   3
BRANCH   1  24
ATOM     21  C   UNL     1       0.627   9.825  19.745  0.00  0.00    +0.000 A 
ATOM     22  C   UNL     1       0.998   9.728  18.397  0.00  0.00    +0.000 A 
ATOM     23  C   UNL     1       1.848   8.700  17.927  0.00  0.00    +0.000 A 
ATOM     24  C   UNL     1       2.366   7.763  18.807  0.00  0.00    +0.000 A 
ATOM     25  C   UNL     1       1.888   7.791  20.138  0.00  0.00    +0.000 A 
ATOM     26  C   UNL     1       1.054   8.820  20.609  0.00  0.00    +0.000 A 
BRANCH  21  27
ATOM     27  O   UNL     1      -0.091  10.853  20.318  0.00  0.00    +0.000 OA
BRANCH  27  28
ATOM     28  C   UNL     1      -0.301  12.019  19.506  0.00  0.00    +0.000 C 
BRANCH  28  29
ATOM     29  C   UNL     1      -0.101  13.319  20.301  0.00  0.00    +0.000 C 
BRANCH  29  30
ATOM     30  C   UNL     1      -1.287  14.297  20.120  0.00  0.00    +0.000 C 
BRANCH  30  34
ATOM     31  N   UNL     1      -4.085  12.869  22.295  0.00  0.00    +0.000 NA
ATOM     32  C   UNL     1      -4.243  13.823  21.177  0.00  0.00    +0.000 C 
ATOM     33  C   UNL     1      -3.331  15.069  21.262  0.00  0.00    +0.000 C 
ATOM     34  N   UNL     1      -1.887  14.770  21.382  0.00  0.00    +0.000 NA
ATOM     35  C   UNL     1      -1.703  13.783  22.478  0.00  0.00    +0.000 C 
ATOM     36  C   UNL     1      -2.644  12.550  22.430  0.00  0.00    +0.000 C 
BRANCH  31  38
ATOM     37  C   UNL     1      -4.493  12.374  24.732  0.00  0.00    +0.000 C 
ATOM     38  C   UNL     1      -4.629  13.359  23.574  0.00  0.00    +0.000 C 
ENDBRANCH  31  38
ENDBRANCH  30  34
ENDBRANCH  29  30
ENDBRANCH  28  29
ENDBRANCH  27  28
ENDBRANCH  21  27
ENDBRANCH   1  24
TORSDOF 10
ENDMDL
MODEL 6
REMARK VINA RESULT:      -8.8      1.212      1.845
REMARK  Name = 
REMARK  11 active torsions:
REMARK  status: ('A' for Active; 'I' for Inactive)
REMARK    1  A    between atoms: C_1  and  C_2
REMARK    2  A    between atoms: C_2  and  N_3
REMARK    3  A    between atoms: N_6  and  C_7
REMARK    4  A    between atoms: C_7  and  C_8
REMARK    5  A    between atoms: C_8  and  C_9
REMARK    6  A    between atoms: C_9  and  O_10
REMARK    7  A    between atoms: O_10  and  C_11
REMARK    8  A    between atoms: C_14  and  N_15
REMARK    9  A    between atoms: N_15  and  C_16
REMARK   10  A    between atoms: C_17  and  C_18
REMARK   11  A    between atoms: N_20  and  N_21
REMARK                            x       y       z     vdW  Elec       q    Type
REMARK                         _______ _______ _______ _____ _____    ______ ____
ROOT
ATOM      1  N   UNL     1       3.193   6.753  18.542  0.00  0.00    +0.000 N 
ATOM      2  H   UNL     1       2.869   6.479  17.601  0.00  0.00    +0.000 HD
ENDROOT
BRANCH   1   3
ATOM      3  C   UNL     1       3.615   5.440  19.166  0.00  0.00    +0.000 A 
ATOM      4  C   UNL     1       4.538   4.849  18.301  0.00  0.00    +0.000 A 
ATOM      5  C   UNL     1       3.977   4.134  17.258  0.00  0.00    +0.000 A 
ATOM      6  N   UNL     1       2.653   3.810  17.233  0.00  0.00    +0.000 NA
ATOM      7  C   UNL     1       2.034   3.836  18.425  0.00  0.00    +0.000 A 
ATOM      8  C   UNL     1       0.983   2.966  18.673  0.00  0.00    +0.000 A 
ATOM      9  C   UNL     1       0.728   2.509  19.975  0.00  0.00    +0.000 A 
ATOM     10  C   UNL     1       1.541   2.953  21.007  0.00  0.00    +0.000 A 
ATOM     11  F   UNL     1       1.479   2.352  22.202  0.00  0.00    +0.000 F 
ATOM     12  C   UNL     1       2.462   3.975  20.791  0.00  0.00    +0.000 A 
ATOM     13  C   UNL     1       2.617   4.522  19.500  0.00  0.00    +0.000 A 
BRANCH   4  14
ATOM     14  C   UNL     1       5.964   4.721  18.661  0.00  0.00    +0.000 C 
ATOM     15  O   UNL     1       6.387   5.224  19.697  0.00  0.00    +0.000 OA
ATOM     16  N   UNL     1       6.771   4.100  17.714  0.00  0.00    +0.000 N 
ATOM     17  H   UNL     1       6.365   3.566  16.946  0.00  0.00    +0.000 HD
BRANCH  16  18
ATOM     18  N   UNL     1       8.175   4.175  17.828  0.00  0.00    +0.000 NA
ATOM     19  H   UNL     1       8.498   3.276  18.215  0.00  0.00    +0.000 HD
ATOM     20  H   UNL     1       8.400   4.860  18.555  0.00  0.00    +0.000 HD
ENDBRANCH  16  18
ENDBRANCH   4  14
ENDBRANCH   1   3
BRANCH   1  24
ATOM     21  C   UNL     1       0.351   9.840  19.348  0.00  0.00    +0.000 A 
ATOM     22  C   UNL     1       0.843   9.046  20.394  0.00  0.00    +0.000 A 
ATOM     23  C   UNL     1       1.806   8.035  20.176  0.00  0.00    +0.000 A 
ATOM     24  C   UNL     1       2.277   7.780  18.898  0.00  0.00    +0.000 A 
ATOM     25  C   UNL     1       1.873   8.665  17.871  0.00  0.00    +0.000 A 
ATOM     26  C   UNL     1       0.905   9.661  18.083  0.00  0.00    +0.000 A 
BRANCH  21  27
ATOM     27  O   UNL     1      -0.672  10.760  19.438  0.00  0.00    +0.000 OA
BRANCH  27  28
ATOM     28  C   UNL     1      -0.819  11.666  18.333  0.00  0.00    +0.000 C 
BRANCH  28  29
ATOM     29  C   UNL     1      -0.453  13.108  18.718  0.00  0.00    +0.000 C 
BRANCH  29  30
ATOM     30  C   UNL     1      -0.164  13.247  20.233  0.00  0.00    +0.000 C 
BRANCH  30  34
ATOM     31  N   UNL     1      -2.555  13.651  23.184  0.00  0.00    +0.000 NA
ATOM     32  C   UNL     1      -2.934  13.486  21.765  0.00  0.00    +0.000 C 
ATOM     33  C   UNL     1      -2.232  14.465  20.795  0.00  0.00    +0.000 C 
ATOM     34  N   UNL     1      -0.754  14.444  20.860  0.00  0.00    +0.000 NA
ATOM     35  C   UNL     1      -0.347  14.573  22.283  0.00  0.00    +0.000 C 
ATOM     36  C   UNL     1      -1.076  13.627  23.274  0.00  0.00    +0.000 C 
BRANCH  31  38
ATOM     37  C   UNL     1      -2.984  14.910  25.325  0.00  0.00    +0.000 C 
ATOM     38  C   UNL     1      -3.093  14.876  23.803  0.00  0.00    +0.000 C 
ENDBRANCH  31  38
ENDBRANCH  30  34
ENDBRANCH  29  30
ENDBRANCH  28  29
ENDBRANCH  27  28
ENDBRANCH  21  27
ENDBRANCH   1  24
TORSDOF 10
ENDMDL
MODEL 7
REMARK VINA RESULT:      -8.8      3.324      5.080
REMARK  Name = 
REMARK  11 active torsions:
REMARK  status: ('A' for Active; 'I' for Inactive)
REMARK    1  A    between atoms: C_1  and  C_2
REMARK    2  A    between atoms: C_2  and  N_3
REMARK    3  A    between atoms: N_6  and  C_7
REMARK    4  A    between atoms: C_7  and  C_8
REMARK    5  A    between atoms: C_8  and  C_9
REMARK    6  A    between atoms: C_9  and  O_10
REMARK    7  A    between atoms: O_10  and  C_11
REMARK    8  A    between atoms: C_14  and  N_15
REMARK    9  A    between atoms: N_15  and  C_16
REMARK   10  A    between atoms: C_17  and  C_18
REMARK   11  A    between atoms: N_20  and  N_21
REMARK                            x       y       z     vdW  Elec       q    Type
REMARK                         _______ _______ _______ _____ _____    ______ ____
ROOT
ATOM      1  N   UNL     1       3.653   6.724  18.504  0.00  0.00    +0.000 N 
ATOM      2  H   UNL     1       4.290   7.415  18.078  0.00  0.00    +0.000 HD
ENDROOT
BRANCH   1   3
ATOM      3  C   UNL     1       3.704   5.556  17.543  0.00  0.00    +0.000 A 
ATOM      4  C   UNL     1       3.266   4.428  18.241  0.00  0.00    +0.000 A 
ATOM      5  C   UNL     1       4.241   3.804  18.999  0.00  0.00    +0.000 A 
ATOM      6  N   UNL     1       5.564   4.102  18.863  0.00  0.00    +0.000 NA
ATOM      7  C   UNL     1       5.904   4.687  17.702  0.00  0.00    +0.000 A 
ATOM      8  C   UNL     1       7.158   4.457  17.159  0.00  0.00    +0.000 A 
ATOM      9  C   UNL     1       7.350   4.493  15.769  0.00  0.00    +0.000 A 
ATOM     10  C   UNL     1       6.262   4.769  14.954  0.00  0.00    +0.000 A 
ATOM     11  F   UNL     1       6.359   4.568  13.634  0.00  0.00    +0.000 F 
ATOM     12  C   UNL     1       5.057   5.194  15.505  0.00  0.00    +0.000 A 
ATOM     13  C   UNL     1       4.916   5.284  16.907  0.00  0.00    +0.000 A 
BRANCH   4  14
ATOM     14  C   UNL     1       1.979   3.777  17.930  0.00  0.00    +0.000 C 
ATOM     15  O   UNL     1       1.135   4.365  17.259  0.00  0.00    +0.000 OA
ATOM     16  N   UNL     1       1.770   2.538  18.524  0.00  0.00    +0.000 N 
ATOM     17  H   UNL     1       2.543   2.020  18.943  0.00  0.00    +0.000 HD
BRANCH  16  18
ATOM     18  N   UNL     1       0.482   1.964  18.523  0.00  0.00    +0.000 NA
ATOM     19  H   UNL     1       0.523   1.122  19.114  0.00  0.00    +0.000 HD
ATOM     20  H   UNL     1       0.293   1.605  17.582  0.00  0.00    +0.000 HD
ENDBRANCH  16  18
ENDBRANCH   4  14
ENDBRANCH   1   3
BRANCH   1  24
ATOM     21  C   UNL     1       0.619   9.114  20.334  0.00  0.00    +0.000 A 
ATOM     22  C   UNL     1       1.037   9.390  19.024  0.00  0.00    +0.000 A 
ATOM     23  C   UNL     1       2.016   8.606  18.371  0.00  0.00    +0.000 A 
ATOM     24  C   UNL     1       2.615   7.544  19.028  0.00  0.00    +0.000 A 
ATOM     25  C   UNL     1       2.099   7.194  20.297  0.00  0.00    +0.000 A 
ATOM     26  C   UNL     1       1.137   7.980  20.954  0.00  0.00    +0.000 A 
BRANCH  21  27
ATOM     27  O   UNL     1      -0.232   9.887  21.095  0.00  0.00    +0.000 OA
BRANCH  27  28
ATOM     28  C   UNL     1       0.178  11.242  21.339  0.00  0.00    +0.000 C 
BRANCH  28  29
ATOM     29  C   UNL     1      -0.883  12.256  20.886  0.00  0.00    +0.000 C 
BRANCH  29  30
ATOM     30  C   UNL     1      -2.077  11.568  20.179  0.00  0.00    +0.000 C 
BRANCH  30  34
ATOM     31  N   UNL     1      -3.115  10.120  16.799  0.00  0.00    +0.000 NA
ATOM     32  C   UNL     1      -1.743  10.484  17.213  0.00  0.00    +0.000 C 
ATOM     33  C   UNL     1      -1.602  11.914  17.785  0.00  0.00    +0.000 C 
ATOM     34  N   UNL     1      -2.499  12.215  18.923  0.00  0.00    +0.000 NA
ATOM     35  C   UNL     1      -3.882  11.825  18.545  0.00  0.00    +0.000 C 
ATOM     36  C   UNL     1      -4.031  10.408  17.928  0.00  0.00    +0.000 C 
BRANCH  31  38
ATOM     37  C   UNL     1      -3.279  10.048  14.285  0.00  0.00    +0.000 C 
ATOM     38  C   UNL     1      -3.567  10.809  15.577  0.00  0.00    +0.000 C 
ENDBRANCH  31  38
ENDBRANCH  30  34
ENDBRANCH  29  30
ENDBRANCH  28  29
ENDBRANCH  27  28
ENDBRANCH  21  27
ENDBRANCH   1  24
TORSDOF 10
ENDMDL
MODEL 8
REMARK VINA RESULT:      -8.8      0.922      1.354
REMARK  Name = 
REMARK  11 active torsions:
REMARK  status: ('A' for Active; 'I' for Inactive)
REMARK    1  A    between atoms: C_1  and  C_2
REMARK    2  A    between atoms: C_2  and  N_3
REMARK    3  A    between atoms: N_6  and  C_7
REMARK    4  A    between atoms: C_7  and  C_8
REMARK    5  A    between atoms: C_8  and  C_9
REMARK    6  A    between atoms: C_9  and  O_10
REMARK    7  A    between atoms: O_10  and  C_11
REMARK    8  A    between atoms: C_14  and  N_15
REMARK    9  A    between atoms: N_15  and  C_16
REMARK   10  A    between atoms: C_17  and  C_18
REMARK   11  A    between atoms: N_20  and  N_21
REMARK                            x       y       z     vdW  Elec       q    Type
REMARK                         _______ _______ _______ _____ _____    ______ ____
ROOT
ATOM      1  N   UNL     1       3.094   6.702  18.287  0.00  0.00    +0.000 N 
ATOM      2  H   UNL     1       2.549   6.336  17.491  0.00  0.00    +0.000 HD
ENDROOT
BRANCH   1   3
ATOM      3  C   UNL     1       3.542   5.453  19.014  0.00  0.00    +0.000 A 
ATOM      4  C   UNL     1       4.499   4.828  18.212  0.00  0.00    +0.000 A 
ATOM      5  C   UNL     1       3.979   4.021  17.215  0.00  0.00    +0.000 A 
ATOM      6  N   UNL     1       2.665   3.657  17.191  0.00  0.00    +0.000 NA
ATOM      7  C   UNL     1       2.022   3.751  18.367  0.00  0.00    +0.000 A 
ATOM      8  C   UNL     1       0.993   2.870  18.660  0.00  0.00    +0.000 A 
ATOM      9  C   UNL     1       0.726   2.503  19.987  0.00  0.00    +0.000 A 
ATOM     10  C   UNL     1       1.505   3.046  20.998  0.00  0.00    +0.000 A 
ATOM     11  F   UNL     1       1.438   2.533  22.233  0.00  0.00    +0.000 F 
ATOM     12  C   UNL     1       2.400   4.077  20.723  0.00  0.00    +0.000 A 
ATOM     13  C   UNL     1       2.564   4.532  19.397  0.00  0.00    +0.000 A 
BRANCH   4  14
ATOM     14  C   UNL     1       5.920   4.770  18.604  0.00  0.00    +0.000 C 
ATOM     15  O   UNL     1       6.313   5.385  19.591  0.00  0.00    +0.000 OA
ATOM     16  N   UNL     1       6.757   4.077  17.738  0.00  0.00    +0.000 N 
ATOM     17  H   UNL     1       6.376   3.459  17.021  0.00  0.00    +0.000 HD
BRANCH  16  18
ATOM     18  N   UNL     1       8.157   4.195  17.866  0.00  0.00    +0.000 NA
ATOM     19  H   UNL     1       8.443   3.599  18.656  0.00  0.00    +0.000 HD
ATOM     20  H   UNL     1       8.370   5.148  18.176  0.00  0.00    +0.000 HD
ENDBRANCH  16  18
ENDBRANCH   4  14
ENDBRANCH   1   3
BRANCH   1  24
ATOM     21  C   UNL     1       0.971  10.150  19.652  0.00  0.00    +0.000 A 
ATOM     22  C   UNL     1       1.364  10.052  18.310  0.00  0.00    +0.000 A 
ATOM     23  C   UNL     1       2.040   8.916  17.810  0.00  0.00    +0.000 A 
ATOM     24  C   UNL     1       2.362   7.865  18.654  0.00  0.00    +0.000 A 
ATOM     25  C   UNL     1       1.853   7.914  19.972  0.00  0.00    +0.000 A 
ATOM     26  C   UNL     1       1.192   9.048  20.475  0.00  0.00    +0.000 A 
BRANCH  21  27
ATOM     27  O   UNL     1       0.421  11.259  20.260  0.00  0.00    +0.000 OA
BRANCH  27  28
ATOM     28  C   UNL     1      -0.989  11.210  20.529  0.00  0.00    +0.000 C 
BRANCH  28  29
ATOM     29  C   UNL     1      -1.481  12.471  21.256  0.00  0.00    +0.000 C 
BRANCH  29  30
ATOM     30  C   UNL     1      -2.015  12.151  22.674  0.00  0.00    +0.000 C 
BRANCH  30  34
ATOM     31  N   UNL     1      -4.381  14.981  23.667  0.00  0.00    +0.000 NA
ATOM     32  C   UNL     1      -3.749  14.006  24.580  0.00  0.00    +0.000 C 
ATOM     33  C   UNL     1      -3.938  12.526  24.170  0.00  0.00    +0.000 C 
ATOM     34  N   UNL     1      -3.483  12.203  22.800  0.00  0.00    +0.000 NA
ATOM     35  C   UNL     1      -4.078  13.193  21.864  0.00  0.00    +0.000 C 
ATOM     36  C   UNL     1      -3.935  14.679  22.286  0.00  0.00    +0.000 C 
BRANCH  31  38
ATOM     37  C   UNL     1      -6.523  15.933  22.740  0.00  0.00    +0.000 C 
ATOM     38  C   UNL     1      -5.853  14.998  23.744  0.00  0.00    +0.000 C 
ENDBRANCH  31  38
ENDBRANCH  30  34
ENDBRANCH  29  30
ENDBRANCH  28  29
ENDBRANCH  27  28
ENDBRANCH  21  27
ENDBRANCH   1  24
TORSDOF 10
ENDMDL
MODEL 9
REMARK VINA RESULT:      -8.7      1.384      2.165
REMARK  Name = 
REMARK  11 active torsions:
REMARK  status: ('A' for Active; 'I' for Inactive)
REMARK    1  A    between atoms: C_1  and  C_2
REMARK    2  A    between atoms: C_2  and  N_3
REMARK    3  A    between atoms: N_6  and  C_7
REMARK    4  A    between atoms: C_7  and  C_8
REMARK    5  A    between atoms: C_8  and  C_9
REMARK    6  A    between atoms: C_9  and  O_10
REMARK    7  A    between atoms: O_10  and  C_11
REMARK    8  A    between atoms: C_14  and  N_15
REMARK    9  A    between atoms: N_15  and  C_16
REMARK   10  A    between atoms: C_17  and  C_18
REMARK   11  A    between atoms: N_20  and  N_21
REMARK                            x       y       z     vdW  Elec       q    Type
REMARK                         _______ _______ _______ _____ _____    ______ ____
ROOT
ATOM      1  N   UNL     1       3.188   6.661  18.320  0.00  0.00    +0.000 N 
ATOM      2  H   UNL     1       2.725   6.326  17.460  0.00  0.00    +0.000 HD
ENDROOT
BRANCH   1   3
ATOM      3  C   UNL     1       3.591   5.385  19.025  0.00  0.00    +0.000 A 
ATOM      4  C   UNL     1       4.537   4.748  18.220  0.00  0.00    +0.000 A 
ATOM      5  C   UNL     1       4.004   3.977  17.202  0.00  0.00    +0.000 A 
ATOM      6  N   UNL     1       2.681   3.653  17.157  0.00  0.00    +0.000 NA
ATOM      7  C   UNL     1       2.029   3.743  18.329  0.00  0.00    +0.000 A 
ATOM      8  C   UNL     1       0.971   2.886  18.593  0.00  0.00    +0.000 A 
ATOM      9  C   UNL     1       0.679   2.501  19.911  0.00  0.00    +0.000 A 
ATOM     10  C   UNL     1       1.464   3.001  20.940  0.00  0.00    +0.000 A 
ATOM     11  F   UNL     1       1.368   2.465  22.163  0.00  0.00    +0.000 F 
ATOM     12  C   UNL     1       2.391   4.009  20.694  0.00  0.00    +0.000 A 
ATOM     13  C   UNL     1       2.583   4.486  19.380  0.00  0.00    +0.000 A 
BRANCH   4  14
ATOM     14  C   UNL     1       5.952   4.640  18.625  0.00  0.00    +0.000 C 
ATOM     15  O   UNL     1       6.329   5.129  19.686  0.00  0.00    +0.000 OA
ATOM     16  N   UNL     1       6.803   4.056  17.694  0.00  0.00    +0.000 N 
ATOM     17  H   UNL     1       6.434   3.531  16.901  0.00  0.00    +0.000 HD
BRANCH  16  18
ATOM     18  N   UNL     1       8.200   4.155  17.858  0.00  0.00    +0.000 NA
ATOM     19  H   UNL     1       8.615   3.297  17.467  0.00  0.00    +0.000 HD
ATOM     20  H   UNL     1       8.409   4.106  18.859  0.00  0.00    +0.000 HD
ENDBRANCH  16  18
ENDBRANCH   4  14
ENDBRANCH   1   3
BRANCH   1  24
ATOM     21  C   UNL     1       0.772  10.097  19.107  0.00  0.00    +0.000 A 
ATOM     22  C   UNL     1       1.009   9.157  20.120  0.00  0.00    +0.000 A 
ATOM     23  C   UNL     1       1.827   8.023  19.911  0.00  0.00    +0.000 A 
ATOM     24  C   UNL     1       2.403   7.793  18.671  0.00  0.00    +0.000 A 
ATOM     25  C   UNL     1       2.264   8.807  17.696  0.00  0.00    +0.000 A 
ATOM     26  C   UNL     1       1.440   9.928  17.897  0.00  0.00    +0.000 A 
BRANCH  21  27
ATOM     27  O   UNL     1      -0.103  11.161  19.174  0.00  0.00    +0.000 OA
BRANCH  27  28
ATOM     28  C   UNL     1      -1.500  10.852  19.047  0.00  0.00    +0.000 C 
BRANCH  28  29
ATOM     29  C   UNL     1      -2.387  12.082  19.291  0.00  0.00    +0.000 C 
BRANCH  29  30
ATOM     30  C   UNL     1      -1.664  13.158  20.137  0.00  0.00    +0.000 C 
BRANCH  30  34
ATOM     31  N   UNL     1      -1.551  15.364  23.254  0.00  0.00    +0.000 NA
ATOM     32  C   UNL     1      -0.393  14.926  22.447  0.00  0.00    +0.000 C 
ATOM     33  C   UNL     1      -0.326  13.402  22.193  0.00  0.00    +0.000 C 
ATOM     34  N   UNL     1      -1.538  12.828  21.568  0.00  0.00    +0.000 NA
ATOM     35  C   UNL     1      -2.723  13.282  22.341  0.00  0.00    +0.000 C 
ATOM     36  C   UNL     1      -2.779  14.804  22.642  0.00  0.00    +0.000 C 
BRANCH  31  38
ATOM     37  C   UNL     1      -2.757  15.177  25.459  0.00  0.00    +0.000 C 
ATOM     38  C   UNL     1      -1.461  14.985  24.676  0.00  0.00    +0.000 C 
ENDBRANCH  31  38
ENDBRANCH  30  34
ENDBRANCH  29  30
ENDBRANCH  28  29
ENDBRANCH  27  28
ENDBRANCH  21  27
ENDBRANCH   1  24
TORSDOF 10
ENDMDL
