MODEL 1
REMARK VINA RESULT:      -8.3      0.000      0.000
REMARK  Name = 
REMARK  6 active torsions:
REMARK  status: ('A' for Active; 'I' for Inactive)
REMARK    1  A    between atoms: C_2  and  C_3
REMARK    2  A    between atoms: C_8  and  N_9
REMARK    3  A    between atoms: N_9  and  C_10
REMARK    4  A    between atoms: C_13  and  C_14
REMARK    5  A    between atoms: C_19  and  C_20
REMARK    6  A    between atoms: C_21  and  C_22
REMARK                            x       y       z     vdW  Elec       q    Type
REMARK                         _______ _______ _______ _____ _____    ______ ____
ROOT
ATOM      1  C   UNL     1       4.251   4.353  17.829  0.00  0.00    +0.000 A 
ATOM      2  C   UNL     1       4.294   3.010  18.271  0.00  0.00    +0.000 A 
ATOM      3  C   UNL     1       3.549   2.538  19.351  0.00  0.00    +0.000 A 
ATOM      4  C   UNL     1       2.744   3.402  20.086  0.00  0.00    +0.000 A 
ATOM      5  C   UNL     1       2.739   4.753  19.693  0.00  0.00    +0.000 A 
ATOM      6  N   UNL     1       2.092   5.810  20.294  0.00  0.00    +0.000 N 
ATOM      7  C   UNL     1       2.330   6.973  19.624  0.00  0.00    +0.000 A 
ATOM      8  C   UNL     1       1.795   8.268  20.121  0.00  0.00    +0.000 C 
ATOM      9  C   UNL     1       3.096   6.665  18.508  0.00  0.00    +0.000 A 
ATOM     10  C   UNL     1       3.484   7.660  17.469  0.00  0.00    +0.000 C 
ATOM     11  C   UNL     1       3.439   5.254  18.585  0.00  0.00    +0.000 A 
ATOM     12  H   UNL     1       1.536   5.701  21.137  0.00  0.00    +0.000 HD
ENDROOT
BRANCH   4  13
ATOM     13  C   UNL     1       1.920   2.973  21.252  0.00  0.00    +0.000 C 
ATOM     14  N   UNL     1       0.571   2.834  21.085  0.00  0.00    +0.000 N 
ATOM     15  O   UNL     1       2.425   2.760  22.351  0.00  0.00    +0.000 OA
ATOM     16  H   UNL     1       0.066   3.025  20.235  0.00  0.00    +0.000 HD
ATOM     17  H   UNL     1       0.036   2.568  21.902  0.00  0.00    +0.000 HD
ENDBRANCH   4  13
BRANCH   1  18
ATOM     18  N   UNL     1       5.033   4.758  16.738  0.00  0.00    +0.000 N 
ATOM     19  H   UNL     1       4.494   5.265  16.046  0.00  0.00    +0.000 HD
BRANCH  18  25
ATOM     20  C   UNL     1       6.563   4.010  12.498  0.00  0.00    +0.000 C 
ATOM     21  O   UNL     1       7.305   4.696  11.802  0.00  0.00    +0.000 OA
ATOM     22  N   UNL     1       6.412   4.201  13.852  0.00  0.00    +0.000 N 
ATOM     23  C   UNL     1       7.151   5.230  14.559  0.00  0.00    +0.000 C 
ATOM     24  C   UNL     1       7.362   4.637  15.941  0.00  0.00    +0.000 C 
ATOM     25  C   UNL     1       6.064   3.863  16.193  0.00  0.00    +0.000 C 
ATOM     26  C   UNL     1       5.714   3.329  14.793  0.00  0.00    +0.000 C 
BRANCH  20  28
ATOM     27  C   UNL     1       4.566   3.084  11.394  0.00  0.00    +0.000 C 
ATOM     28  C   UNL     1       5.784   2.884  11.913  0.00  0.00    +0.000 C 
ENDBRANCH  20  28
ENDBRANCH  18  25
ENDBRANCH   1  18
TORSDOF 4
ENDMDL
MODEL 2
REMARK VINA RESULT:      -8.1      2.014      7.278
REMARK  Name = 
REMARK  6 active torsions:
REMARK  status: ('A' for Active; 'I' for Inactive)
REMARK    1  A    between atoms: C_2  and  C_3
REMARK    2  A    between atoms: C_8  and  N_9
REMARK    3  A    between atoms: N_9  and  C_10
REMARK    4  A    between atoms: C_13  and  C_14
REMARK    5  A    between atoms: C_19  and  C_20
REMARK    6  A    between atoms: C_21  and  C_22
REMARK                            x       y       z     vdW  Elec       q    Type
REMARK                         _______ _______ _______ _____ _____    ______ ____
ROOT
ATOM      1  C   UNL     1       5.509   3.686  16.408  0.00  0.00    +0.000 A 
ATOM      2  C   UNL     1       5.468   3.199  15.080  0.00  0.00    +0.000 A 
ATOM      3  C   UNL     1       6.242   3.729  14.048  0.00  0.00    +0.000 A 
ATOM      4  C   UNL     1       7.075   4.819  14.279  0.00  0.00    +0.000 A 
ATOM      5  C   UNL     1       7.079   5.351  15.581  0.00  0.00    +0.000 A 
ATOM      6  N   UNL     1       7.753   6.460  16.045  0.00  0.00    +0.000 N 
ATOM      7  C   UNL     1       7.503   6.665  17.368  0.00  0.00    +0.000 A 
ATOM      8  C   UNL     1       8.063   7.844  18.081  0.00  0.00    +0.000 C 
ATOM      9  C   UNL     1       6.701   5.622  17.811  0.00  0.00    +0.000 A 
ATOM     10  C   UNL     1       6.290   5.438  19.231  0.00  0.00    +0.000 C 
ATOM     11  C   UNL     1       6.349   4.815  16.653  0.00  0.00    +0.000 A 
ATOM     12  H   UNL     1       8.333   7.037  15.442  0.00  0.00    +0.000 HD
ENDROOT
BRANCH   4  13
ATOM     13  C   UNL     1       7.932   5.442  13.229  0.00  0.00    +0.000 C 
ATOM     14  N   UNL     1       7.596   5.260  11.917  0.00  0.00    +0.000 N 
ATOM     15  O   UNL     1       8.930   6.096  13.519  0.00  0.00    +0.000 OA
ATOM     16  H   UNL     1       6.821   4.708  11.584  0.00  0.00    +0.000 HD
ATOM     17  H   UNL     1       8.211   5.673  11.228  0.00  0.00    +0.000 HD
ENDBRANCH   4  13
BRANCH   1  18
ATOM     18  N   UNL     1       4.697   3.106  17.392  0.00  0.00    +0.000 N 
ATOM     19  H   UNL     1       5.039   2.199  17.685  0.00  0.00    +0.000 HD
BRANCH  18  25
ATOM     20  C   UNL     1       1.512   4.264  20.457  0.00  0.00    +0.000 C 
ATOM     21  O   UNL     1       1.217   5.371  20.897  0.00  0.00    +0.000 OA
ATOM     22  N   UNL     1       2.285   4.084  19.333  0.00  0.00    +0.000 N 
ATOM     23  C   UNL     1       2.791   5.212  18.572  0.00  0.00    +0.000 C 
ATOM     24  C   UNL     1       2.829   4.694  17.145  0.00  0.00    +0.000 C 
ATOM     25  C   UNL     1       3.234   3.227  17.313  0.00  0.00    +0.000 C 
ATOM     26  C   UNL     1       2.530   2.832  18.623  0.00  0.00    +0.000 C 
BRANCH  20  28
ATOM     27  C   UNL     1       1.697   2.448  22.108  0.00  0.00    +0.000 C 
ATOM     28  C   UNL     1       1.017   3.021  21.108  0.00  0.00    +0.000 C 
ENDBRANCH  20  28
ENDBRANCH  18  25
ENDBRANCH   1  18
TORSDOF 4
ENDMDL
MODEL 3
REMARK VINA RESULT:      -7.8      2.753      4.885
REMARK  Name = 
REMARK  6 active torsions:
REMARK  status: ('A' for Active; 'I' for Inactive)
REMARK    1  A    between atoms: C_2  and  C_3
REMARK    2  A    between atoms: C_8  and  N_9
REMARK    3  A    between atoms: N_9  and  C_10
REMARK    4  A    between atoms: C_13  and  C_14
REMARK    5  A    between atoms: C_19  and  C_20
REMARK    6  A    between atoms: C_21  and  C_22
REMARK                            x       y       z     vdW  Elec       q    Type
REMARK                         _______ _______ _______ _____ _____    ______ ____
ROOT
ATOM      1  C   UNL     1       2.918   6.751  17.962  0.00  0.00    +0.000 A 
ATOM      2  C   UNL     1       2.453   8.087  17.965  0.00  0.00    +0.000 A 
ATOM      3  C   UNL     1       1.831   8.676  19.065  0.00  0.00    +0.000 A 
ATOM      4  C   UNL     1       1.594   7.939  20.221  0.00  0.00    +0.000 A 
ATOM      5  C   UNL     1       1.998   6.592  20.208  0.00  0.00    +0.000 A 
ATOM      6  N   UNL     1       1.813   5.640  21.187  0.00  0.00    +0.000 N 
ATOM      7  C   UNL     1       2.339   4.442  20.809  0.00  0.00    +0.000 A 
ATOM      8  C   UNL     1       2.204   3.237  21.670  0.00  0.00    +0.000 C 
ATOM      9  C   UNL     1       2.953   4.623  19.576  0.00  0.00    +0.000 A 
ATOM     10  C   UNL     1       3.728   3.563  18.873  0.00  0.00    +0.000 C 
ATOM     11  C   UNL     1       2.668   5.980  19.138  0.00  0.00    +0.000 A 
ATOM     12  H   UNL     1       1.325   5.839  22.056  0.00  0.00    +0.000 HD
ENDROOT
BRANCH   4  13
ATOM     13  C   UNL     1       0.934   8.497  21.436  0.00  0.00    +0.000 C 
ATOM     14  N   UNL     1       1.718   9.006  22.432  0.00  0.00    +0.000 N 
ATOM     15  O   UNL     1      -0.288   8.493  21.562  0.00  0.00    +0.000 OA
ATOM     16  H   UNL     1       2.726   9.015  22.435  0.00  0.00    +0.000 HD
ATOM     17  H   UNL     1       1.242   9.352  23.255  0.00  0.00    +0.000 HD
ENDBRANCH   4  13
BRANCH   1  18
ATOM     18  N   UNL     1       3.531   6.225  16.816  0.00  0.00    +0.000 N 
ATOM     19  H   UNL     1       3.377   5.228  16.722  0.00  0.00    +0.000 HD
BRANCH  18  25
ATOM     20  C   UNL     1       7.760   5.003  18.037  0.00  0.00    +0.000 C 
ATOM     21  O   UNL     1       8.410   4.011  17.720  0.00  0.00    +0.000 OA
ATOM     22  N   UNL     1       6.619   5.396  17.378  0.00  0.00    +0.000 N 
ATOM     23  C   UNL     1       6.115   4.663  16.232  0.00  0.00    +0.000 C 
ATOM     24  C   UNL     1       5.469   5.737  15.373  0.00  0.00    +0.000 C 
ATOM     25  C   UNL     1       4.862   6.693  16.405  0.00  0.00    +0.000 C 
ATOM     26  C   UNL     1       5.890   6.651  17.548  0.00  0.00    +0.000 C 
BRANCH  20  28
ATOM     27  C   UNL     1       8.240   5.415  20.417  0.00  0.00    +0.000 C 
ATOM     28  C   UNL     1       8.192   5.878  19.162  0.00  0.00    +0.000 C 
ENDBRANCH  20  28
ENDBRANCH  18  25
ENDBRANCH   1  18
TORSDOF 4
ENDMDL
MODEL 4
REMARK VINA RESULT:      -7.6      2.862      4.881
REMARK  Name = 
REMARK  6 active torsions:
REMARK  status: ('A' for Active; 'I' for Inactive)
REMARK    1  A    between atoms: C_2  and  C_3
REMARK    2  A    between atoms: C_8  and  N_9
REMARK    3  A    between atoms: N_9  and  C_10
REMARK    4  A    between atoms: C_13  and  C_14
REMARK    5  A    between atoms: C_19  and  C_20
REMARK    6  A    between atoms: C_21  and  C_22
REMARK                            x       y       z     vdW  Elec       q    Type
REMARK                         _______ _______ _______ _____ _____    ______ ____
ROOT
ATOM      1  C   UNL     1       3.546   5.599  17.605  0.00  0.00    +0.000 A 
ATOM      2  C   UNL     1       3.284   6.946  17.258  0.00  0.00    +0.000 A 
ATOM      3  C   UNL     1       2.678   7.854  18.126  0.00  0.00    +0.000 A 
ATOM      4  C   UNL     1       2.251   7.448  19.386  0.00  0.00    +0.000 A 
ATOM      5  C   UNL     1       2.451   6.096  19.720  0.00  0.00    +0.000 A 
ATOM      6  N   UNL     1       2.058   5.436  20.864  0.00  0.00    +0.000 N 
ATOM      7  C   UNL     1       2.427   4.125  20.822  0.00  0.00    +0.000 A 
ATOM      8  C   UNL     1       2.054   3.188  21.914  0.00  0.00    +0.000 C 
ATOM      9  C   UNL     1       3.148   3.930  19.652  0.00  0.00    +0.000 A 
ATOM     10  C   UNL     1       3.808   2.643  19.291  0.00  0.00    +0.000 C 
ATOM     11  C   UNL     1       3.099   5.168  18.891  0.00  0.00    +0.000 A 
ATOM     12  H   UNL     1       1.543   5.896  21.609  0.00  0.00    +0.000 HD
ENDROOT
BRANCH   4  13
ATOM     13  C   UNL     1       1.594   8.358  20.369  0.00  0.00    +0.000 C 
ATOM     14  N   UNL     1       0.921   9.450  19.901  0.00  0.00    +0.000 N 
ATOM     15  O   UNL     1       1.660   8.152  21.578  0.00  0.00    +0.000 OA
ATOM     16  H   UNL     1       0.847   9.720  18.933  0.00  0.00    +0.000 HD
ATOM     17  H   UNL     1       0.508  10.062  20.593  0.00  0.00    +0.000 HD
ENDBRANCH   4  13
BRANCH   1  18
ATOM     18  N   UNL     1       4.156   4.743  16.678  0.00  0.00    +0.000 N 
ATOM     19  H   UNL     1       4.052   3.767  16.931  0.00  0.00    +0.000 HD
BRANCH  18  25
ATOM     20  C   UNL     1       7.731   7.135  18.216  0.00  0.00    +0.000 C 
ATOM     21  O   UNL     1       8.601   6.812  19.019  0.00  0.00    +0.000 OA
ATOM     22  N   UNL     1       6.882   6.230  17.622  0.00  0.00    +0.000 N 
ATOM     23  C   UNL     1       6.979   4.808  17.895  0.00  0.00    +0.000 C 
ATOM     24  C   UNL     1       6.549   4.161  16.589  0.00  0.00    +0.000 C 
ATOM     25  C   UNL     1       5.450   5.098  16.079  0.00  0.00    +0.000 C 
ATOM     26  C   UNL     1       5.954   6.482  16.522  0.00  0.00    +0.000 C 
BRANCH  20  28
ATOM     27  C   UNL     1       8.459   9.486  18.132  0.00  0.00    +0.000 C 
ATOM     28  C   UNL     1       7.554   8.555  17.804  0.00  0.00    +0.000 C 
ENDBRANCH  20  28
ENDBRANCH  18  25
ENDBRANCH   1  18
TORSDOF 4
ENDMDL
MODEL 5
REMARK VINA RESULT:      -7.5      3.511      7.540
REMARK  Name = 
REMARK  6 active torsions:
REMARK  status: ('A' for Active; 'I' for Inactive)
REMARK    1  A    between atoms: C_2  and  C_3
REMARK    2  A    between atoms: C_8  and  N_9
REMARK    3  A    between atoms: N_9  and  C_10
REMARK    4  A    between atoms: C_13  and  C_14
REMARK    5  A    between atoms: C_19  and  C_20
REMARK    6  A    between atoms: C_21  and  C_22
REMARK                            x       y       z     vdW  Elec       q    Type
REMARK                         _______ _______ _______ _____ _____    ______ ____
ROOT
ATOM      1  C   UNL     1       3.194   7.068  18.085  0.00  0.00    +0.000 A 
ATOM      2  C   UNL     1       4.091   7.459  17.064  0.00  0.00    +0.000 A 
ATOM      3  C   UNL     1       5.066   6.611  16.538  0.00  0.00    +0.000 A 
ATOM      4  C   UNL     1       5.230   5.326  17.042  0.00  0.00    +0.000 A 
ATOM      5  C   UNL     1       4.383   4.945  18.100  0.00  0.00    +0.000 A 
ATOM      6  N   UNL     1       4.393   3.768  18.814  0.00  0.00    +0.000 N 
ATOM      7  C   UNL     1       3.421   3.769  19.770  0.00  0.00    +0.000 A 
ATOM      8  C   UNL     1       3.275   2.632  20.718  0.00  0.00    +0.000 C 
ATOM      9  C   UNL     1       2.702   4.949  19.636  0.00  0.00    +0.000 A 
ATOM     10  C   UNL     1       1.492   5.277  20.441  0.00  0.00    +0.000 C 
ATOM     11  C   UNL     1       3.362   5.755  18.622  0.00  0.00    +0.000 A 
ATOM     12  H   UNL     1       5.066   3.027  18.637  0.00  0.00    +0.000 HD
ENDROOT
BRANCH   4  13
ATOM     13  C   UNL     1       6.249   4.362  16.534  0.00  0.00    +0.000 C 
ATOM     14  N   UNL     1       7.499   4.381  17.083  0.00  0.00    +0.000 N 
ATOM     15  O   UNL     1       5.989   3.571  15.631  0.00  0.00    +0.000 OA
ATOM     16  H   UNL     1       7.813   5.018  17.798  0.00  0.00    +0.000 HD
ATOM     17  H   UNL     1       8.175   3.733  16.700  0.00  0.00    +0.000 HD
ENDBRANCH   4  13
BRANCH   1  18
ATOM     18  N   UNL     1       2.242   7.977  18.568  0.00  0.00    +0.000 N 
ATOM     19  H   UNL     1       1.523   7.523  19.119  0.00  0.00    +0.000 HD
BRANCH  18  25
ATOM     20  C   UNL     1      -1.475  10.629  18.701  0.00  0.00    +0.000 C 
ATOM     21  O   UNL     1      -1.740  11.569  19.445  0.00  0.00    +0.000 OA
ATOM     22  N   UNL     1      -0.210  10.104  18.574  0.00  0.00    +0.000 N 
ATOM     23  C   UNL     1       0.915  10.651  19.308  0.00  0.00    +0.000 C 
ATOM     24  C   UNL     1       2.094  10.430  18.376  0.00  0.00    +0.000 C 
ATOM     25  C   UNL     1       1.775   9.083  17.720  0.00  0.00    +0.000 C 
ATOM     26  C   UNL     1       0.244   9.128  17.586  0.00  0.00    +0.000 C 
BRANCH  20  28
ATOM     27  C   UNL     1      -3.085  10.682  16.838  0.00  0.00    +0.000 C 
ATOM     28  C   UNL     1      -2.524  10.005  17.848  0.00  0.00    +0.000 C 
ENDBRANCH  20  28
ENDBRANCH  18  25
ENDBRANCH   1  18
TORSDOF 4
ENDMDL
MODEL 6
REMARK VINA RESULT:      -7.4      3.141      7.246
REMARK  Name = 
REMARK  6 active torsions:
REMARK  status: ('A' for Active; 'I' for Inactive)
REMARK    1  A    between atoms: C_2  and  C_3
REMARK    2  A    between atoms: C_8  and  N_9
REMARK    3  A    between atoms: N_9  and  C_10
REMARK    4  A    between atoms: C_13  and  C_14
REMARK    5  A    between atoms: C_19  and  C_20
REMARK    6  A    between atoms: C_21  and  C_22
REMARK                            x       y       z     vdW  Elec       q    Type
REMARK                         _______ _______ _______ _____ _____    ______ ____
ROOT
ATOM      1  C   UNL     1       3.373   6.115  18.811  0.00  0.00    +0.000 A 
ATOM      2  C   UNL     1       2.897   5.399  19.935  0.00  0.00    +0.000 A 
ATOM      3  C   UNL     1       3.171   4.050  20.153  0.00  0.00    +0.000 A 
ATOM      4  C   UNL     1       3.906   3.320  19.225  0.00  0.00    +0.000 A 
ATOM      5  C   UNL     1       4.334   4.004  18.073  0.00  0.00    +0.000 A 
ATOM      6  N   UNL     1       5.006   3.497  16.983  0.00  0.00    +0.000 N 
ATOM      7  C   UNL     1       5.244   4.470  16.060  0.00  0.00    +0.000 A 
ATOM      8  C   UNL     1       5.897   4.153  14.761  0.00  0.00    +0.000 C 
ATOM      9  C   UNL     1       4.782   5.669  16.585  0.00  0.00    +0.000 A 
ATOM     10  C   UNL     1       4.949   6.988  15.911  0.00  0.00    +0.000 C 
ATOM     11  C   UNL     1       4.117   5.372  17.843  0.00  0.00    +0.000 A 
ATOM     12  H   UNL     1       5.255   2.515  16.905  0.00  0.00    +0.000 HD
ENDROOT
BRANCH   4  13
ATOM     13  C   UNL     1       4.239   1.874  19.387  0.00  0.00    +0.000 C 
ATOM     14  N   UNL     1       5.151   1.515  20.337  0.00  0.00    +0.000 N 
ATOM     15  O   UNL     1       3.724   1.014  18.678  0.00  0.00    +0.000 OA
ATOM     16  H   UNL     1       5.653   2.152  20.935  0.00  0.00    +0.000 HD
ATOM     17  H   UNL     1       5.376   0.531  20.404  0.00  0.00    +0.000 HD
ENDBRANCH   4  13
BRANCH   1  18
ATOM     18  N   UNL     1       3.052   7.470  18.655  0.00  0.00    +0.000 N 
ATOM     19  H   UNL     1       3.679   8.075  19.174  0.00  0.00    +0.000 HD
BRANCH  18  25
ATOM     20  C   UNL     1       0.896  11.112  20.375  0.00  0.00    +0.000 C 
ATOM     21  O   UNL     1       0.881  12.273  19.977  0.00  0.00    +0.000 OA
ATOM     22  N   UNL     1       1.344  10.060  19.611  0.00  0.00    +0.000 N 
ATOM     23  C   UNL     1       1.817  10.258  18.253  0.00  0.00    +0.000 C 
ATOM     24  C   UNL     1       1.437   8.967  17.549  0.00  0.00    +0.000 C 
ATOM     25  C   UNL     1       1.648   7.902  18.629  0.00  0.00    +0.000 C 
ATOM     26  C   UNL     1       1.224   8.636  19.913  0.00  0.00    +0.000 C 
BRANCH  20  28
ATOM     27  C   UNL     1      -0.851  11.088  22.110  0.00  0.00    +0.000 C 
ATOM     28  C   UNL     1       0.389  10.758  21.730  0.00  0.00    +0.000 C 
ENDBRANCH  20  28
ENDBRANCH  18  25
ENDBRANCH   1  18
TORSDOF 4
ENDMDL
MODEL 7
REMARK VINA RESULT:      -7.4      1.820      3.500
REMARK  Name = 
REMARK  6 active torsions:
REMARK  status: ('A' for Active; 'I' for Inactive)
REMARK    1  A    between atoms: C_2  and  C_3
REMARK    2  A    between atoms: C_8  and  N_9
REMARK    3  A    between atoms: N_9  and  C_10
REMARK    4  A    between atoms: C_13  and  C_14
REMARK    5  A    between atoms: C_19  and  C_20
REMARK    6  A    between atoms: C_21  and  C_22
REMARK                            x       y       z     vdW  Elec       q    Type
REMARK                         _______ _______ _______ _____ _____    ______ ____
ROOT
ATOM      1  C   UNL     1       2.957   5.854  17.994  0.00  0.00    +0.000 A 
ATOM      2  C   UNL     1       2.765   7.254  17.933  0.00  0.00    +0.000 A 
ATOM      3  C   UNL     1       2.224   7.998  18.981  0.00  0.00    +0.000 A 
ATOM      4  C   UNL     1       1.796   7.368  20.145  0.00  0.00    +0.000 A 
ATOM      5  C   UNL     1       1.925   5.968  20.195  0.00  0.00    +0.000 A 
ATOM      6  N   UNL     1       1.514   5.112  21.193  0.00  0.00    +0.000 N 
ATOM      7  C   UNL     1       1.809   3.819  20.878  0.00  0.00    +0.000 A 
ATOM      8  C   UNL     1       1.400   2.700  21.769  0.00  0.00    +0.000 C 
ATOM      9  C   UNL     1       2.499   3.827  19.674  0.00  0.00    +0.000 A 
ATOM     10  C   UNL     1       3.079   2.608  19.043  0.00  0.00    +0.000 C 
ATOM     11  C   UNL     1       2.507   5.195  19.179  0.00  0.00    +0.000 A 
ATOM     12  H   UNL     1       1.038   5.438  22.029  0.00  0.00    +0.000 HD
ENDROOT
BRANCH   4  13
ATOM     13  C   UNL     1       1.207   8.093  21.308  0.00  0.00    +0.000 C 
ATOM     14  N   UNL     1       2.041   8.789  22.137  0.00  0.00    +0.000 N 
ATOM     15  O   UNL     1       0.001   8.063  21.539  0.00  0.00    +0.000 OA
ATOM     16  H   UNL     1       3.043   8.838  22.049  0.00  0.00    +0.000 HD
ATOM     17  H   UNL     1       1.614   9.249  22.931  0.00  0.00    +0.000 HD
ENDBRANCH   4  13
BRANCH   1  18
ATOM     18  N   UNL     1       3.502   5.172  16.897  0.00  0.00    +0.000 N 
ATOM     19  H   UNL     1       2.801   4.655  16.380  0.00  0.00    +0.000 HD
BRANCH  18  25
ATOM     20  C   UNL     1       7.055   4.815  14.047  0.00  0.00    +0.000 C 
ATOM     21  O   UNL     1       7.908   5.647  13.753  0.00  0.00    +0.000 OA
ATOM     22  N   UNL     1       6.215   4.950  15.128  0.00  0.00    +0.000 N 
ATOM     23  C   UNL     1       6.301   6.093  16.017  0.00  0.00    +0.000 C 
ATOM     24  C   UNL     1       5.895   5.530  17.368  0.00  0.00    +0.000 C 
ATOM     25  C   UNL     1       4.809   4.510  17.011  0.00  0.00    +0.000 C 
ATOM     26  C   UNL     1       5.310   3.941  15.673  0.00  0.00    +0.000 C 
BRANCH  20  28
ATOM     27  C   UNL     1       6.050   3.516  12.213  0.00  0.00    +0.000 C 
ATOM     28  C   UNL     1       6.892   3.567  13.252  0.00  0.00    +0.000 C 
ENDBRANCH  20  28
ENDBRANCH  18  25
ENDBRANCH   1  18
TORSDOF 4
ENDMDL
MODEL 8
REMARK VINA RESULT:      -7.2      3.027      7.904
REMARK  Name = 
REMARK  6 active torsions:
REMARK  status: ('A' for Active; 'I' for Inactive)
REMARK    1  A    between atoms: C_2  and  C_3
REMARK    2  A    between atoms: C_8  and  N_9
REMARK    3  A    between atoms: N_9  and  C_10
REMARK    4  A    between atoms: C_13  and  C_14
REMARK    5  A    between atoms: C_19  and  C_20
REMARK    6  A    between atoms: C_21  and  C_22
REMARK                            x       y       z     vdW  Elec       q    Type
REMARK                         _______ _______ _______ _____ _____    ______ ____
ROOT
ATOM      1  C   UNL     1       2.946   6.476  18.104  0.00  0.00    +0.000 A 
ATOM      2  C   UNL     1       3.836   7.304  17.378  0.00  0.00    +0.000 A 
ATOM      3  C   UNL     1       4.873   6.804  16.591  0.00  0.00    +0.000 A 
ATOM      4  C   UNL     1       5.110   5.436  16.522  0.00  0.00    +0.000 A 
ATOM      5  C   UNL     1       4.270   4.606  17.287  0.00  0.00    +0.000 A 
ATOM      6  N   UNL     1       4.342   3.239  17.446  0.00  0.00    +0.000 N 
ATOM      7  C   UNL     1       3.355   2.792  18.271  0.00  0.00    +0.000 A 
ATOM      8  C   UNL     1       3.265   1.357  18.653  0.00  0.00    +0.000 C 
ATOM      9  C   UNL     1       2.564   3.881  18.609  0.00  0.00    +0.000 A 
ATOM     10  C   UNL     1       1.320   3.781  19.423  0.00  0.00    +0.000 C 
ATOM     11  C   UNL     1       3.189   5.070  18.052  0.00  0.00    +0.000 A 
ATOM     12  H   UNL     1       5.065   2.676  17.007  0.00  0.00    +0.000 HD
ENDROOT
BRANCH   4  13
ATOM     13  C   UNL     1       6.199   4.825  15.704  0.00  0.00    +0.000 C 
ATOM     14  N   UNL     1       7.366   5.517  15.548  0.00  0.00    +0.000 N 
ATOM     15  O   UNL     1       6.059   3.732  15.163  0.00  0.00    +0.000 OA
ATOM     16  H   UNL     1       7.555   6.434  15.920  0.00  0.00    +0.000 HD
ATOM     17  H   UNL     1       8.075   5.089  14.967  0.00  0.00    +0.000 HD
ENDBRANCH   4  13
BRANCH   1  18
ATOM     18  N   UNL     1       1.929   7.051  18.879  0.00  0.00    +0.000 N 
ATOM     19  H   UNL     1       1.024   6.991  18.429  0.00  0.00    +0.000 HD
BRANCH  18  25
ATOM     20  C   UNL     1      -0.581  10.808  19.557  0.00  0.00    +0.000 C 
ATOM     21  O   UNL     1      -1.543  10.982  20.299  0.00  0.00    +0.000 OA
ATOM     22  N   UNL     1       0.261   9.724  19.659  0.00  0.00    +0.000 N 
ATOM     23  C   UNL     1       0.073   8.713  20.682  0.00  0.00    +0.000 C 
ATOM     24  C   UNL     1       1.485   8.245  20.989  0.00  0.00    +0.000 C 
ATOM     25  C   UNL     1       2.176   8.294  19.622  0.00  0.00    +0.000 C 
ATOM     26  C   UNL     1       1.529   9.524  18.963  0.00  0.00    +0.000 C 
BRANCH  20  28
ATOM     27  C   UNL     1      -0.567  13.086  18.625  0.00  0.00    +0.000 C 
ATOM     28  C   UNL     1      -0.239  11.795  18.496  0.00  0.00    +0.000 C 
ENDBRANCH  20  28
ENDBRANCH  18  25
ENDBRANCH   1  18
TORSDOF 4
ENDMDL
MODEL 9
REMARK VINA RESULT:      -7.2      2.822      7.937
REMARK  Name = 
REMARK  6 active torsions:
REMARK  status: ('A' for Active; 'I' for Inactive)
REMARK    1  A    between atoms: C_2  and  C_3
REMARK    2  A    between atoms: C_8  and  N_9
REMARK    3  A    between atoms: N_9  and  C_10
REMARK    4  A    between atoms: C_13  and  C_14
REMARK    5  A    between atoms: C_19  and  C_20
REMARK    6  A    between atoms: C_21  and  C_22
REMARK                            x       y       z     vdW  Elec       q    Type
REMARK                         _______ _______ _______ _____ _____    ______ ____
ROOT
ATOM      1  C   UNL     1       3.943   6.535  18.061  0.00  0.00    +0.000 A 
ATOM      2  C   UNL     1       4.748   7.278  17.166  0.00  0.00    +0.000 A 
ATOM      3  C   UNL     1       5.483   6.694  16.135  0.00  0.00    +0.000 A 
ATOM      4  C   UNL     1       5.492   5.313  15.969  0.00  0.00    +0.000 A 
ATOM      5  C   UNL     1       4.743   4.558  16.890  0.00  0.00    +0.000 A 
ATOM      6  N   UNL     1       4.648   3.187  16.986  0.00  0.00    +0.000 N 
ATOM      7  C   UNL     1       3.828   2.825  18.013  0.00  0.00    +0.000 A 
ATOM      8  C   UNL     1       3.620   1.395  18.362  0.00  0.00    +0.000 C 
ATOM      9  C   UNL     1       3.310   3.989  18.565  0.00  0.00    +0.000 A 
ATOM     10  C   UNL     1       2.293   4.007  19.655  0.00  0.00    +0.000 C 
ATOM     11  C   UNL     1       3.955   5.114  17.909  0.00  0.00    +0.000 A 
ATOM     12  H   UNL     1       5.154   2.560  16.367  0.00  0.00    +0.000 HD
ENDROOT
BRANCH   4  13
ATOM     13  C   UNL     1       6.253   4.615  14.893  0.00  0.00    +0.000 C 
ATOM     14  N   UNL     1       7.471   5.111  14.525  0.00  0.00    +0.000 N 
ATOM     15  O   UNL     1       5.802   3.622  14.329  0.00  0.00    +0.000 OA
ATOM     16  H   UNL     1       7.902   5.941  14.903  0.00  0.00    +0.000 HD
ATOM     17  H   UNL     1       7.951   4.631  13.775  0.00  0.00    +0.000 HD
ENDBRANCH   4  13
BRANCH   1  18
ATOM     18  N   UNL     1       3.235   7.191  19.078  0.00  0.00    +0.000 N 
ATOM     19  H   UNL     1       3.499   6.866  20.000  0.00  0.00    +0.000 HD
BRANCH  18  25
ATOM     20  C   UNL     1       0.578  10.557  20.653  0.00  0.00    +0.000 C 
ATOM     21  O   UNL     1       0.500  11.727  20.290  0.00  0.00    +0.000 OA
ATOM     22  N   UNL     1       1.202   9.580  19.913  0.00  0.00    +0.000 N 
ATOM     23  C   UNL     1       1.798   9.872  18.622  0.00  0.00    +0.000 C 
ATOM     24  C   UNL     1       1.617   8.581  17.843  0.00  0.00    +0.000 C 
ATOM     25  C   UNL     1       1.807   7.497  18.908  0.00  0.00    +0.000 C 
ATOM     26  C   UNL     1       1.181   8.140  20.158  0.00  0.00    +0.000 C 
BRANCH  20  28
ATOM     27  C   UNL     1      -0.809  10.929  22.653  0.00  0.00    +0.000 C 
ATOM     28  C   UNL     1      -0.037  10.107  21.932  0.00  0.00    +0.000 C 
ENDBRANCH  20  28
ENDBRANCH  18  25
ENDBRANCH   1  18
TORSDOF 4
ENDMDL
