MODEL 1
REMARK VINA RESULT:      -6.6      0.000      0.000
REMARK  Name = 
REMARK  4 active torsions:
REMARK  status: ('A' for Active; 'I' for Inactive)
REMARK    1  A    between atoms: C_1  and  C_2
REMARK    2  A    between atoms: C_2  and  C_3
REMARK    3  A    between atoms: C_3  and  N_4
REMARK    4  A    between atoms: N_4  and  C_5
REMARK                            x       y       z     vdW  Elec       q    Type
REMARK                         _______ _______ _______ _____ _____    ______ ____
ROOT
ATOM      1  C   UNL     1       2.666   4.200  18.163  0.00  0.00    +0.000 C 
ATOM      2  C   UNL     1       3.972   3.771  18.847  0.00  0.00    +0.000 C 
ATOM      3  N   UNL     1       4.692   4.522  17.860  0.00  0.00    +0.000 N 
ATOM      4  C   UNL     1       5.836   5.298  18.108  0.00  0.00    +0.000 A 
ATOM      5  C   UNL     1       6.146   6.399  17.338  0.00  0.00    +0.000 A 
ATOM      6  C   UNL     1       7.297   7.078  17.667  0.00  0.00    +0.000 A 
ATOM      7  N   UNL     1       8.101   6.719  18.683  0.00  0.00    +0.000 NA
ATOM      8  C   UNL     1       7.727   5.646  19.380  0.00  0.00    +0.000 A 
ATOM      9  N   UNL     1       8.555   5.213  20.401  0.00  0.00    +0.000 N 
ATOM     10  N   UNL     1       6.633   4.922  19.130  0.00  0.00    +0.000 NA
ATOM     11  C   UNL     1       3.556   4.701  17.006  0.00  0.00    +0.000 C 
ATOM     12  H   UNL     1       9.495   5.533  20.210  0.00  0.00    +0.000 HD
ATOM     13  H   UNL     1       8.426   4.215  20.521  0.00  0.00    +0.000 HD
ENDROOT
BRANCH   1  14
ATOM     14  N   UNL     1       1.852   2.999  17.834  0.00  0.00    +0.000 NA
ATOM     15  H   UNL     1       0.947   3.208  17.406  0.00  0.00    +0.000 HD
BRANCH  14  16
ATOM     16  C   UNL     1       1.637   2.202  19.045  0.00  0.00    +0.000 C 
BRANCH  16  18
ATOM     17  C   UNL     1       1.477   2.833  21.554  0.00  0.00    +0.000 C 
ATOM     18  C   UNL     1       0.875   2.925  20.166  0.00  0.00    +0.000 C 
ENDBRANCH  16  18
ENDBRANCH  14  16
ENDBRANCH   1  14
TORSDOF 3
ENDMDL
MODEL 2
REMARK VINA RESULT:      -6.5      1.992      2.489
REMARK  Name = 
REMARK  4 active torsions:
REMARK  status: ('A' for Active; 'I' for Inactive)
REMARK    1  A    between atoms: C_1  and  C_2
REMARK    2  A    between atoms: C_2  and  C_3
REMARK    3  A    between atoms: C_3  and  N_4
REMARK    4  A    between atoms: N_4  and  C_5
REMARK                            x       y       z     vdW  Elec       q    Type
REMARK                         _______ _______ _______ _____ _____    ______ ____
ROOT
ATOM      1  C   UNL     1       2.050   4.411  17.857  0.00  0.00    +0.000 C 
ATOM      2  C   UNL     1       3.293   5.201  18.296  0.00  0.00    +0.000 C 
ATOM      3  N   UNL     1       4.095   4.295  17.526  0.00  0.00    +0.000 N 
ATOM      4  C   UNL     1       5.208   4.658  16.751  0.00  0.00    +0.000 A 
ATOM      5  C   UNL     1       5.582   3.938  15.636  0.00  0.00    +0.000 A 
ATOM      6  C   UNL     1       6.696   4.381  14.961  0.00  0.00    +0.000 A 
ATOM      7  N   UNL     1       7.407   5.458  15.336  0.00  0.00    +0.000 NA
ATOM      8  C   UNL     1       6.977   6.100  16.422  0.00  0.00    +0.000 A 
ATOM      9  N   UNL     1       7.712   7.183  16.871  0.00  0.00    +0.000 N 
ATOM     10  N   UNL     1       5.912   5.741  17.144  0.00  0.00    +0.000 NA
ATOM     11  C   UNL     1       3.039   3.347  17.334  0.00  0.00    +0.000 C 
ATOM     12  H   UNL     1       8.664   7.083  16.545  0.00  0.00    +0.000 HD
ATOM     13  H   UNL     1       7.577   7.274  17.871  0.00  0.00    +0.000 HD
ENDROOT
BRANCH   1  14
ATOM     14  N   UNL     1       1.274   3.989  19.055  0.00  0.00    +0.000 NA
ATOM     15  H   UNL     1       0.261   4.068  18.948  0.00  0.00    +0.000 HD
BRANCH  14  16
ATOM     16  C   UNL     1       1.696   4.775  20.218  0.00  0.00    +0.000 C 
BRANCH  16  18
ATOM     17  C   UNL     1       1.502   2.548  21.530  0.00  0.00    +0.000 C 
ATOM     18  C   UNL     1       2.085   3.944  21.451  0.00  0.00    +0.000 C 
ENDBRANCH  16  18
ENDBRANCH  14  16
ENDBRANCH   1  14
TORSDOF 3
ENDMDL
MODEL 3
REMARK VINA RESULT:      -6.4      1.942      2.724
REMARK  Name = 
REMARK  4 active torsions:
REMARK  status: ('A' for Active; 'I' for Inactive)
REMARK    1  A    between atoms: C_1  and  C_2
REMARK    2  A    between atoms: C_2  and  C_3
REMARK    3  A    between atoms: C_3  and  N_4
REMARK    4  A    between atoms: N_4  and  C_5
REMARK                            x       y       z     vdW  Elec       q    Type
REMARK                         _______ _______ _______ _____ _____    ______ ____
ROOT
ATOM      1  C   UNL     1       3.178   1.813  18.281  0.00  0.00    +0.000 C 
ATOM      2  C   UNL     1       2.968   3.123  17.506  0.00  0.00    +0.000 C 
ATOM      3  N   UNL     1       4.078   3.681  18.223  0.00  0.00    +0.000 N 
ATOM      4  C   UNL     1       5.054   4.527  17.673  0.00  0.00    +0.000 A 
ATOM      5  C   UNL     1       6.337   4.576  18.174  0.00  0.00    +0.000 A 
ATOM      6  C   UNL     1       7.206   5.451  17.562  0.00  0.00    +0.000 A 
ATOM      7  N   UNL     1       6.858   6.231  16.524  0.00  0.00    +0.000 NA
ATOM      8  C   UNL     1       5.600   6.120  16.099  0.00  0.00    +0.000 A 
ATOM      9  N   UNL     1       5.189   6.945  15.066  0.00  0.00    +0.000 N 
ATOM     10  N   UNL     1       4.686   5.306  16.634  0.00  0.00    +0.000 NA
ATOM     11  C   UNL     1       4.134   2.621  19.184  0.00  0.00    +0.000 C 
ATOM     12  H   UNL     1       5.777   7.767  15.056  0.00  0.00    +0.000 HD
ATOM     13  H   UNL     1       4.190   7.098  15.152  0.00  0.00    +0.000 HD
ENDROOT
BRANCH   1  14
ATOM     14  N   UNL     1       1.907   1.410  18.941  0.00  0.00    +0.000 NA
ATOM     15  H   UNL     1       1.447   0.604  18.512  0.00  0.00    +0.000 HD
BRANCH  14  16
ATOM     16  C   UNL     1       0.976   2.543  18.951  0.00  0.00    +0.000 C 
BRANCH  16  18
ATOM     17  C   UNL     1       1.288   4.563  20.544  0.00  0.00    +0.000 C 
ATOM     18  C   UNL     1       0.736   3.168  20.334  0.00  0.00    +0.000 C 
ENDBRANCH  16  18
ENDBRANCH  14  16
ENDBRANCH   1  14
TORSDOF 3
ENDMDL
MODEL 4
REMARK VINA RESULT:      -6.3      2.023      2.355
REMARK  Name = 
REMARK  4 active torsions:
REMARK  status: ('A' for Active; 'I' for Inactive)
REMARK    1  A    between atoms: C_1  and  C_2
REMARK    2  A    between atoms: C_2  and  C_3
REMARK    3  A    between atoms: C_3  and  N_4
REMARK    4  A    between atoms: N_4  and  C_5
REMARK                            x       y       z     vdW  Elec       q    Type
REMARK                         _______ _______ _______ _____ _____    ______ ____
ROOT
ATOM      1  C   UNL     1       2.674   6.221  19.566  0.00  0.00    +0.000 C 
ATOM      2  C   UNL     1       3.927   5.344  19.713  0.00  0.00    +0.000 C 
ATOM      3  N   UNL     1       3.899   5.133  18.294  0.00  0.00    +0.000 N 
ATOM      4  C   UNL     1       5.028   5.089  17.460  0.00  0.00    +0.000 A 
ATOM      5  C   UNL     1       4.962   5.449  16.131  0.00  0.00    +0.000 A 
ATOM      6  C   UNL     1       6.130   5.356  15.408  0.00  0.00    +0.000 A 
ATOM      7  N   UNL     1       7.294   4.943  15.937  0.00  0.00    +0.000 NA
ATOM      8  C   UNL     1       7.273   4.616  17.229  0.00  0.00    +0.000 A 
ATOM      9  N   UNL     1       8.440   4.136  17.797  0.00  0.00    +0.000 N 
ATOM     10  N   UNL     1       6.188   4.668  18.007  0.00  0.00    +0.000 NA
ATOM     11  C   UNL     1       2.582   5.669  18.127  0.00  0.00    +0.000 C 
ATOM     12  H   UNL     1       9.014   3.739  17.066  0.00  0.00    +0.000 HD
ATOM     13  H   UNL     1       8.196   3.527  18.570  0.00  0.00    +0.000 HD
ENDROOT
BRANCH   1  14
ATOM     14  N   UNL     1       1.607   5.730  20.479  0.00  0.00    +0.000 NA
ATOM     15  H   UNL     1       1.373   6.375  21.237  0.00  0.00    +0.000 HD
BRANCH  14  16
ATOM     16  C   UNL     1       2.003   4.440  21.052  0.00  0.00    +0.000 C 
BRANCH  16  18
ATOM     17  C   UNL     1       1.398   2.468  19.483  0.00  0.00    +0.000 C 
ATOM     18  C   UNL     1       1.061   3.272  20.722  0.00  0.00    +0.000 C 
ENDBRANCH  16  18
ENDBRANCH  14  16
ENDBRANCH   1  14
TORSDOF 3
ENDMDL
MODEL 5
REMARK VINA RESULT:      -6.1      1.769      5.889
REMARK  Name = 
REMARK  4 active torsions:
REMARK  status: ('A' for Active; 'I' for Inactive)
REMARK    1  A    between atoms: C_1  and  C_2
REMARK    2  A    between atoms: C_2  and  C_3
REMARK    3  A    between atoms: C_3  and  N_4
REMARK    4  A    between atoms: N_4  and  C_5
REMARK                            x       y       z     vdW  Elec       q    Type
REMARK                         _______ _______ _______ _____ _____    ______ ____
ROOT
ATOM      1  C   UNL     1       6.054   4.379  17.189  0.00  0.00    +0.000 C 
ATOM      2  C   UNL     1       5.604   4.352  18.658  0.00  0.00    +0.000 C 
ATOM      3  N   UNL     1       4.261   4.587  18.212  0.00  0.00    +0.000 N 
ATOM      4  C   UNL     1       3.112   3.990  18.755  0.00  0.00    +0.000 A 
ATOM      5  C   UNL     1       1.978   3.781  18.000  0.00  0.00    +0.000 A 
ATOM      6  C   UNL     1       0.909   3.198  18.641  0.00  0.00    +0.000 A 
ATOM      7  N   UNL     1       0.933   2.834  19.935  0.00  0.00    +0.000 NA
ATOM      8  C   UNL     1       2.068   3.068  20.592  0.00  0.00    +0.000 A 
ATOM      9  N   UNL     1       2.115   2.755  21.939  0.00  0.00    +0.000 N 
ATOM     10  N   UNL     1       3.153   3.634  20.056  0.00  0.00    +0.000 NA
ATOM     11  C   UNL     1       4.646   4.928  16.875  0.00  0.00    +0.000 C 
ATOM     12  H   UNL     1       1.172   2.765  22.305  0.00  0.00    +0.000 HD
ATOM     13  H   UNL     1       2.788   3.365  22.390  0.00  0.00    +0.000 HD
ENDROOT
BRANCH   1  14
ATOM     14  N   UNL     1       7.150   5.370  17.017  0.00  0.00    +0.000 NA
ATOM     15  H   UNL     1       7.868   5.090  16.345  0.00  0.00    +0.000 HD
BRANCH  14  16
ATOM     16  C   UNL     1       7.783   5.636  18.313  0.00  0.00    +0.000 C 
BRANCH  16  18
ATOM     17  C   UNL     1       7.685   8.098  17.510  0.00  0.00    +0.000 C 
ATOM     18  C   UNL     1       8.107   7.113  18.581  0.00  0.00    +0.000 C 
ENDBRANCH  16  18
ENDBRANCH  14  16
ENDBRANCH   1  14
TORSDOF 3
ENDMDL
MODEL 6
REMARK VINA RESULT:      -6.1      1.767      2.399
REMARK  Name = 
REMARK  4 active torsions:
REMARK  status: ('A' for Active; 'I' for Inactive)
REMARK    1  A    between atoms: C_1  and  C_2
REMARK    2  A    between atoms: C_2  and  C_3
REMARK    3  A    between atoms: C_3  and  N_4
REMARK    4  A    between atoms: N_4  and  C_5
REMARK                            x       y       z     vdW  Elec       q    Type
REMARK                         _______ _______ _______ _____ _____    ______ ____
ROOT
ATOM      1  C   UNL     1       3.735   2.384  18.864  0.00  0.00    +0.000 C 
ATOM      2  C   UNL     1       4.080   2.771  17.418  0.00  0.00    +0.000 C 
ATOM      3  N   UNL     1       4.417   4.083  17.890  0.00  0.00    +0.000 N 
ATOM      4  C   UNL     1       5.499   4.854  17.436  0.00  0.00    +0.000 A 
ATOM      5  C   UNL     1       6.118   5.784  18.244  0.00  0.00    +0.000 A 
ATOM      6  C   UNL     1       7.161   6.488  17.687  0.00  0.00    +0.000 A 
ATOM      7  N   UNL     1       7.587   6.304  16.426  0.00  0.00    +0.000 NA
ATOM      8  C   UNL     1       6.937   5.383  15.713  0.00  0.00    +0.000 A 
ATOM      9  N   UNL     1       7.312   5.200  14.393  0.00  0.00    +0.000 N 
ATOM     10  N   UNL     1       5.911   4.657  16.166  0.00  0.00    +0.000 NA
ATOM     11  C   UNL     1       3.830   3.891  19.182  0.00  0.00    +0.000 C 
ATOM     12  H   UNL     1       7.745   6.051  14.061  0.00  0.00    +0.000 HD
ATOM     13  H   UNL     1       6.510   4.861  13.874  0.00  0.00    +0.000 HD
ENDROOT
BRANCH   1  14
ATOM     14  N   UNL     1       2.354   1.832  18.921  0.00  0.00    +0.000 NA
ATOM     15  H   UNL     1       2.132   1.175  18.170  0.00  0.00    +0.000 HD
BRANCH  14  16
ATOM     16  C   UNL     1       1.383   2.931  18.898  0.00  0.00    +0.000 C 
BRANCH  16  18
ATOM     17  C   UNL     1       1.406   2.677  21.477  0.00  0.00    +0.000 C 
ATOM     18  C   UNL     1       0.711   3.225  20.248  0.00  0.00    +0.000 C 
ENDBRANCH  16  18
ENDBRANCH  14  16
ENDBRANCH   1  14
TORSDOF 3
ENDMDL
MODEL 7
REMARK VINA RESULT:      -6.1      2.248      3.102
REMARK  Name = 
REMARK  4 active torsions:
REMARK  status: ('A' for Active; 'I' for Inactive)
REMARK    1  A    between atoms: C_1  and  C_2
REMARK    2  A    between atoms: C_2  and  C_3
REMARK    3  A    between atoms: C_3  and  N_4
REMARK    4  A    between atoms: N_4  and  C_5
REMARK                            x       y       z     vdW  Elec       q    Type
REMARK                         _______ _______ _______ _____ _____    ______ ____
ROOT
ATOM      1  C   UNL     1       4.271   2.790  19.832  0.00  0.00    +0.000 C 
ATOM      2  C   UNL     1       4.166   2.643  18.306  0.00  0.00    +0.000 C 
ATOM      3  N   UNL     1       4.632   3.994  18.181  0.00  0.00    +0.000 N 
ATOM      4  C   UNL     1       5.528   4.453  17.203  0.00  0.00    +0.000 A 
ATOM      5  C   UNL     1       6.362   5.527  17.431  0.00  0.00    +0.000 A 
ATOM      6  C   UNL     1       7.191   5.895  16.395  0.00  0.00    +0.000 A 
ATOM      7  N   UNL     1       7.216   5.262  15.209  0.00  0.00    +0.000 NA
ATOM      8  C   UNL     1       6.381   4.232  15.073  0.00  0.00    +0.000 A 
ATOM      9  N   UNL     1       6.340   3.587  13.849  0.00  0.00    +0.000 N 
ATOM     10  N   UNL     1       5.538   3.808  16.017  0.00  0.00    +0.000 NA
ATOM     11  C   UNL     1       4.461   4.299  19.570  0.00  0.00    +0.000 C 
ATOM     12  H   UNL     1       6.655   4.231  13.135  0.00  0.00    +0.000 HD
ATOM     13  H   UNL     1       5.419   3.183  13.727  0.00  0.00    +0.000 HD
ENDROOT
BRANCH   1  14
ATOM     14  N   UNL     1       2.971   2.437  20.463  0.00  0.00    +0.000 NA
ATOM     15  H   UNL     1       2.354   1.878  19.870  0.00  0.00    +0.000 HD
BRANCH  14  16
ATOM     16  C   UNL     1       2.269   3.661  20.864  0.00  0.00    +0.000 C 
BRANCH  16  18
ATOM     17  C   UNL     1       0.524   2.880  19.115  0.00  0.00    +0.000 C 
ATOM     18  C   UNL     1       0.893   3.859  20.211  0.00  0.00    +0.000 C 
ENDBRANCH  16  18
ENDBRANCH  14  16
ENDBRANCH   1  14
TORSDOF 3
ENDMDL
MODEL 8
REMARK VINA RESULT:      -6.1      1.831      2.462
REMARK  Name = 
REMARK  4 active torsions:
REMARK  status: ('A' for Active; 'I' for Inactive)
REMARK    1  A    between atoms: C_1  and  C_2
REMARK    2  A    between atoms: C_2  and  C_3
REMARK    3  A    between atoms: C_3  and  N_4
REMARK    4  A    between atoms: N_4  and  C_5
REMARK                            x       y       z     vdW  Elec       q    Type
REMARK                         _______ _______ _______ _____ _____    ______ ____
ROOT
ATOM      1  C   UNL     1       3.233   4.027  19.654  0.00  0.00    +0.000 C 
ATOM      2  C   UNL     1       4.314   5.115  19.742  0.00  0.00    +0.000 C 
ATOM      3  N   UNL     1       5.113   4.340  18.836  0.00  0.00    +0.000 N 
ATOM      4  C   UNL     1       5.899   4.865  17.798  0.00  0.00    +0.000 A 
ATOM      5  C   UNL     1       6.170   4.142  16.656  0.00  0.00    +0.000 A 
ATOM      6  C   UNL     1       6.959   4.755  15.710  0.00  0.00    +0.000 A 
ATOM      7  N   UNL     1       7.456   5.995  15.854  0.00  0.00    +0.000 NA
ATOM      8  C   UNL     1       7.144   6.628  16.985  0.00  0.00    +0.000 A 
ATOM      9  N   UNL     1       7.679   7.887  17.195  0.00  0.00    +0.000 N 
ATOM     10  N   UNL     1       6.391   6.112  17.961  0.00  0.00    +0.000 NA
ATOM     11  C   UNL     1       4.302   3.166  18.949  0.00  0.00    +0.000 C 
ATOM     12  H   UNL     1       8.527   7.971  16.650  0.00  0.00    +0.000 HD
ATOM     13  H   UNL     1       7.759   8.042  18.193  0.00  0.00    +0.000 HD
ENDROOT
BRANCH   1  14
ATOM     14  N   UNL     1       2.876   3.561  21.022  0.00  0.00    +0.000 NA
ATOM     15  H   UNL     1       3.484   2.825  21.387  0.00  0.00    +0.000 HD
BRANCH  14  16
ATOM     16  C   UNL     1       1.488   3.088  21.035  0.00  0.00    +0.000 C 
BRANCH  16  18
ATOM     17  C   UNL     1       0.607   2.191  18.769  0.00  0.00    +0.000 C 
ATOM     18  C   UNL     1       0.706   3.350  19.739  0.00  0.00    +0.000 C 
ENDBRANCH  16  18
ENDBRANCH  14  16
ENDBRANCH   1  14
TORSDOF 3
ENDMDL
MODEL 9
REMARK VINA RESULT:      -6.0      2.026      5.977
REMARK  Name = 
REMARK  4 active torsions:
REMARK  status: ('A' for Active; 'I' for Inactive)
REMARK    1  A    between atoms: C_1  and  C_2
REMARK    2  A    between atoms: C_2  and  C_3
REMARK    3  A    between atoms: C_3  and  N_4
REMARK    4  A    between atoms: N_4  and  C_5
REMARK                            x       y       z     vdW  Elec       q    Type
REMARK                         _______ _______ _______ _____ _____    ______ ____
ROOT
ATOM      1  C   UNL     1       6.801   6.190  16.668  0.00  0.00    +0.000 C 
ATOM      2  C   UNL     1       6.997   5.230  17.851  0.00  0.00    +0.000 C 
ATOM      3  N   UNL     1       5.628   5.459  18.215  0.00  0.00    +0.000 N 
ATOM      4  C   UNL     1       4.742   4.479  18.691  0.00  0.00    +0.000 A 
ATOM      5  C   UNL     1       3.382   4.572  18.490  0.00  0.00    +0.000 A 
ATOM      6  C   UNL     1       2.611   3.558  19.010  0.00  0.00    +0.000 A 
ATOM      7  N   UNL     1       3.121   2.512  19.682  0.00  0.00    +0.000 NA
ATOM      8  C   UNL     1       4.446   2.496  19.828  0.00  0.00    +0.000 A 
ATOM      9  N   UNL     1       5.006   1.462  20.559  0.00  0.00    +0.000 N 
ATOM     10  N   UNL     1       5.273   3.437  19.365  0.00  0.00    +0.000 NA
ATOM     11  C   UNL     1       5.466   6.579  17.338  0.00  0.00    +0.000 C 
ATOM     12  H   UNL     1       4.307   1.100  21.193  0.00  0.00    +0.000 HD
ATOM     13  H   UNL     1       5.872   1.790  20.971  0.00  0.00    +0.000 HD
ENDROOT
BRANCH   1  14
ATOM     14  N   UNL     1       7.839   7.256  16.707  0.00  0.00    +0.000 NA
ATOM     15  H   UNL     1       8.799   6.907  16.711  0.00  0.00    +0.000 HD
BRANCH  14  16
ATOM     16  C   UNL     1       7.632   8.102  17.887  0.00  0.00    +0.000 C 
BRANCH  16  18
ATOM     17  C   UNL     1       9.103   9.884  19.061  0.00  0.00    +0.000 C 
ATOM     18  C   UNL     1       8.325   9.472  17.828  0.00  0.00    +0.000 C 
ENDBRANCH  16  18
ENDBRANCH  14  16
ENDBRANCH   1  14
TORSDOF 3
ENDMDL
